MODEL 1
REMARK VINA RESULT:      -7.9      0.000      0.000
REMARK  6 active torsions:
REMARK  status: ('A' for Active; 'I' for Inactive)
REMARK    1  A    between atoms: C_7  and  S_8 
REMARK    2  A    between atoms: S_8  and  C_9 
REMARK    3  A    between atoms: C_9  and  C_10 
REMARK    4  A    between atoms: C_18  and  C_19 
REMARK    5  A    between atoms: C_26  and  C_27 
REMARK    6  A    between atoms: C_27  and  O_28 
ROOT
HETATM    1  C   UNL     1      43.260 -10.770   6.609  1.00  0.00     0.070 C 
HETATM    2  C   UNL     1      42.316 -11.530   5.711  1.00  0.00     0.037 A 
HETATM    3  N   UNL     1      41.501 -10.750   4.901  1.00  0.00    -0.192 N 
HETATM    4  C   UNL     1      40.592 -11.262   4.052  1.00  0.00     0.726 A 
HETATM    5  N   UNL     1      40.420 -12.616   3.985  1.00  0.00    -0.082 N 
HETATM    6  N   UNL     1      39.449 -12.944   3.107  1.00  0.00    -0.128 NA
HETATM    7  C   UNL     1      39.132 -11.736   2.620  1.00  0.00     0.226 A 
HETATM    8  N   UNL     1      39.791 -10.680   3.199  1.00  0.00    -0.035 NA
HETATM    9  C   UNL     1      41.210 -13.588   4.760  1.00  0.00     0.204 A 
HETATM   10  C   UNL     1      42.208 -12.880   5.671  1.00  0.00     0.070 A 
HETATM   11  H   UNL     1      41.621  -9.741   4.937  1.00  0.00     0.184 HD
ENDROOT
BRANCH   7  12
HETATM   12  S   UNL     1      38.002 -11.488   1.320  1.00  0.00    -0.083 SA
BRANCH  12  13
HETATM   13  C   UNL     1      39.101 -11.471  -0.122  1.00  0.00     0.123 C 
BRANCH  13  14
HETATM   14  C   UNL     1      38.729 -12.564  -1.100  1.00  0.00    -0.027 A 
HETATM   15  C   UNL     1      39.356 -13.821  -1.112  1.00  0.00     0.041 A 
HETATM   16 CL   UNL     1      40.595 -14.245   0.016  1.00  0.00    -0.084 Cl
HETATM   17  C   UNL     1      38.994 -14.788  -2.057  1.00  0.00     0.024 A 
HETATM   18  C   UNL     1      38.013 -14.511  -3.009  1.00  0.00     0.002 A 
HETATM   19  C   UNL     1      37.391 -13.266  -3.017  1.00  0.00     0.001 A 
HETATM   20  C   UNL     1      37.744 -12.302  -2.072  1.00  0.00     0.009 A 
ENDBRANCH  13  14
ENDBRANCH  12  13
ENDBRANCH   7  12
BRANCH   9  21
HETATM   21  C   UNL     1      41.876 -14.580   3.808  1.00  0.00    -0.006 A 
HETATM   22  C   UNL     1      41.581 -15.955   3.825  1.00  0.00     0.042 A 
HETATM   23 CL   UNL     1      40.449 -16.650   4.930  1.00  0.00    -0.084 Cl
HETATM   24  C   UNL     1      42.213 -16.831   2.934  1.00  0.00     0.024 A 
HETATM   25  C   UNL     1      43.142 -16.353   2.012  1.00  0.00     0.002 A 
HETATM   26  C   UNL     1      43.446 -14.997   1.978  1.00  0.00     0.001 A 
HETATM   27  C   UNL     1      42.824 -14.118   2.867  1.00  0.00     0.011 A 
ENDBRANCH   9  21
BRANCH  10  28
HETATM   28  C   UNL     1      43.094 -13.744   6.474  1.00  0.00     0.293 C 
HETATM   29  O   UNL     1      44.313 -13.703   6.438  1.00  0.00    -0.259 OA
BRANCH  28  30
HETATM   30  O   UNL     1      42.340 -14.566   7.241  1.00  0.00    -0.323 OA
HETATM   31  C   UNL     1      43.011 -15.767   7.628  1.00  0.00     0.213 C 
ENDBRANCH  28  30
ENDBRANCH  10  28
TORSDOF 6
ENDMDL
MODEL 2
REMARK VINA RESULT:      -7.9      1.277      1.485
REMARK  6 active torsions:
REMARK  status: ('A' for Active; 'I' for Inactive)
REMARK    1  A    between atoms: C_7  and  S_8 
REMARK    2  A    between atoms: S_8  and  C_9 
REMARK    3  A    between atoms: C_9  and  C_10 
REMARK    4  A    between atoms: C_18  and  C_19 
REMARK    5  A    between atoms: C_26  and  C_27 
REMARK    6  A    between atoms: C_27  and  O_28 
ROOT
HETATM    1  C   UNL     1      44.728 -11.938   7.040  1.00  0.00     0.070 C 
HETATM    2  C   UNL     1      43.663 -12.251   6.018  1.00  0.00     0.037 A 
HETATM    3  N   UNL     1      43.314 -11.202   5.176  1.00  0.00    -0.192 N 
HETATM    4  C   UNL     1      42.375 -11.302   4.219  1.00  0.00     0.726 A 
HETATM    5  N   UNL     1      41.691 -12.475   4.066  1.00  0.00    -0.082 N 
HETATM    6  N   UNL     1      40.770 -12.381   3.084  1.00  0.00    -0.128 NA
HETATM    7  C   UNL     1      41.010 -11.142   2.633  1.00  0.00     0.226 A 
HETATM    8  N   UNL     1      41.965 -10.441   3.326  1.00  0.00    -0.035 NA
HETATM    9  C   UNL     1      41.945 -13.689   4.860  1.00  0.00     0.204 A 
HETATM   10  C   UNL     1      43.037 -13.446   5.897  1.00  0.00     0.070 A 
HETATM   11  H   UNL     1      43.819 -10.325   5.277  1.00  0.00     0.184 HD
ENDROOT
BRANCH   7  12
HETATM   12  S   UNL     1      40.216 -10.451   1.247  1.00  0.00    -0.083 SA
BRANCH  12  13
HETATM   13  C   UNL     1      38.922 -11.678   0.918  1.00  0.00     0.123 C 
BRANCH  13  14
HETATM   14  C   UNL     1      39.131 -12.340  -0.427  1.00  0.00    -0.027 A 
HETATM   15  C   UNL     1      39.622 -13.649  -0.563  1.00  0.00     0.041 A 
HETATM   16 CL   UNL     1      40.007 -14.637   0.802  1.00  0.00    -0.084 Cl
HETATM   17  C   UNL     1      39.824 -14.205  -1.832  1.00  0.00     0.024 A 
HETATM   18  C   UNL     1      39.551 -13.461  -2.979  1.00  0.00     0.002 A 
HETATM   19  C   UNL     1      39.074 -12.158  -2.861  1.00  0.00     0.001 A 
HETATM   20  C   UNL     1      38.864 -11.603  -1.597  1.00  0.00     0.009 A 
ENDBRANCH  13  14
ENDBRANCH  12  13
ENDBRANCH   7  12
BRANCH   9  21
HETATM   21  C   UNL     1      42.264 -14.855   3.925  1.00  0.00    -0.006 A 
HETATM   22  C   UNL     1      41.657 -16.116   4.058  1.00  0.00     0.042 A 
HETATM   23 CL   UNL     1      40.505 -16.467   5.297  1.00  0.00    -0.084 Cl
HETATM   24  C   UNL     1      41.976 -17.157   3.179  1.00  0.00     0.024 A 
HETATM   25  C   UNL     1      42.898 -16.959   2.153  1.00  0.00     0.002 A 
HETATM   26  C   UNL     1      43.509 -15.719   2.004  1.00  0.00     0.001 A 
HETATM   27  C   UNL     1      43.199 -14.677   2.881  1.00  0.00     0.011 A 
ENDBRANCH   9  21
BRANCH  10  28
HETATM   28  C   UNL     1      43.418 -14.599   6.735  1.00  0.00     0.293 C 
HETATM   29  O   UNL     1      42.824 -14.943   7.744  1.00  0.00    -0.259 OA
BRANCH  28  30
HETATM   30  O   UNL     1      44.509 -15.197   6.201  1.00  0.00    -0.323 OA
HETATM   31  C   UNL     1      44.517 -16.618   6.353  1.00  0.00     0.213 C 
ENDBRANCH  28  30
ENDBRANCH  10  28
TORSDOF 6
ENDMDL
MODEL 3
REMARK VINA RESULT:      -7.8      4.068      8.012
REMARK  6 active torsions:
REMARK  status: ('A' for Active; 'I' for Inactive)
REMARK    1  A    between atoms: C_7  and  S_8 
REMARK    2  A    between atoms: S_8  and  C_9 
REMARK    3  A    between atoms: C_9  and  C_10 
REMARK    4  A    between atoms: C_18  and  C_19 
REMARK    5  A    between atoms: C_26  and  C_27 
REMARK    6  A    between atoms: C_27  and  O_28 
ROOT
HETATM    1  C   UNL     1      38.621 -14.532  -3.201  1.00  0.00     0.070 C 
HETATM    2  C   UNL     1      38.886 -14.012  -1.810  1.00  0.00     0.037 A 
HETATM    3  N   UNL     1      39.524 -14.898  -0.951  1.00  0.00    -0.192 N 
HETATM    4  C   UNL     1      39.824 -14.605   0.327  1.00  0.00     0.726 A 
HETATM    5  N   UNL     1      39.466 -13.391   0.842  1.00  0.00    -0.082 N 
HETATM    6  N   UNL     1      39.817 -13.286   2.141  1.00  0.00    -0.128 NA
HETATM    7  C   UNL     1      40.457 -14.449   2.322  1.00  0.00     0.226 A 
HETATM    8  N   UNL     1      40.453 -15.295   1.241  1.00  0.00    -0.035 NA
HETATM    9  C   UNL     1      38.799 -12.330   0.067  1.00  0.00     0.204 A 
HETATM   10  C   UNL     1      38.528 -12.784  -1.363  1.00  0.00     0.070 A 
HETATM   11  H   UNL     1      39.801 -15.804  -1.322  1.00  0.00     0.184 HD
ENDROOT
BRANCH   7  12
HETATM   12  S   UNL     1      41.280 -14.876   3.795  1.00  0.00    -0.083 SA
BRANCH  12  13
HETATM   13  C   UNL     1      42.953 -15.227   3.191  1.00  0.00     0.123 C 
BRANCH  13  14
HETATM   14  C   UNL     1      43.291 -16.693   3.350  1.00  0.00    -0.027 A 
HETATM   15  C   UNL     1      43.869 -17.219   4.518  1.00  0.00     0.041 A 
HETATM   16 CL   UNL     1      44.221 -16.237   5.896  1.00  0.00    -0.084 Cl
HETATM   17  C   UNL     1      44.189 -18.579   4.604  1.00  0.00     0.024 A 
HETATM   18  C   UNL     1      43.948 -19.429   3.525  1.00  0.00     0.002 A 
HETATM   19  C   UNL     1      43.385 -18.921   2.357  1.00  0.00     0.001 A 
HETATM   20  C   UNL     1      43.059 -17.567   2.271  1.00  0.00     0.009 A 
ENDBRANCH  13  14
ENDBRANCH  12  13
ENDBRANCH   7  12
BRANCH   9  21
HETATM   21  C   UNL     1      39.630 -11.049   0.136  1.00  0.00    -0.006 A 
HETATM   22  C   UNL     1      39.154  -9.873   0.744  1.00  0.00     0.042 A 
HETATM   23 CL   UNL     1      37.584  -9.766   1.457  1.00  0.00    -0.084 Cl
HETATM   24  C   UNL     1      39.948  -8.721   0.787  1.00  0.00     0.024 A 
HETATM   25  C   UNL     1      41.225  -8.722   0.231  1.00  0.00     0.002 A 
HETATM   26  C   UNL     1      41.715  -9.874  -0.373  1.00  0.00     0.001 A 
HETATM   27  C   UNL     1      40.927 -11.026  -0.424  1.00  0.00     0.011 A 
ENDBRANCH   9  21
BRANCH  10  28
HETATM   28  C   UNL     1      37.900 -11.796  -2.260  1.00  0.00     0.293 C 
HETATM   29  O   UNL     1      36.729 -11.455  -2.196  1.00  0.00    -0.259 OA
BRANCH  28  30
HETATM   30  O   UNL     1      38.822 -11.341  -3.139  1.00  0.00    -0.323 OA
HETATM   31  C   UNL     1      38.764  -9.929  -3.356  1.00  0.00     0.213 C 
ENDBRANCH  28  30
ENDBRANCH  10  28
TORSDOF 6
ENDMDL
MODEL 4
REMARK VINA RESULT:      -7.7      4.196      6.868
REMARK  6 active torsions:
REMARK  status: ('A' for Active; 'I' for Inactive)
REMARK    1  A    between atoms: C_7  and  S_8 
REMARK    2  A    between atoms: S_8  and  C_9 
REMARK    3  A    between atoms: C_9  and  C_10 
REMARK    4  A    between atoms: C_18  and  C_19 
REMARK    5  A    between atoms: C_26  and  C_27 
REMARK    6  A    between atoms: C_27  and  O_28 
ROOT
HETATM    1  C   UNL     1      40.097 -10.813   3.637  1.00  0.00     0.070 C 
HETATM    2  C   UNL     1      40.881 -11.610   4.650  1.00  0.00     0.037 A 
HETATM    3  N   UNL     1      40.951 -12.977   4.411  1.00  0.00    -0.192 N 
HETATM    4  C   UNL     1      41.595 -13.838   5.219  1.00  0.00     0.726 A 
HETATM    5  N   UNL     1      42.195 -13.375   6.357  1.00  0.00    -0.082 N 
HETATM    6  N   UNL     1      42.762 -14.381   7.057  1.00  0.00    -0.128 NA
HETATM    7  C   UNL     1      42.533 -15.416   6.237  1.00  0.00     0.226 A 
HETATM    8  N   UNL     1      41.793 -15.126   5.117  1.00  0.00    -0.035 NA
HETATM    9  C   UNL     1      42.230 -11.957   6.753  1.00  0.00     0.204 A 
HETATM   10  C   UNL     1      41.476 -11.090   5.750  1.00  0.00     0.070 A 
HETATM   11  H   UNL     1      40.513 -13.335   3.566  1.00  0.00     0.184 HD
ENDROOT
BRANCH   7  12
HETATM   12  S   UNL     1      43.146 -17.020   6.519  1.00  0.00    -0.083 SA
BRANCH  12  13
HETATM   13  C   UNL     1      44.407 -17.163   5.223  1.00  0.00     0.123 C 
BRANCH  13  14
HETATM   14  C   UNL     1      44.105 -18.321   4.297  1.00  0.00    -0.027 A 
HETATM   15  C   UNL     1      43.621 -18.145   2.990  1.00  0.00     0.041 A 
HETATM   16 CL   UNL     1      43.352 -16.580   2.308  1.00  0.00    -0.084 Cl
HETATM   17  C   UNL     1      43.331 -19.252   2.184  1.00  0.00     0.024 A 
HETATM   18  C   UNL     1      43.508 -20.546   2.673  1.00  0.00     0.002 A 
HETATM   19  C   UNL     1      43.977 -20.737   3.970  1.00  0.00     0.001 A 
HETATM   20  C   UNL     1      44.274 -19.635   4.774  1.00  0.00     0.009 A 
ENDBRANCH  13  14
ENDBRANCH  12  13
ENDBRANCH   7  12
BRANCH   9  21
HETATM   21  C   UNL     1      43.681 -11.517   6.946  1.00  0.00    -0.006 A 
HETATM   22  C   UNL     1      44.125 -10.877   8.117  1.00  0.00     0.042 A 
HETATM   23 CL   UNL     1      43.070 -10.518   9.438  1.00  0.00    -0.084 Cl
HETATM   24  C   UNL     1      45.462 -10.490   8.255  1.00  0.00     0.024 A 
HETATM   25  C   UNL     1      46.379 -10.739   7.235  1.00  0.00     0.002 A 
HETATM   26  C   UNL     1      45.961 -11.372   6.070  1.00  0.00     0.001 A 
HETATM   27  C   UNL     1      44.626 -11.755   5.924  1.00  0.00     0.011 A 
ENDBRANCH   9  21
BRANCH  10  28
HETATM   28  C   UNL     1      41.472  -9.638   6.008  1.00  0.00     0.293 C 
HETATM   29  O   UNL     1      42.041  -8.812   5.312  1.00  0.00    -0.259 OA
BRANCH  28  30
HETATM   30  O   UNL     1      40.743  -9.384   7.120  1.00  0.00    -0.323 OA
HETATM   31  C   UNL     1      39.410  -8.946   6.847  1.00  0.00     0.213 C 
ENDBRANCH  28  30
ENDBRANCH  10  28
TORSDOF 6
ENDMDL
MODEL 5
REMARK VINA RESULT:      -7.4      3.646      7.101
REMARK  6 active torsions:
REMARK  status: ('A' for Active; 'I' for Inactive)
REMARK    1  A    between atoms: C_7  and  S_8 
REMARK    2  A    between atoms: S_8  and  C_9 
REMARK    3  A    between atoms: C_9  and  C_10 
REMARK    4  A    between atoms: C_18  and  C_19 
REMARK    5  A    between atoms: C_26  and  C_27 
REMARK    6  A    between atoms: C_27  and  O_28 
ROOT
HETATM    1  C   UNL     1      40.639  -8.598   2.596  1.00  0.00     0.070 C 
HETATM    2  C   UNL     1      40.922  -9.994   2.099  1.00  0.00     0.037 A 
HETATM    3  N   UNL     1      40.938 -10.985   3.073  1.00  0.00    -0.192 N 
HETATM    4  C   UNL     1      41.188 -12.280   2.808  1.00  0.00     0.726 A 
HETATM    5  N   UNL     1      41.474 -12.663   1.528  1.00  0.00    -0.082 N 
HETATM    6  N   UNL     1      41.728 -13.987   1.456  1.00  0.00    -0.128 NA
HETATM    7  C   UNL     1      41.498 -14.354   2.725  1.00  0.00     0.226 A 
HETATM    8  N   UNL     1      41.196 -13.329   3.587  1.00  0.00    -0.035 NA
HETATM    9  C   UNL     1      41.483 -11.747   0.374  1.00  0.00     0.204 A 
HETATM   10  C   UNL     1      41.174 -10.318   0.808  1.00  0.00     0.070 A 
HETATM   11  H   UNL     1      40.723 -10.715   4.029  1.00  0.00     0.184 HD
ENDROOT
BRANCH   7  12
HETATM   12  S   UNL     1      41.532 -16.007   3.270  1.00  0.00    -0.083 SA
BRANCH  12  13
HETATM   13  C   UNL     1      43.144 -16.562   2.654  1.00  0.00     0.123 C 
BRANCH  13  14
HETATM   14  C   UNL     1      43.409 -18.000   3.045  1.00  0.00    -0.027 A 
HETATM   15  C   UNL     1      43.967 -18.361   4.283  1.00  0.00     0.041 A 
HETATM   16 CL   UNL     1      44.377 -17.192   5.488  1.00  0.00    -0.084 Cl
HETATM   17  C   UNL     1      44.219 -19.705   4.585  1.00  0.00     0.024 A 
HETATM   18  C   UNL     1      43.929 -20.702   3.654  1.00  0.00     0.002 A 
HETATM   19  C   UNL     1      43.386 -20.359   2.419  1.00  0.00     0.001 A 
HETATM   20  C   UNL     1      43.127 -19.021   2.118  1.00  0.00     0.009 A 
ENDBRANCH  13  14
ENDBRANCH  12  13
ENDBRANCH   7  12
BRANCH   9  21
HETATM   21  C   UNL     1      40.522 -12.263  -0.696  1.00  0.00    -0.006 A 
HETATM   22  C   UNL     1      39.142 -12.405  -0.465  1.00  0.00     0.042 A 
HETATM   23 CL   UNL     1      38.409 -12.020   1.052  1.00  0.00    -0.084 Cl
HETATM   24  C   UNL     1      38.295 -12.880  -1.472  1.00  0.00     0.024 A 
HETATM   25  C   UNL     1      38.806 -13.217  -2.724  1.00  0.00     0.002 A 
HETATM   26  C   UNL     1      40.167 -13.083  -2.974  1.00  0.00     0.001 A 
HETATM   27  C   UNL     1      41.018 -12.614  -1.971  1.00  0.00     0.011 A 
ENDBRANCH   9  21
BRANCH  10  28
HETATM   28  C   UNL     1      41.111  -9.304  -0.262  1.00  0.00     0.293 C 
HETATM   29  O   UNL     1      40.076  -8.822  -0.693  1.00  0.00    -0.259 OA
BRANCH  28  30
HETATM   30  O   UNL     1      42.367  -9.007  -0.670  1.00  0.00    -0.323 OA
HETATM   31  C   UNL     1      42.576  -7.616  -0.922  1.00  0.00     0.213 C 
ENDBRANCH  28  30
ENDBRANCH  10  28
TORSDOF 6
ENDMDL
MODEL 6
REMARK VINA RESULT:      -7.2      2.507      3.181
REMARK  6 active torsions:
REMARK  status: ('A' for Active; 'I' for Inactive)
REMARK    1  A    between atoms: C_7  and  S_8 
REMARK    2  A    between atoms: S_8  and  C_9 
REMARK    3  A    between atoms: C_9  and  C_10 
REMARK    4  A    between atoms: C_18  and  C_19 
REMARK    5  A    between atoms: C_26  and  C_27 
REMARK    6  A    between atoms: C_27  and  O_28 
ROOT
HETATM    1  C   UNL     1      44.458 -11.993   7.106  1.00  0.00     0.070 C 
HETATM    2  C   UNL     1      43.471 -12.230   5.990  1.00  0.00     0.037 A 
HETATM    3  N   UNL     1      43.203 -11.130   5.184  1.00  0.00    -0.192 N 
HETATM    4  C   UNL     1      42.339 -11.160   4.154  1.00  0.00     0.726 A 
HETATM    5  N   UNL     1      41.651 -12.309   3.884  1.00  0.00    -0.082 N 
HETATM    6  N   UNL     1      40.810 -12.144   2.841  1.00  0.00    -0.128 NA
HETATM    7  C   UNL     1      41.102 -10.887   2.480  1.00  0.00     0.226 A 
HETATM    8  N   UNL     1      42.012 -10.243   3.282  1.00  0.00    -0.035 NA
HETATM    9  C   UNL     1      41.825 -13.569   4.626  1.00  0.00     0.204 A 
HETATM   10  C   UNL     1      42.837 -13.404   5.755  1.00  0.00     0.070 A 
HETATM   11  H   UNL     1      43.712 -10.269   5.371  1.00  0.00     0.184 HD
ENDROOT
BRANCH   7  12
HETATM   12  S   UNL     1      40.428 -10.107   1.078  1.00  0.00    -0.083 SA
BRANCH  12  13
HETATM   13  C   UNL     1      41.506 -10.729  -0.241  1.00  0.00     0.123 C 
BRANCH  13  14
HETATM   14  C   UNL     1      41.565  -9.756  -1.398  1.00  0.00    -0.027 A 
HETATM   15  C   UNL     1      40.776  -9.894  -2.551  1.00  0.00     0.041 A 
HETATM   16 CL   UNL     1      39.638 -11.182  -2.742  1.00  0.00    -0.084 Cl
HETATM   17  C   UNL     1      40.890  -8.981  -3.606  1.00  0.00     0.024 A 
HETATM   18  C   UNL     1      41.799  -7.926  -3.530  1.00  0.00     0.002 A 
HETATM   19  C   UNL     1      42.596  -7.781  -2.398  1.00  0.00     0.001 A 
HETATM   20  C   UNL     1      42.480  -8.686  -1.341  1.00  0.00     0.009 A 
ENDBRANCH  13  14
ENDBRANCH  12  13
ENDBRANCH   7  12
BRANCH   9  21
HETATM   21  C   UNL     1      42.198 -14.688   3.654  1.00  0.00    -0.006 A 
HETATM   22  C   UNL     1      41.597 -15.959   3.701  1.00  0.00     0.042 A 
HETATM   23 CL   UNL     1      40.392 -16.375   4.868  1.00  0.00    -0.084 Cl
HETATM   24  C   UNL     1      41.965 -16.956   2.791  1.00  0.00     0.024 A 
HETATM   25  C   UNL     1      42.932 -16.704   1.820  1.00  0.00     0.002 A 
HETATM   26  C   UNL     1      43.537 -15.454   1.756  1.00  0.00     0.001 A 
HETATM   27  C   UNL     1      43.178 -14.456   2.664  1.00  0.00     0.011 A 
ENDBRANCH   9  21
BRANCH  10  28
HETATM   28  C   UNL     1      43.135 -14.608   6.554  1.00  0.00     0.293 C 
HETATM   29  O   UNL     1      42.397 -15.066   7.411  1.00  0.00    -0.259 OA
BRANCH  28  30
HETATM   30  O   UNL     1      44.336 -15.107   6.177  1.00  0.00    -0.323 OA
HETATM   31  C   UNL     1      44.389 -16.536   6.171  1.00  0.00     0.213 C 
ENDBRANCH  28  30
ENDBRANCH  10  28
TORSDOF 6
ENDMDL
MODEL 7
REMARK VINA RESULT:      -6.9      1.992      2.559
REMARK  6 active torsions:
REMARK  status: ('A' for Active; 'I' for Inactive)
REMARK    1  A    between atoms: C_7  and  S_8 
REMARK    2  A    between atoms: S_8  and  C_9 
REMARK    3  A    between atoms: C_9  and  C_10 
REMARK    4  A    between atoms: C_18  and  C_19 
REMARK    5  A    between atoms: C_26  and  C_27 
REMARK    6  A    between atoms: C_27  and  O_28 
ROOT
HETATM    1  C   UNL     1      41.248 -10.414   6.479  1.00  0.00     0.070 C 
HETATM    2  C   UNL     1      40.515 -11.007   5.301  1.00  0.00     0.037 A 
HETATM    3  N   UNL     1      39.938 -10.091   4.431  1.00  0.00    -0.192 N 
HETATM    4  C   UNL     1      39.236 -10.446   3.340  1.00  0.00     0.726 A 
HETATM    5  N   UNL     1      39.040 -11.770   3.067  1.00  0.00    -0.082 N 
HETATM    6  N   UNL     1      38.290 -11.936   1.957  1.00  0.00    -0.128 NA
HETATM    7  C   UNL     1      38.136 -10.663   1.566  1.00  0.00     0.226 A 
HETATM    8  N   UNL     1      38.676  -9.722   2.408  1.00  0.00    -0.035 NA
HETATM    9  C   UNL     1      39.594 -12.871   3.873  1.00  0.00     0.204 A 
HETATM   10  C   UNL     1      40.375 -12.334   5.069  1.00  0.00     0.070 A 
HETATM   11  H   UNL     1      40.081  -9.102   4.621  1.00  0.00     0.184 HD
ENDROOT
BRANCH   7  12
HETATM   12  S   UNL     1      37.349 -10.199   0.085  1.00  0.00    -0.083 SA
BRANCH  12  13
HETATM   13  C   UNL     1      38.669 -10.465  -1.130  1.00  0.00     0.123 C 
BRANCH  13  14
HETATM   14  C   UNL     1      38.759 -11.923  -1.522  1.00  0.00    -0.027 A 
HETATM   15  C   UNL     1      37.823 -12.545  -2.365  1.00  0.00     0.041 A 
HETATM   16 CL   UNL     1      36.491 -11.686  -3.056  1.00  0.00    -0.084 Cl
HETATM   17  C   UNL     1      37.936 -13.905  -2.675  1.00  0.00     0.024 A 
HETATM   18  C   UNL     1      38.976 -14.665  -2.141  1.00  0.00     0.002 A 
HETATM   19  C   UNL     1      39.906 -14.066  -1.296  1.00  0.00     0.001 A 
HETATM   20  C   UNL     1      39.800 -12.708  -0.990  1.00  0.00     0.009 A 
ENDBRANCH  13  14
ENDBRANCH  12  13
ENDBRANCH   7  12
BRANCH   9  21
HETATM   21  C   UNL     1      40.431 -13.787   2.981  1.00  0.00    -0.006 A 
HETATM   22  C   UNL     1      41.632 -13.366   2.383  1.00  0.00     0.042 A 
HETATM   23 CL   UNL     1      42.265 -11.772   2.593  1.00  0.00    -0.084 Cl
HETATM   24  C   UNL     1      42.369 -14.236   1.574  1.00  0.00     0.024 A 
HETATM   25  C   UNL     1      41.927 -15.539   1.349  1.00  0.00     0.002 A 
HETATM   26  C   UNL     1      40.743 -15.975   1.932  1.00  0.00     0.001 A 
HETATM   27  C   UNL     1      39.999 -15.110   2.737  1.00  0.00     0.011 A 
ENDBRANCH   9  21
BRANCH  10  28
HETATM   28  C   UNL     1      41.019 -13.337   5.938  1.00  0.00     0.293 C 
HETATM   29  O   UNL     1      42.227 -13.474   6.052  1.00  0.00    -0.259 OA
BRANCH  28  30
HETATM   30  O   UNL     1      40.065 -14.057   6.572  1.00  0.00    -0.323 OA
HETATM   31  C   UNL     1      40.292 -15.468   6.540  1.00  0.00     0.213 C 
ENDBRANCH  28  30
ENDBRANCH  10  28
TORSDOF 6
ENDMDL
MODEL 8
REMARK VINA RESULT:      -6.8      3.672      7.264
REMARK  6 active torsions:
REMARK  status: ('A' for Active; 'I' for Inactive)
REMARK    1  A    between atoms: C_7  and  S_8 
REMARK    2  A    between atoms: S_8  and  C_9 
REMARK    3  A    between atoms: C_9  and  C_10 
REMARK    4  A    between atoms: C_18  and  C_19 
REMARK    5  A    between atoms: C_26  and  C_27 
REMARK    6  A    between atoms: C_27  and  O_28 
ROOT
HETATM    1  C   UNL     1      36.071  -9.548   1.135  1.00  0.00     0.070 C 
HETATM    2  C   UNL     1      37.454 -10.152   1.132  1.00  0.00     0.037 A 
HETATM    3  N   UNL     1      37.891 -10.654   2.352  1.00  0.00    -0.192 N 
HETATM    4  C   UNL     1      39.101 -11.213   2.532  1.00  0.00     0.726 A 
HETATM    5  N   UNL     1      39.977 -11.275   1.486  1.00  0.00    -0.082 N 
HETATM    6  N   UNL     1      41.147 -11.836   1.858  1.00  0.00    -0.128 NA
HETATM    7  C   UNL     1      40.875 -12.162   3.129  1.00  0.00     0.226 A 
HETATM    8  N   UNL     1      39.641 -11.767   3.584  1.00  0.00    -0.035 NA
HETATM    9  C   UNL     1      39.671 -10.805   0.123  1.00  0.00     0.204 A 
HETATM   10  C   UNL     1      38.270 -10.207   0.052  1.00  0.00     0.070 A 
HETATM   11  H   UNL     1      37.246 -10.619   3.138  1.00  0.00     0.184 HD
ENDROOT
BRANCH   7  12
HETATM   12  S   UNL     1      41.966 -13.057   4.148  1.00  0.00    -0.083 SA
BRANCH  12  13
HETATM   13  C   UNL     1      41.064 -14.615   4.370  1.00  0.00     0.123 C 
BRANCH  13  14
HETATM   14  C   UNL     1      41.888 -15.792   3.894  1.00  0.00    -0.027 A 
HETATM   15  C   UNL     1      41.638 -16.456   2.682  1.00  0.00     0.041 A 
HETATM   16 CL   UNL     1      40.376 -15.969   1.605  1.00  0.00    -0.084 Cl
HETATM   17  C   UNL     1      42.412 -17.558   2.302  1.00  0.00     0.024 A 
HETATM   18  C   UNL     1      43.436 -18.019   3.129  1.00  0.00     0.002 A 
HETATM   19  C   UNL     1      43.690 -17.378   4.338  1.00  0.00     0.001 A 
HETATM   20  C   UNL     1      42.924 -16.274   4.717  1.00  0.00     0.009 A 
ENDBRANCH  13  14
ENDBRANCH  12  13
ENDBRANCH   7  12
BRANCH   9  21
HETATM   21  C   UNL     1      39.880 -11.948  -0.870  1.00  0.00    -0.006 A 
HETATM   22  C   UNL     1      40.643 -11.798  -2.041  1.00  0.00     0.042 A 
HETATM   23 CL   UNL     1      41.405 -10.308  -2.471  1.00  0.00    -0.084 Cl
HETATM   24  C   UNL     1      40.811 -12.870  -2.925  1.00  0.00     0.024 A 
HETATM   25  C   UNL     1      40.228 -14.107  -2.655  1.00  0.00     0.002 A 
HETATM   26  C   UNL     1      39.470 -14.276  -1.501  1.00  0.00     0.001 A 
HETATM   27  C   UNL     1      39.295 -13.209  -0.618  1.00  0.00     0.011 A 
ENDBRANCH   9  21
BRANCH  10  28
HETATM   28  C   UNL     1      37.822  -9.735  -1.272  1.00  0.00     0.293 C 
HETATM   29  O   UNL     1      36.974 -10.292  -1.950  1.00  0.00    -0.259 OA
BRANCH  28  30
HETATM   30  O   UNL     1      38.494  -8.605  -1.594  1.00  0.00    -0.323 OA
HETATM   31  C   UNL     1      37.727  -7.411  -1.420  1.00  0.00     0.213 C 
ENDBRANCH  28  30
ENDBRANCH  10  28
TORSDOF 6
ENDMDL
MODEL 9
REMARK VINA RESULT:      -6.8      1.768      2.280
REMARK  6 active torsions:
REMARK  status: ('A' for Active; 'I' for Inactive)
REMARK    1  A    between atoms: C_7  and  S_8 
REMARK    2  A    between atoms: S_8  and  C_9 
REMARK    3  A    between atoms: C_9  and  C_10 
REMARK    4  A    between atoms: C_18  and  C_19 
REMARK    5  A    between atoms: C_26  and  C_27 
REMARK    6  A    between atoms: C_27  and  O_28 
ROOT
HETATM    1  C   UNL     1      44.558 -11.779   7.129  1.00  0.00     0.070 C 
HETATM    2  C   UNL     1      43.416 -12.086   6.191  1.00  0.00     0.037 A 
HETATM    3  N   UNL     1      42.854 -10.988   5.553  1.00  0.00    -0.192 N 
HETATM    4  C   UNL     1      41.820 -11.077   4.697  1.00  0.00     0.726 A 
HETATM    5  N   UNL     1      41.255 -12.297   4.449  1.00  0.00    -0.082 N 
HETATM    6  N   UNL     1      40.215 -12.191   3.595  1.00  0.00    -0.128 NA
HETATM    7  C   UNL     1      40.261 -10.883   3.306  1.00  0.00     0.226 A 
HETATM    8  N   UNL     1      41.212 -10.164   3.988  1.00  0.00    -0.035 NA
HETATM    9  C   UNL     1      41.736 -13.563   5.027  1.00  0.00     0.204 A 
HETATM   10  C   UNL     1      42.914 -13.324   5.966  1.00  0.00     0.070 A 
HETATM   11  H   UNL     1      43.268 -10.075   5.725  1.00  0.00     0.184 HD
ENDROOT
BRANCH   7  12
HETATM   12  S   UNL     1      39.231 -10.120   2.128  1.00  0.00    -0.083 SA
BRANCH  12  13
HETATM   13  C   UNL     1      38.247 -11.525   1.539  1.00  0.00     0.123 C 
BRANCH  13  14
HETATM   14  C   UNL     1      38.915 -12.201   0.362  1.00  0.00    -0.027 A 
HETATM   15  C   UNL     1      38.760 -11.756  -0.961  1.00  0.00     0.041 A 
HETATM   16 CL   UNL     1      37.809 -10.369  -1.362  1.00  0.00    -0.084 Cl
HETATM   17  C   UNL     1      39.378 -12.435  -2.018  1.00  0.00     0.024 A 
HETATM   18  C   UNL     1      40.147 -13.572  -1.771  1.00  0.00     0.002 A 
HETATM   19  C   UNL     1      40.301 -14.032  -0.467  1.00  0.00     0.001 A 
HETATM   20  C   UNL     1      39.692 -13.353   0.591  1.00  0.00     0.009 A 
ENDBRANCH  13  14
ENDBRANCH  12  13
ENDBRANCH   7  12
BRANCH   9  21
HETATM   21  C   UNL     1      42.063 -14.546   3.904  1.00  0.00    -0.006 A 
HETATM   22  C   UNL     1      42.997 -14.254   2.894  1.00  0.00     0.042 A 
HETATM   23 CL   UNL     1      43.852 -12.754   2.824  1.00  0.00    -0.084 Cl
HETATM   24  C   UNL     1      43.269 -15.183   1.884  1.00  0.00     0.024 A 
HETATM   25  C   UNL     1      42.620 -16.416   1.864  1.00  0.00     0.002 A 
HETATM   26  C   UNL     1      41.694 -16.725   2.853  1.00  0.00     0.001 A 
HETATM   27  C   UNL     1      41.415 -15.801   3.862  1.00  0.00     0.011 A 
ENDBRANCH   9  21
BRANCH  10  28
HETATM   28  C   UNL     1      43.519 -14.520   6.581  1.00  0.00     0.293 C 
HETATM   29  O   UNL     1      44.619 -14.963   6.290  1.00  0.00    -0.259 OA
BRANCH  28  30
HETATM   30  O   UNL     1      42.668 -15.026   7.504  1.00  0.00    -0.323 OA
HETATM   31  C   UNL     1      42.413 -16.424   7.346  1.00  0.00     0.213 C 
ENDBRANCH  28  30
ENDBRANCH  10  28
TORSDOF 6
ENDMDL
MODEL 10
REMARK VINA RESULT:      -6.8      3.390      6.368
REMARK  6 active torsions:
REMARK  status: ('A' for Active; 'I' for Inactive)
REMARK    1  A    between atoms: C_7  and  S_8 
REMARK    2  A    between atoms: S_8  and  C_9 
REMARK    3  A    between atoms: C_9  and  C_10 
REMARK    4  A    between atoms: C_18  and  C_19 
REMARK    5  A    between atoms: C_26  and  C_27 
REMARK    6  A    between atoms: C_27  and  O_28 
ROOT
HETATM    1  C   UNL     1      38.628  -8.867   0.792  1.00  0.00     0.070 C 
HETATM    2  C   UNL     1      39.040 -10.089   1.576  1.00  0.00     0.037 A 
HETATM    3  N   UNL     1      39.182 -11.256   0.835  1.00  0.00    -0.192 N 
HETATM    4  C   UNL     1      39.528 -12.438   1.375  1.00  0.00     0.726 A 
HETATM    5  N   UNL     1      39.727 -12.531   2.724  1.00  0.00    -0.082 N 
HETATM    6  N   UNL     1      40.035 -13.793   3.089  1.00  0.00    -0.128 NA
HETATM    7  C   UNL     1      40.083 -14.395   1.892  1.00  0.00     0.226 A 
HETATM    8  N   UNL     1      39.747 -13.602   0.823  1.00  0.00    -0.035 NA
HETATM    9  C   UNL     1      39.634 -11.391   3.653  1.00  0.00     0.204 A 
HETATM   10  C   UNL     1      39.247 -10.114   2.914  1.00  0.00     0.070 A 
HETATM   11  H   UNL     1      39.042 -11.200  -0.171  1.00  0.00     0.184 HD
ENDROOT
BRANCH   7  12
HETATM   12  S   UNL     1      40.570 -16.051   1.667  1.00  0.00    -0.083 SA
BRANCH  12  13
HETATM   13  C   UNL     1      42.377 -15.904   1.669  1.00  0.00     0.123 C 
BRANCH  13  14
HETATM   14  C   UNL     1      42.994 -16.808   2.713  1.00  0.00    -0.027 A 
HETATM   15  C   UNL     1      43.324 -16.366   4.005  1.00  0.00     0.041 A 
HETATM   16 CL   UNL     1      43.027 -14.746   4.529  1.00  0.00    -0.084 Cl
HETATM   17  C   UNL     1      43.920 -17.236   4.925  1.00  0.00     0.024 A 
HETATM   18  C   UNL     1      44.204 -18.553   4.566  1.00  0.00     0.002 A 
HETATM   19  C   UNL     1      43.893 -19.004   3.287  1.00  0.00     0.001 A 
HETATM   20  C   UNL     1      43.293 -18.141   2.369  1.00  0.00     0.009 A 
ENDBRANCH  13  14
ENDBRANCH  12  13
ENDBRANCH   7  12
BRANCH   9  21
HETATM   21  C   UNL     1      40.944 -11.256   4.428  1.00  0.00    -0.006 A 
HETATM   22  C   UNL     1      40.982 -11.153   5.830  1.00  0.00     0.042 A 
HETATM   23 CL   UNL     1      39.554 -11.160   6.803  1.00  0.00    -0.084 Cl
HETATM   24  C   UNL     1      42.204 -11.032   6.502  1.00  0.00     0.024 A 
HETATM   25  C   UNL     1      43.403 -11.015   5.793  1.00  0.00     0.002 A 
HETATM   26  C   UNL     1      43.386 -11.116   4.406  1.00  0.00     0.001 A 
HETATM   27  C   UNL     1      42.171 -11.232   3.729  1.00  0.00     0.011 A 
ENDBRANCH   9  21
BRANCH  10  28
HETATM   28  C   UNL     1      39.161  -8.885   3.726  1.00  0.00     0.293 C 
HETATM   29  O   UNL     1      38.213  -8.597   4.439  1.00  0.00    -0.259 OA
BRANCH  28  30
HETATM   30  O   UNL     1      40.286  -8.154   3.550  1.00  0.00    -0.323 OA
HETATM   31  C   UNL     1      40.383  -7.029   4.427  1.00  0.00     0.213 C 
ENDBRANCH  28  30
ENDBRANCH  10  28
TORSDOF 6
ENDMDL
