MODEL 1
REMARK VINA RESULT:      -8.0      0.000      0.000
REMARK  9 active torsions:
REMARK  status: ('A' for Active; 'I' for Inactive)
REMARK    1  A    between atoms: C_2  and  N_3 
REMARK    2  A    between atoms: N_3  and  C_5 
REMARK    3  A    between atoms: N_3  and  C_29 
REMARK    4  A    between atoms: C_5  and  C_6 
REMARK    5  A    between atoms: C_6  and  O_7 
REMARK    6  A    between atoms: O_7  and  C_8 
REMARK    7  A    between atoms: C_9  and  C_10 
REMARK    8  A    between atoms: C_10  and  N_11 
REMARK       I    between atoms: N_11  and  C_12 
REMARK    9  A    between atoms: C_12  and  C_13 
ROOT
HETATM    1  N   UNL     1      42.417 -16.526   2.329  1.00  0.00    -0.352 N 
HETATM    2  C   UNL     1      42.571 -15.170   2.084  1.00  0.00     0.254 C 
HETATM    3  O   UNL     1      43.630 -14.644   1.768  1.00  0.00    -0.268 OA
HETATM    4  H   UNL     1      41.487 -16.879   2.152  1.00  0.00     0.163 HD
ENDROOT
BRANCH   1   5
HETATM    5  C   UNL     1      43.490 -17.464   2.052  1.00  0.00     0.164 C 
BRANCH   5   6
HETATM    6  C   UNL     1      43.684 -18.541   3.090  1.00  0.00    -0.007 A 
HETATM    7  C   UNL     1      43.842 -18.273   4.463  1.00  0.00     0.076 A 
HETATM    8  C   UNL     1      43.973 -19.344   5.360  1.00  0.00     0.037 A 
HETATM    9  C   UNL     1      43.969 -20.665   4.907  1.00  0.00     0.003 A 
HETATM   10  C   UNL     1      43.837 -20.935   3.552  1.00  0.00     0.001 A 
HETATM   11  C   UNL     1      43.694 -19.881   2.654  1.00  0.00     0.011 A 
BRANCH   7  12
HETATM   12  O   UNL     1      43.832 -16.950   4.845  1.00  0.00    -0.349 OA
BRANCH  12  13
HETATM   13  C   UNL     1      44.401 -16.665   6.127  1.00  0.00     0.203 C 
BRANCH  13  14
HETATM   14  C   UNL     1      43.290 -16.429   7.158  1.00  0.00     0.261 C 
BRANCH  14  15
HETATM   15  N   UNL     1      42.765 -14.991   7.216  1.00  0.00    -0.070 N 
HETATM   16  H   UNL     1      42.713 -14.769   8.220  1.00  0.00     0.279 HD
BRANCH  15  17
HETATM   17  C   UNL     1      41.357 -14.790   6.680  1.00  0.00     0.230 C 
HETATM   18  C   UNL     1      40.716 -16.103   6.271  1.00  0.00     0.034 C 
ENDBRANCH  15  17
BRANCH  15  19
HETATM   19  C   UNL     1      43.695 -13.942   6.626  1.00  0.00     0.230 C 
HETATM   20  C   UNL     1      42.943 -12.686   6.227  1.00  0.00     0.034 C 
ENDBRANCH  15  19
ENDBRANCH  14  15
ENDBRANCH  13  14
ENDBRANCH  12  13
ENDBRANCH   7  12
ENDBRANCH   5   6
ENDBRANCH   1   5
BRANCH   2  21
HETATM   21  C   UNL     1      41.335 -14.350   2.145  1.00  0.00     0.064 A 
HETATM   22  C   UNL     1      40.596 -13.994   1.033  1.00  0.00     0.077 A 
HETATM   23  C   UNL     1      39.486 -13.148   1.124  1.00  0.00     0.065 A 
HETATM   24  N   UNL     1      40.733 -14.361  -0.310  1.00  0.00    -0.330 N 
HETATM   25  N   UNL     1      38.969 -12.970  -0.161  1.00  0.00    -0.331 N 
HETATM   26  C   UNL     1      39.042 -12.646   2.323  1.00  0.00     0.074 A 
HETATM   27  C   UNL     1      39.727 -13.737  -1.051  1.00  0.00     0.176 A 
HETATM   28  H   UNL     1      38.157 -12.419  -0.406  1.00  0.00     0.168 HD
HETATM   29  S   UNL     1      39.499 -13.908  -2.674  1.00  0.00    -0.041 SA
HETATM   30  C   UNL     1      39.756 -13.034   3.457  1.00  0.00     0.119 A 
HETATM   31  F   UNL     1      39.357 -12.590   4.656  1.00  0.00    -0.206 F 
HETATM   32  C   UNL     1      40.884 -13.870   3.383  1.00  0.00     0.061 A 
HETATM   33  H   UNL     1      41.376 -15.053  -0.661  1.00  0.00     0.168 HD
ENDBRANCH   2  21
TORSDOF 9
ENDMDL
MODEL 2
REMARK VINA RESULT:      -7.7      2.839      5.271
REMARK  9 active torsions:
REMARK  status: ('A' for Active; 'I' for Inactive)
REMARK    1  A    between atoms: C_2  and  N_3 
REMARK    2  A    between atoms: N_3  and  C_5 
REMARK    3  A    between atoms: N_3  and  C_29 
REMARK    4  A    between atoms: C_5  and  C_6 
REMARK    5  A    between atoms: C_6  and  O_7 
REMARK    6  A    between atoms: O_7  and  C_8 
REMARK    7  A    between atoms: C_9  and  C_10 
REMARK    8  A    between atoms: C_10  and  N_11 
REMARK       I    between atoms: N_11  and  C_12 
REMARK    9  A    between atoms: C_12  and  C_13 
ROOT
HETATM    1  N   UNL     1      43.477 -16.090   5.368  1.00  0.00    -0.352 N 
HETATM    2  C   UNL     1      42.789 -15.575   6.457  1.00  0.00     0.254 C 
HETATM    3  O   UNL     1      42.689 -16.140   7.537  1.00  0.00    -0.268 OA
HETATM    4  H   UNL     1      43.841 -15.390   4.736  1.00  0.00     0.163 HD
ENDROOT
BRANCH   1   5
HETATM    5  C   UNL     1      44.294 -17.283   5.495  1.00  0.00     0.164 C 
BRANCH   5   6
HETATM    6  C   UNL     1      44.011 -18.364   4.481  1.00  0.00    -0.007 A 
HETATM    7  C   UNL     1      43.649 -18.097   3.147  1.00  0.00     0.076 A 
HETATM    8  C   UNL     1      43.448 -19.169   2.264  1.00  0.00     0.037 A 
HETATM    9  C   UNL     1      43.581 -20.491   2.696  1.00  0.00     0.003 A 
HETATM   10  C   UNL     1      43.914 -20.760   4.016  1.00  0.00     0.001 A 
HETATM   11  C   UNL     1      44.129 -19.704   4.898  1.00  0.00     0.011 A 
BRANCH   7  12
HETATM   12  O   UNL     1      43.539 -16.774   2.783  1.00  0.00    -0.349 OA
BRANCH  12  13
HETATM   13  C   UNL     1      42.453 -16.453   1.908  1.00  0.00     0.203 C 
BRANCH  13  14
HETATM   14  C   UNL     1      41.522 -15.431   2.572  1.00  0.00     0.261 C 
BRANCH  14  15
HETATM   15  N   UNL     1      41.385 -14.105   1.819  1.00  0.00    -0.070 N 
HETATM   16  H   UNL     1      41.978 -14.212   0.984  1.00  0.00     0.279 HD
BRANCH  15  17
HETATM   17  C   UNL     1      41.922 -12.884   2.547  1.00  0.00     0.230 C 
HETATM   18  C   UNL     1      43.396 -13.026   2.877  1.00  0.00     0.034 C 
ENDBRANCH  15  17
BRANCH  15  19
HETATM   19  C   UNL     1      39.993 -13.812   1.280  1.00  0.00     0.230 C 
HETATM   20  C   UNL     1      39.280 -12.760   2.110  1.00  0.00     0.034 C 
ENDBRANCH  15  19
ENDBRANCH  14  15
ENDBRANCH  13  14
ENDBRANCH  12  13
ENDBRANCH   7  12
ENDBRANCH   5   6
ENDBRANCH   1   5
BRANCH   2  21
HETATM   21  C   UNL     1      42.213 -14.217   6.284  1.00  0.00     0.064 A 
HETATM   22  C   UNL     1      42.928 -13.051   6.480  1.00  0.00     0.077 A 
HETATM   23  C   UNL     1      42.326 -11.792   6.391  1.00  0.00     0.065 A 
HETATM   24  N   UNL     1      44.283 -12.848   6.762  1.00  0.00    -0.330 N 
HETATM   25  N   UNL     1      43.300 -10.826   6.653  1.00  0.00    -0.331 N 
HETATM   26  C   UNL     1      41.000 -11.634   6.072  1.00  0.00     0.074 A 
HETATM   27  C   UNL     1      44.520 -11.475   6.864  1.00  0.00     0.176 A 
HETATM   28  H   UNL     1      43.162  -9.824   6.647  1.00  0.00     0.168 HD
HETATM   29  S   UNL     1      45.985 -10.785   7.164  1.00  0.00    -0.041 SA
HETATM   30  C   UNL     1      40.279 -12.803   5.830  1.00  0.00     0.119 A 
HETATM   31  F   UNL     1      38.986 -12.709   5.496  1.00  0.00    -0.206 F 
HETATM   32  C   UNL     1      40.863 -14.078   5.931  1.00  0.00     0.061 A 
HETATM   33  H   UNL     1      44.989 -13.568   6.771  1.00  0.00     0.168 HD
ENDBRANCH   2  21
TORSDOF 9
ENDMDL
MODEL 3
REMARK VINA RESULT:      -7.6      2.230      2.750
REMARK  9 active torsions:
REMARK  status: ('A' for Active; 'I' for Inactive)
REMARK    1  A    between atoms: C_2  and  N_3 
REMARK    2  A    between atoms: N_3  and  C_5 
REMARK    3  A    between atoms: N_3  and  C_29 
REMARK    4  A    between atoms: C_5  and  C_6 
REMARK    5  A    between atoms: C_6  and  O_7 
REMARK    6  A    between atoms: O_7  and  C_8 
REMARK    7  A    between atoms: C_9  and  C_10 
REMARK    8  A    between atoms: C_10  and  N_11 
REMARK       I    between atoms: N_11  and  C_12 
REMARK    9  A    between atoms: C_12  and  C_13 
ROOT
HETATM    1  N   UNL     1      42.008 -15.429   2.213  1.00  0.00    -0.352 N 
HETATM    2  C   UNL     1      41.511 -14.143   2.062  1.00  0.00     0.254 C 
HETATM    3  O   UNL     1      41.655 -13.250   2.885  1.00  0.00    -0.268 OA
HETATM    4  H   UNL     1      42.202 -15.906   1.343  1.00  0.00     0.163 HD
ENDROOT
BRANCH   1   5
HETATM    5  C   UNL     1      42.904 -15.762   3.306  1.00  0.00     0.164 C 
BRANCH   5   6
HETATM    6  C   UNL     1      43.282 -17.220   3.402  1.00  0.00    -0.007 A 
HETATM    7  C   UNL     1      43.831 -17.801   4.560  1.00  0.00     0.076 A 
HETATM    8  C   UNL     1      44.111 -19.176   4.570  1.00  0.00     0.037 A 
HETATM    9  C   UNL     1      43.873 -19.966   3.443  1.00  0.00     0.003 A 
HETATM   10  C   UNL     1      43.354 -19.393   2.290  1.00  0.00     0.001 A 
HETATM   11  C   UNL     1      43.061 -18.032   2.273  1.00  0.00     0.011 A 
BRANCH   7  12
HETATM   12  O   UNL     1      44.037 -16.969   5.638  1.00  0.00    -0.349 OA
BRANCH  12  13
HETATM   13  C   UNL     1      43.117 -17.113   6.725  1.00  0.00     0.203 C 
BRANCH  13  14
HETATM   14  C   UNL     1      43.197 -15.894   7.652  1.00  0.00     0.261 C 
BRANCH  14  15
HETATM   15  N   UNL     1      42.419 -14.668   7.167  1.00  0.00    -0.070 N 
HETATM   16  H   UNL     1      42.188 -14.145   8.023  1.00  0.00     0.279 HD
BRANCH  15  17
HETATM   17  C   UNL     1      41.087 -14.965   6.499  1.00  0.00     0.230 C 
HETATM   18  C   UNL     1      40.350 -13.694   6.117  1.00  0.00     0.034 C 
ENDBRANCH  15  17
BRANCH  15  19
HETATM   19  C   UNL     1      43.219 -13.696   6.312  1.00  0.00     0.230 C 
HETATM   20  C   UNL     1      43.812 -12.574   7.144  1.00  0.00     0.034 C 
ENDBRANCH  15  19
ENDBRANCH  14  15
ENDBRANCH  13  14
ENDBRANCH  12  13
ENDBRANCH   7  12
ENDBRANCH   5   6
ENDBRANCH   1   5
BRANCH   2  21
HETATM   21  C   UNL     1      40.833 -13.851   0.774  1.00  0.00     0.064 A 
HETATM   22  C   UNL     1      40.777 -12.593   0.205  1.00  0.00     0.077 A 
HETATM   23  C   UNL     1      40.055 -12.343  -0.966  1.00  0.00     0.065 A 
HETATM   24  N   UNL     1      41.376 -11.389   0.591  1.00  0.00    -0.330 N 
HETATM   25  N   UNL     1      40.182 -10.987  -1.274  1.00  0.00    -0.331 N 
HETATM   26  C   UNL     1      39.385 -13.335  -1.641  1.00  0.00     0.074 A 
HETATM   27  C   UNL     1      41.017 -10.395  -0.322  1.00  0.00     0.176 A 
HETATM   28  H   UNL     1      39.778 -10.517  -2.073  1.00  0.00     0.168 HD
HETATM   29  S   UNL     1      41.518  -8.827  -0.263  1.00  0.00    -0.041 SA
HETATM   30  C   UNL     1      39.470 -14.617  -1.098  1.00  0.00     0.119 A 
HETATM   31  F   UNL     1      38.852 -15.627  -1.723  1.00  0.00    -0.206 F 
HETATM   32  C   UNL     1      40.178 -14.884   0.087  1.00  0.00     0.061 A 
HETATM   33  H   UNL     1      42.049 -11.287   1.335  1.00  0.00     0.168 HD
ENDBRANCH   2  21
TORSDOF 9
ENDMDL
MODEL 4
REMARK VINA RESULT:      -7.6      4.194      7.476
REMARK  9 active torsions:
REMARK  status: ('A' for Active; 'I' for Inactive)
REMARK    1  A    between atoms: C_2  and  N_3 
REMARK    2  A    between atoms: N_3  and  C_5 
REMARK    3  A    between atoms: N_3  and  C_29 
REMARK    4  A    between atoms: C_5  and  C_6 
REMARK    5  A    between atoms: C_6  and  O_7 
REMARK    6  A    between atoms: O_7  and  C_8 
REMARK    7  A    between atoms: C_9  and  C_10 
REMARK    8  A    between atoms: C_10  and  N_11 
REMARK       I    between atoms: N_11  and  C_12 
REMARK    9  A    between atoms: C_12  and  C_13 
ROOT
HETATM    1  N   UNL     1      43.128 -13.387   5.908  1.00  0.00    -0.352 N 
HETATM    2  C   UNL     1      42.831 -12.046   6.098  1.00  0.00     0.254 C 
HETATM    3  O   UNL     1      41.823 -11.499   5.673  1.00  0.00    -0.268 OA
HETATM    4  H   UNL     1      43.711 -13.791   6.628  1.00  0.00     0.163 HD
ENDROOT
BRANCH   1   5
HETATM    5  C   UNL     1      42.155 -14.295   5.327  1.00  0.00     0.164 C 
BRANCH   5   6
HETATM    6  C   UNL     1      42.610 -15.009   4.079  1.00  0.00    -0.007 A 
HETATM    7  C   UNL     1      42.849 -14.354   2.857  1.00  0.00     0.076 A 
HETATM    8  C   UNL     1      43.313 -15.097   1.759  1.00  0.00     0.037 A 
HETATM    9  C   UNL     1      43.518 -16.475   1.860  1.00  0.00     0.003 A 
HETATM   10  C   UNL     1      43.260 -17.130   3.056  1.00  0.00     0.001 A 
HETATM   11  C   UNL     1      42.812 -16.401   4.155  1.00  0.00     0.011 A 
BRANCH   7  12
HETATM   12  O   UNL     1      42.633 -12.994   2.825  1.00  0.00    -0.349 OA
BRANCH  12  13
HETATM   13  C   UNL     1      41.799 -12.518   1.764  1.00  0.00     0.203 C 
BRANCH  13  14
HETATM   14  C   UNL     1      40.336 -12.892   2.032  1.00  0.00     0.261 C 
BRANCH  14  15
HETATM   15  N   UNL     1      39.587 -13.456   0.821  1.00  0.00    -0.070 N 
HETATM   16  H   UNL     1      38.621 -13.596   1.149  1.00  0.00     0.279 HD
BRANCH  15  17
HETATM   17  C   UNL     1      40.057 -14.821   0.344  1.00  0.00     0.230 C 
HETATM   18  C   UNL     1      39.850 -15.891   1.400  1.00  0.00     0.034 C 
ENDBRANCH  15  17
BRANCH  15  19
HETATM   19  C   UNL     1      39.472 -12.508  -0.363  1.00  0.00     0.230 C 
HETATM   20  C   UNL     1      38.426 -12.977  -1.357  1.00  0.00     0.034 C 
ENDBRANCH  15  19
ENDBRANCH  14  15
ENDBRANCH  13  14
ENDBRANCH  12  13
ENDBRANCH   7  12
ENDBRANCH   5   6
ENDBRANCH   1   5
BRANCH   2  21
HETATM   21  C   UNL     1      43.784 -11.278   6.937  1.00  0.00     0.064 A 
HETATM   22  C   UNL     1      43.397 -10.335   7.870  1.00  0.00     0.077 A 
HETATM   23  C   UNL     1      44.329  -9.572   8.580  1.00  0.00     0.065 A 
HETATM   24  N   UNL     1      42.125  -9.960   8.314  1.00  0.00    -0.330 N 
HETATM   25  N   UNL     1      43.630  -8.709   9.426  1.00  0.00    -0.331 N 
HETATM   26  C   UNL     1      45.684  -9.732   8.419  1.00  0.00     0.074 A 
HETATM   27  C   UNL     1      42.262  -8.960   9.280  1.00  0.00     0.176 A 
HETATM   28  H   UNL     1      44.038  -8.045  10.071  1.00  0.00     0.168 HD
HETATM   29  S   UNL     1      41.018  -8.243  10.087  1.00  0.00    -0.041 SA
HETATM   30  C   UNL     1      46.086 -10.711   7.510  1.00  0.00     0.119 A 
HETATM   31  F   UNL     1      47.395 -10.924   7.326  1.00  0.00    -0.206 F 
HETATM   32  C   UNL     1      45.163 -11.477   6.776  1.00  0.00     0.061 A 
HETATM   33  H   UNL     1      41.263 -10.420   8.064  1.00  0.00     0.168 HD
ENDBRANCH   2  21
TORSDOF 9
ENDMDL
MODEL 5
REMARK VINA RESULT:      -7.6      2.796      3.995
REMARK  9 active torsions:
REMARK  status: ('A' for Active; 'I' for Inactive)
REMARK    1  A    between atoms: C_2  and  N_3 
REMARK    2  A    between atoms: N_3  and  C_5 
REMARK    3  A    between atoms: N_3  and  C_29 
REMARK    4  A    between atoms: C_5  and  C_6 
REMARK    5  A    between atoms: C_6  and  O_7 
REMARK    6  A    between atoms: O_7  and  C_8 
REMARK    7  A    between atoms: C_9  and  C_10 
REMARK    8  A    between atoms: C_10  and  N_11 
REMARK       I    between atoms: N_11  and  C_12 
REMARK    9  A    between atoms: C_12  and  C_13 
ROOT
HETATM    1  N   UNL     1      40.047 -15.296   1.693  1.00  0.00    -0.352 N 
HETATM    2  C   UNL     1      39.849 -13.978   1.312  1.00  0.00     0.254 C 
HETATM    3  O   UNL     1      39.682 -13.053   2.096  1.00  0.00    -0.268 OA
HETATM    4  H   UNL     1      40.580 -15.845   1.033  1.00  0.00     0.163 HD
ENDROOT
BRANCH   1   5
HETATM    5  C   UNL     1      40.249 -15.650   3.086  1.00  0.00     0.164 C 
BRANCH   5   6
HETATM    6  C   UNL     1      41.513 -16.423   3.375  1.00  0.00    -0.007 A 
HETATM    7  C   UNL     1      42.125 -16.457   4.641  1.00  0.00     0.076 A 
HETATM    8  C   UNL     1      43.277 -17.240   4.825  1.00  0.00     0.037 A 
HETATM    9  C   UNL     1      43.829 -17.963   3.766  1.00  0.00     0.003 A 
HETATM   10  C   UNL     1      43.242 -17.914   2.510  1.00  0.00     0.001 A 
HETATM   11  C   UNL     1      42.093 -17.152   2.318  1.00  0.00     0.011 A 
BRANCH   7  12
HETATM   12  O   UNL     1      41.528 -15.726   5.644  1.00  0.00    -0.349 OA
BRANCH  12  13
HETATM   13  C   UNL     1      42.411 -14.964   6.473  1.00  0.00     0.203 C 
BRANCH  13  14
HETATM   14  C   UNL     1      42.241 -13.466   6.192  1.00  0.00     0.261 C 
BRANCH  14  15
HETATM   15  N   UNL     1      43.208 -12.896   5.150  1.00  0.00    -0.070 N 
HETATM   16  H   UNL     1      43.905 -13.639   5.002  1.00  0.00     0.279 HD
BRANCH  15  17
HETATM   17  C   UNL     1      43.999 -11.677   5.594  1.00  0.00     0.230 C 
HETATM   18  C   UNL     1      45.007 -12.020   6.675  1.00  0.00     0.034 C 
ENDBRANCH  15  17
BRANCH  15  19
HETATM   19  C   UNL     1      42.600 -12.644   3.778  1.00  0.00     0.230 C 
HETATM   20  C   UNL     1      43.313 -13.431   2.695  1.00  0.00     0.034 C 
ENDBRANCH  15  19
ENDBRANCH  14  15
ENDBRANCH  13  14
ENDBRANCH  12  13
ENDBRANCH   7  12
ENDBRANCH   5   6
ENDBRANCH   1   5
BRANCH   2  21
HETATM   21  C   UNL     1      39.926 -13.700  -0.144  1.00  0.00     0.064 A 
HETATM   22  C   UNL     1      40.401 -12.515  -0.675  1.00  0.00     0.077 A 
HETATM   23  C   UNL     1      40.377 -12.259  -2.049  1.00  0.00     0.065 A 
HETATM   24  N   UNL     1      40.982 -11.405  -0.053  1.00  0.00    -0.330 N 
HETATM   25  N   UNL     1      40.907 -10.985  -2.263  1.00  0.00    -0.331 N 
HETATM   26  C   UNL     1      39.912 -13.177  -2.959  1.00  0.00     0.074 A 
HETATM   27  C   UNL     1      41.303 -10.459  -1.029  1.00  0.00     0.176 A 
HETATM   28  H   UNL     1      41.028 -10.532  -3.159  1.00  0.00     0.168 HD
HETATM   29  S   UNL     1      42.027  -9.008  -0.743  1.00  0.00    -0.041 SA
HETATM   30  C   UNL     1      39.470 -14.393  -2.437  1.00  0.00     0.119 A 
HETATM   31  F   UNL     1      39.023 -15.334  -3.279  1.00  0.00    -0.206 F 
HETATM   32  C   UNL     1      39.472 -14.662  -1.057  1.00  0.00     0.061 A 
HETATM   33  H   UNL     1      41.235 -11.351   0.922  1.00  0.00     0.168 HD
ENDBRANCH   2  21
TORSDOF 9
ENDMDL
MODEL 6
REMARK VINA RESULT:      -7.3      2.752      3.962
REMARK  9 active torsions:
REMARK  status: ('A' for Active; 'I' for Inactive)
REMARK    1  A    between atoms: C_2  and  N_3 
REMARK    2  A    between atoms: N_3  and  C_5 
REMARK    3  A    between atoms: N_3  and  C_29 
REMARK    4  A    between atoms: C_5  and  C_6 
REMARK    5  A    between atoms: C_6  and  O_7 
REMARK    6  A    between atoms: O_7  and  C_8 
REMARK    7  A    between atoms: C_9  and  C_10 
REMARK    8  A    between atoms: C_10  and  N_11 
REMARK       I    between atoms: N_11  and  C_12 
REMARK    9  A    between atoms: C_12  and  C_13 
ROOT
HETATM    1  N   UNL     1      41.929 -14.258   1.112  1.00  0.00    -0.352 N 
HETATM    2  C   UNL     1      40.612 -13.868   1.305  1.00  0.00     0.254 C 
HETATM    3  O   UNL     1      40.119 -13.630   2.399  1.00  0.00    -0.268 OA
HETATM    4  H   UNL     1      42.310 -14.006   0.210  1.00  0.00     0.163 HD
ENDROOT
BRANCH   1   5
HETATM    5  C   UNL     1      42.883 -14.239   2.206  1.00  0.00     0.164 C 
BRANCH   5   6
HETATM    6  C   UNL     1      43.129 -15.575   2.865  1.00  0.00    -0.007 A 
HETATM    7  C   UNL     1      43.177 -15.751   4.260  1.00  0.00     0.076 A 
HETATM    8  C   UNL     1      43.369 -17.041   4.781  1.00  0.00     0.037 A 
HETATM    9  C   UNL     1      43.530 -18.141   3.936  1.00  0.00     0.003 A 
HETATM   10  C   UNL     1      43.506 -17.968   2.559  1.00  0.00     0.001 A 
HETATM   11  C   UNL     1      43.305 -16.696   2.031  1.00  0.00     0.011 A 
BRANCH   7  12
HETATM   12  O   UNL     1      43.006 -14.628   5.038  1.00  0.00    -0.349 OA
BRANCH  12  13
HETATM   13  C   UNL     1      43.754 -14.591   6.257  1.00  0.00     0.203 C 
BRANCH  13  14
HETATM   14  C   UNL     1      43.544 -13.248   6.967  1.00  0.00     0.261 C 
BRANCH  14  15
HETATM   15  N   UNL     1      44.646 -12.214   6.720  1.00  0.00    -0.070 N 
HETATM   16  H   UNL     1      45.521 -12.756   6.710  1.00  0.00     0.279 HD
BRANCH  15  17
HETATM   17  C   UNL     1      44.823 -11.177   7.818  1.00  0.00     0.230 C 
HETATM   18  C   UNL     1      46.141 -10.436   7.689  1.00  0.00     0.034 C 
ENDBRANCH  15  17
BRANCH  15  19
HETATM   19  C   UNL     1      44.591 -11.524   5.365  1.00  0.00     0.230 C 
HETATM   20  C   UNL     1      43.185 -11.065   5.027  1.00  0.00     0.034 C 
ENDBRANCH  15  19
ENDBRANCH  14  15
ENDBRANCH  13  14
ENDBRANCH  12  13
ENDBRANCH   7  12
ENDBRANCH   5   6
ENDBRANCH   1   5
BRANCH   2  21
HETATM   21  C   UNL     1      39.803 -13.667   0.077  1.00  0.00     0.064 A 
HETATM   22  C   UNL     1      39.076 -12.522  -0.183  1.00  0.00     0.077 A 
HETATM   23  C   UNL     1      38.258 -12.406  -1.311  1.00  0.00     0.065 A 
HETATM   24  N   UNL     1      38.996 -11.313   0.517  1.00  0.00    -0.330 N 
HETATM   25  N   UNL     1      37.653 -11.148  -1.282  1.00  0.00    -0.331 N 
HETATM   26  C   UNL     1      38.150 -13.407  -2.246  1.00  0.00     0.074 A 
HETATM   27  C   UNL     1      38.123 -10.458  -0.160  1.00  0.00     0.176 A 
HETATM   28  H   UNL     1      37.017 -10.775  -1.975  1.00  0.00     0.168 HD
HETATM   29  S   UNL     1      37.752  -8.921   0.301  1.00  0.00    -0.041 SA
HETATM   30  C   UNL     1      38.914 -14.551  -2.015  1.00  0.00     0.119 A 
HETATM   31  F   UNL     1      38.863 -15.553  -2.902  1.00  0.00    -0.206 F 
HETATM   32  C   UNL     1      39.729 -14.692  -0.878  1.00  0.00     0.061 A 
HETATM   33  H   UNL     1      39.565 -11.062   1.310  1.00  0.00     0.168 HD
ENDBRANCH   2  21
TORSDOF 9
ENDMDL
MODEL 7
REMARK VINA RESULT:      -7.3      2.049      2.829
REMARK  9 active torsions:
REMARK  status: ('A' for Active; 'I' for Inactive)
REMARK    1  A    between atoms: C_2  and  N_3 
REMARK    2  A    between atoms: N_3  and  C_5 
REMARK    3  A    between atoms: N_3  and  C_29 
REMARK    4  A    between atoms: C_5  and  C_6 
REMARK    5  A    between atoms: C_6  and  O_7 
REMARK    6  A    between atoms: O_7  and  C_8 
REMARK    7  A    between atoms: C_9  and  C_10 
REMARK    8  A    between atoms: C_10  and  N_11 
REMARK       I    between atoms: N_11  and  C_12 
REMARK    9  A    between atoms: C_12  and  C_13 
ROOT
HETATM    1  N   UNL     1      41.195 -14.801   3.145  1.00  0.00    -0.352 N 
HETATM    2  C   UNL     1      40.292 -14.775   2.093  1.00  0.00     0.254 C 
HETATM    3  O   UNL     1      39.539 -15.697   1.811  1.00  0.00    -0.268 OA
HETATM    4  H   UNL     1      41.420 -13.891   3.524  1.00  0.00     0.163 HD
ENDROOT
BRANCH   1   5
HETATM    5  C   UNL     1      41.184 -15.882   4.114  1.00  0.00     0.164 C 
BRANCH   5   6
HETATM    6  C   UNL     1      42.351 -16.834   4.025  1.00  0.00    -0.007 A 
HETATM    7  C   UNL     1      43.250 -17.057   5.085  1.00  0.00     0.076 A 
HETATM    8  C   UNL     1      44.281 -17.996   4.923  1.00  0.00     0.037 A 
HETATM    9  C   UNL     1      44.437 -18.692   3.722  1.00  0.00     0.003 A 
HETATM   10  C   UNL     1      43.567 -18.459   2.666  1.00  0.00     0.001 A 
HETATM   11  C   UNL     1      42.533 -17.539   2.819  1.00  0.00     0.011 A 
BRANCH   7  12
HETATM   12  O   UNL     1      43.039 -16.343   6.243  1.00  0.00    -0.349 OA
BRANCH  12  13
HETATM   13  C   UNL     1      43.929 -15.246   6.472  1.00  0.00     0.203 C 
BRANCH  13  14
HETATM   14  C   UNL     1      43.132 -13.949   6.663  1.00  0.00     0.261 C 
BRANCH  14  15
HETATM   15  N   UNL     1      43.829 -12.687   6.145  1.00  0.00    -0.070 N 
HETATM   16  H   UNL     1      44.665 -13.029   5.653  1.00  0.00     0.279 HD
BRANCH  15  17
HETATM   17  C   UNL     1      44.346 -11.743   7.219  1.00  0.00     0.230 C 
HETATM   18  C   UNL     1      45.728 -11.213   6.887  1.00  0.00     0.034 C 
ENDBRANCH  15  17
BRANCH  15  19
HETATM   19  C   UNL     1      43.047 -11.902   5.103  1.00  0.00     0.230 C 
HETATM   20  C   UNL     1      43.806 -11.800   3.792  1.00  0.00     0.034 C 
ENDBRANCH  15  19
ENDBRANCH  14  15
ENDBRANCH  13  14
ENDBRANCH  12  13
ENDBRANCH   7  12
ENDBRANCH   5   6
ENDBRANCH   1   5
BRANCH   2  21
HETATM   21  C   UNL     1      40.213 -13.504   1.330  1.00  0.00     0.064 A 
HETATM   22  C   UNL     1      39.777 -13.421   0.022  1.00  0.00     0.077 A 
HETATM   23  C   UNL     1      39.799 -12.217  -0.689  1.00  0.00     0.065 A 
HETATM   24  N   UNL     1      39.241 -14.397  -0.825  1.00  0.00    -0.330 N 
HETATM   25  N   UNL     1      39.313 -12.463  -1.975  1.00  0.00    -0.331 N 
HETATM   26  C   UNL     1      40.223 -11.039  -0.124  1.00  0.00     0.074 A 
HETATM   27  C   UNL     1      38.946 -13.809  -2.058  1.00  0.00     0.176 A 
HETATM   28  H   UNL     1      39.200 -11.778  -2.711  1.00  0.00     0.168 HD
HETATM   29  S   UNL     1      38.277 -14.590  -3.345  1.00  0.00    -0.041 SA
HETATM   30  C   UNL     1      40.626 -11.104   1.210  1.00  0.00     0.119 A 
HETATM   31  F   UNL     1      41.032  -9.982   1.818  1.00  0.00    -0.206 F 
HETATM   32  C   UNL     1      40.626 -12.308   1.935  1.00  0.00     0.061 A 
HETATM   33  H   UNL     1      38.998 -15.336  -0.550  1.00  0.00     0.168 HD
ENDBRANCH   2  21
TORSDOF 9
ENDMDL
MODEL 8
REMARK VINA RESULT:      -7.3      4.220      7.371
REMARK  9 active torsions:
REMARK  status: ('A' for Active; 'I' for Inactive)
REMARK    1  A    between atoms: C_2  and  N_3 
REMARK    2  A    between atoms: N_3  and  C_5 
REMARK    3  A    between atoms: N_3  and  C_29 
REMARK    4  A    between atoms: C_5  and  C_6 
REMARK    5  A    between atoms: C_6  and  O_7 
REMARK    6  A    between atoms: O_7  and  C_8 
REMARK    7  A    between atoms: C_9  and  C_10 
REMARK    8  A    between atoms: C_10  and  N_11 
REMARK       I    between atoms: N_11  and  C_12 
REMARK    9  A    between atoms: C_12  and  C_13 
ROOT
HETATM    1  N   UNL     1      43.425 -12.554   5.005  1.00  0.00    -0.352 N 
HETATM    2  C   UNL     1      43.131 -11.311   5.546  1.00  0.00     0.254 C 
HETATM    3  O   UNL     1      42.192 -10.611   5.190  1.00  0.00    -0.268 OA
HETATM    4  H   UNL     1      43.907 -13.179   5.636  1.00  0.00     0.163 HD
ENDROOT
BRANCH   1   5
HETATM    5  C   UNL     1      42.514 -13.201   4.079  1.00  0.00     0.164 C 
BRANCH   5   6
HETATM    6  C   UNL     1      41.666 -14.297   4.675  1.00  0.00    -0.007 A 
HETATM    7  C   UNL     1      41.193 -15.398   3.936  1.00  0.00     0.076 A 
HETATM    8  C   UNL     1      40.445 -16.391   4.589  1.00  0.00     0.037 A 
HETATM    9  C   UNL     1      40.150 -16.290   5.950  1.00  0.00     0.003 A 
HETATM   10  C   UNL     1      40.594 -15.195   6.678  1.00  0.00     0.001 A 
HETATM   11  C   UNL     1      41.346 -14.210   6.045  1.00  0.00     0.011 A 
BRANCH   7  12
HETATM   12  O   UNL     1      41.523 -15.441   2.601  1.00  0.00    -0.349 OA
BRANCH  12  13
HETATM   13  C   UNL     1      42.032 -16.690   2.121  1.00  0.00     0.203 C 
BRANCH  13  14
HETATM   14  C   UNL     1      43.378 -17.003   2.786  1.00  0.00     0.261 C 
BRANCH  14  15
HETATM   15  N   UNL     1      43.421 -18.328   3.552  1.00  0.00    -0.070 N 
HETATM   16  H   UNL     1      42.443 -18.647   3.586  1.00  0.00     0.279 HD
BRANCH  15  17
HETATM   17  C   UNL     1      43.867 -18.227   5.002  1.00  0.00     0.230 C 
HETATM   18  C   UNL     1      44.277 -16.813   5.370  1.00  0.00     0.034 C 
ENDBRANCH  15  17
BRANCH  15  19
HETATM   19  C   UNL     1      44.180 -19.449   2.858  1.00  0.00     0.230 C 
HETATM   20  C   UNL     1      43.279 -20.249   1.936  1.00  0.00     0.034 C 
ENDBRANCH  15  19
ENDBRANCH  14  15
ENDBRANCH  13  14
ENDBRANCH  12  13
ENDBRANCH   7  12
ENDBRANCH   5   6
ENDBRANCH   1   5
BRANCH   2  21
HETATM   21  C   UNL     1      43.987 -10.871   6.676  1.00  0.00     0.064 A 
HETATM   22  C   UNL     1      43.500 -10.248   7.809  1.00  0.00     0.077 A 
HETATM   23  C   UNL     1      44.349  -9.771   8.813  1.00  0.00     0.065 A 
HETATM   24  N   UNL     1      42.187  -9.986   8.213  1.00  0.00    -0.330 N 
HETATM   25  N   UNL     1      43.562  -9.188   9.807  1.00  0.00    -0.331 N 
HETATM   26  C   UNL     1      45.714  -9.919   8.751  1.00  0.00     0.074 A 
HETATM   27  C   UNL     1      42.218  -9.336   9.450  1.00  0.00     0.176 A 
HETATM   28  H   UNL     1      43.898  -8.768  10.664  1.00  0.00     0.168 HD
HETATM   29  S   UNL     1      40.894  -8.861  10.306  1.00  0.00    -0.041 SA
HETATM   30  C   UNL     1      46.213 -10.583   7.631  1.00  0.00     0.119 A 
HETATM   31  F   UNL     1      47.534 -10.773   7.526  1.00  0.00    -0.206 F 
HETATM   32  C   UNL     1      45.376 -11.056   6.605  1.00  0.00     0.061 A 
HETATM   33  H   UNL     1      41.357 -10.318   7.746  1.00  0.00     0.168 HD
ENDBRANCH   2  21
TORSDOF 9
ENDMDL
MODEL 9
REMARK VINA RESULT:      -7.2      3.426      6.917
REMARK  9 active torsions:
REMARK  status: ('A' for Active; 'I' for Inactive)
REMARK    1  A    between atoms: C_2  and  N_3 
REMARK    2  A    between atoms: N_3  and  C_5 
REMARK    3  A    between atoms: N_3  and  C_29 
REMARK    4  A    between atoms: C_5  and  C_6 
REMARK    5  A    between atoms: C_6  and  O_7 
REMARK    6  A    between atoms: O_7  and  C_8 
REMARK    7  A    between atoms: C_9  and  C_10 
REMARK    8  A    between atoms: C_10  and  N_11 
REMARK       I    between atoms: N_11  and  C_12 
REMARK    9  A    between atoms: C_12  and  C_13 
ROOT
HETATM    1  N   UNL     1      41.088 -15.788   1.214  1.00  0.00    -0.352 N 
HETATM    2  C   UNL     1      40.994 -16.148   2.550  1.00  0.00     0.254 C 
HETATM    3  O   UNL     1      40.054 -15.854   3.277  1.00  0.00    -0.268 OA
HETATM    4  H   UNL     1      41.641 -16.419   0.651  1.00  0.00     0.163 HD
ENDROOT
BRANCH   1   5
HETATM    5  C   UNL     1      39.968 -15.173   0.524  1.00  0.00     0.164 C 
BRANCH   5   6
HETATM    6  C   UNL     1      40.317 -13.969  -0.317  1.00  0.00    -0.007 A 
HETATM    7  C   UNL     1      40.847 -12.781   0.218  1.00  0.00     0.076 A 
HETATM    8  C   UNL     1      41.182 -11.728  -0.649  1.00  0.00     0.037 A 
HETATM    9  C   UNL     1      40.975 -11.839  -2.026  1.00  0.00     0.003 A 
HETATM   10  C   UNL     1      40.431 -13.000  -2.555  1.00  0.00     0.001 A 
HETATM   11  C   UNL     1      40.107 -14.055  -1.707  1.00  0.00     0.011 A 
BRANCH   7  12
HETATM   12  O   UNL     1      41.031 -12.737   1.582  1.00  0.00    -0.349 OA
BRANCH  12  13
HETATM   13  C   UNL     1      41.867 -11.682   2.068  1.00  0.00     0.203 C 
BRANCH  13  14
HETATM   14  C   UNL     1      42.685 -12.166   3.271  1.00  0.00     0.261 C 
BRANCH  14  15
HETATM   15  N   UNL     1      42.280 -11.546   4.612  1.00  0.00    -0.070 N 
HETATM   16  H   UNL     1      42.779 -10.647   4.649  1.00  0.00     0.279 HD
BRANCH  15  17
HETATM   17  C   UNL     1      42.731 -12.312   5.845  1.00  0.00     0.230 C 
HETATM   18  C   UNL     1      44.225 -12.181   6.078  1.00  0.00     0.034 C 
ENDBRANCH  15  17
BRANCH  15  19
HETATM   19  C   UNL     1      40.807 -11.189   4.738  1.00  0.00     0.230 C 
HETATM   20  C   UNL     1      40.561 -10.212   5.872  1.00  0.00     0.034 C 
ENDBRANCH  15  19
ENDBRANCH  14  15
ENDBRANCH  13  14
ENDBRANCH  12  13
ENDBRANCH   7  12
ENDBRANCH   5   6
ENDBRANCH   1   5
BRANCH   2  21
HETATM   21  C   UNL     1      42.086 -17.005   3.075  1.00  0.00     0.064 A 
HETATM   22  C   UNL     1      42.640 -16.858   4.332  1.00  0.00     0.077 A 
HETATM   23  C   UNL     1      43.726 -17.630   4.756  1.00  0.00     0.065 A 
HETATM   24  N   UNL     1      42.287 -16.016   5.392  1.00  0.00    -0.330 N 
HETATM   25  N   UNL     1      44.058 -17.237   6.054  1.00  0.00    -0.331 N 
HETATM   26  C   UNL     1      44.288 -18.602   3.966  1.00  0.00     0.074 A 
HETATM   27  C   UNL     1      43.155 -16.250   6.460  1.00  0.00     0.176 A 
HETATM   28  H   UNL     1      44.796 -17.628   6.625  1.00  0.00     0.168 HD
HETATM   29  S   UNL     1      43.088 -15.492   7.922  1.00  0.00    -0.041 SA
HETATM   30  C   UNL     1      43.709 -18.788   2.710  1.00  0.00     0.119 A 
HETATM   31  F   UNL     1      44.204 -19.736   1.903  1.00  0.00    -0.206 F 
HETATM   32  C   UNL     1      42.628 -18.011   2.261  1.00  0.00     0.061 A 
HETATM   33  H   UNL     1      41.469 -15.427   5.418  1.00  0.00     0.168 HD
ENDBRANCH   2  21
TORSDOF 9
ENDMDL
MODEL 10
REMARK VINA RESULT:      -7.1      2.837      4.187
REMARK  9 active torsions:
REMARK  status: ('A' for Active; 'I' for Inactive)
REMARK    1  A    between atoms: C_2  and  N_3 
REMARK    2  A    between atoms: N_3  and  C_5 
REMARK    3  A    between atoms: N_3  and  C_29 
REMARK    4  A    between atoms: C_5  and  C_6 
REMARK    5  A    between atoms: C_6  and  O_7 
REMARK    6  A    between atoms: O_7  and  C_8 
REMARK    7  A    between atoms: C_9  and  C_10 
REMARK    8  A    between atoms: C_10  and  N_11 
REMARK       I    between atoms: N_11  and  C_12 
REMARK    9  A    between atoms: C_12  and  C_13 
ROOT
HETATM    1  N   UNL     1      41.826 -14.378   0.774  1.00  0.00    -0.352 N 
HETATM    2  C   UNL     1      40.896 -13.379   0.531  1.00  0.00     0.254 C 
HETATM    3  O   UNL     1      40.734 -12.401   1.248  1.00  0.00    -0.268 OA
HETATM    4  H   UNL     1      42.151 -14.856  -0.055  1.00  0.00     0.163 HD
ENDROOT
BRANCH   1   5
HETATM    5  C   UNL     1      42.814 -14.240   1.829  1.00  0.00     0.164 C 
BRANCH   5   6
HETATM    6  C   UNL     1      43.084 -15.495   2.622  1.00  0.00    -0.007 A 
HETATM    7  C   UNL     1      43.190 -15.514   4.025  1.00  0.00     0.076 A 
HETATM    8  C   UNL     1      43.399 -16.738   4.680  1.00  0.00     0.037 A 
HETATM    9  C   UNL     1      43.524 -17.927   3.958  1.00  0.00     0.003 A 
HETATM   10  C   UNL     1      43.444 -17.910   2.573  1.00  0.00     0.001 A 
HETATM   11  C   UNL     1      43.224 -16.704   1.913  1.00  0.00     0.011 A 
BRANCH   7  12
HETATM   12  O   UNL     1      43.053 -14.310   4.678  1.00  0.00    -0.349 OA
BRANCH  12  13
HETATM   13  C   UNL     1      41.860 -14.149   5.452  1.00  0.00     0.203 C 
BRANCH  13  14
HETATM   14  C   UNL     1      40.709 -13.675   4.557  1.00  0.00     0.261 C 
BRANCH  14  15
HETATM   15  N   UNL     1      40.539 -12.155   4.482  1.00  0.00    -0.070 N 
HETATM   16  H   UNL     1      40.436 -11.949   3.479  1.00  0.00     0.279 HD
BRANCH  15  17
HETATM   17  C   UNL     1      41.739 -11.343   4.944  1.00  0.00     0.230 C 
HETATM   18  C   UNL     1      42.598 -10.892   3.777  1.00  0.00     0.034 C 
ENDBRANCH  15  17
BRANCH  15  19
HETATM   19  C   UNL     1      39.273 -11.616   5.130  1.00  0.00     0.230 C 
HETATM   20  C   UNL     1      39.550 -11.029   6.501  1.00  0.00     0.034 C 
ENDBRANCH  15  19
ENDBRANCH  14  15
ENDBRANCH  13  14
ENDBRANCH  12  13
ENDBRANCH   7  12
ENDBRANCH   5   6
ENDBRANCH   1   5
BRANCH   2  21
HETATM   21  C   UNL     1      40.119 -13.501  -0.728  1.00  0.00     0.064 A 
HETATM   22  C   UNL     1      39.788 -12.427  -1.532  1.00  0.00     0.077 A 
HETATM   23  C   UNL     1      38.981 -12.573  -2.665  1.00  0.00     0.065 A 
HETATM   24  N   UNL     1      40.149 -11.078  -1.447  1.00  0.00    -0.330 N 
HETATM   25  N   UNL     1      38.820 -11.315  -3.249  1.00  0.00    -0.331 N 
HETATM   26  C   UNL     1      38.496 -13.794  -3.068  1.00  0.00     0.074 A 
HETATM   27  C   UNL     1      39.559 -10.388  -2.508  1.00  0.00     0.176 A 
HETATM   28  H   UNL     1      38.296 -11.111  -4.090  1.00  0.00     0.168 HD
HETATM   29  S   UNL     1      39.736  -8.777  -2.808  1.00  0.00    -0.041 SA
HETATM   30  C   UNL     1      38.860 -14.891  -2.287  1.00  0.00     0.119 A 
HETATM   31  F   UNL     1      38.431 -16.109  -2.643  1.00  0.00    -0.206 F 
HETATM   32  C   UNL     1      39.656 -14.761  -1.136  1.00  0.00     0.061 A 
HETATM   33  H   UNL     1      40.818 -10.695  -0.797  1.00  0.00     0.168 HD
ENDBRANCH   2  21
TORSDOF 9
ENDMDL
