MODEL 1
REMARK VINA RESULT:      -8.6      0.000      0.000
REMARK  6 active torsions:
REMARK  status: ('A' for Active; 'I' for Inactive)
REMARK    1  A    between atoms: C_2  and  N_3 
REMARK    2  A    between atoms: N_7  and  C_8 
REMARK    3  A    between atoms: C_11  and  N_12 
REMARK    4  A    between atoms: C_13  and  N_14 
REMARK       I    between atoms: N_14  and  C_15 
REMARK    5  A    between atoms: C_15  and  C_16 
REMARK    6  A    between atoms: C_18  and  C_19 
ROOT
HETATM    1  N   UNL     1      43.225 -17.697   1.965  1.00  0.00    -0.338 N 
HETATM    2  C   UNL     1      43.614 -18.576   2.909  1.00  0.00     0.157 C 
HETATM    3  S   UNL     1      43.469 -20.211   2.572  1.00  0.00    -0.047 SA
HETATM    4  H   UNL     1      43.135 -18.121   1.046  1.00  0.00     0.168 HD
ENDROOT
BRANCH   2   5
HETATM    5  N   UNL     1      44.221 -18.230   4.075  1.00  0.00    -0.199 NA
HETATM    6  C   UNL     1      43.793 -18.572   5.355  1.00  0.00     0.261 C 
HETATM    7  O   UNL     1      43.792 -19.709   5.814  1.00  0.00    -0.271 OA
HETATM    8  H   UNL     1      44.443 -17.240   4.017  1.00  0.00     0.139 HD
BRANCH   6   9
HETATM    9  C   UNL     1      43.496 -17.418   6.184  1.00  0.00     0.138 A 
HETATM   10  O   UNL     1      42.878 -16.329   5.630  1.00  0.00    -0.305 OA
HETATM   11  C   UNL     1      42.636 -15.433   6.638  1.00  0.00     0.088 A 
HETATM   12  C   UNL     1      43.175 -15.916   7.814  1.00  0.00     0.041 A 
HETATM   13  C   UNL     1      43.704 -17.195   7.529  1.00  0.00     0.045 A 
BRANCH  11  14
HETATM   14  C   UNL     1      41.889 -14.232   6.261  1.00  0.00     0.020 A 
HETATM   15  C   UNL     1      42.492 -12.973   6.069  1.00  0.00     0.048 A 
HETATM   16 CL   UNL     1      44.182 -12.688   6.321  1.00  0.00    -0.083 Cl
HETATM   17  C   UNL     1      41.728 -11.858   5.699  1.00  0.00     0.048 A 
HETATM   18  C   UNL     1      40.354 -11.985   5.526  1.00  0.00     0.035 A 
HETATM   19 CL   UNL     1      39.419 -10.614   5.078  1.00  0.00    -0.084 Cl
HETATM   20  C   UNL     1      39.733 -13.213   5.721  1.00  0.00     0.025 A 
HETATM   21  C   UNL     1      40.496 -14.328   6.086  1.00  0.00     0.017 A 
ENDBRANCH  11  14
ENDBRANCH   6   9
ENDBRANCH   2   5
BRANCH   1  22
HETATM   22  C   UNL     1      42.696 -16.399   2.056  1.00  0.00     0.034 A 
HETATM   23  C   UNL     1      43.461 -15.239   1.988  1.00  0.00     0.032 A 
HETATM   24  C   UNL     1      42.854 -13.977   2.094  1.00  0.00     0.031 A 
HETATM   25  C   UNL     1      41.471 -13.839   2.263  1.00  0.00     0.030 A 
HETATM   26  C   UNL     1      40.731 -15.025   2.402  1.00  0.00     0.031 A 
HETATM   27  C   UNL     1      41.332 -16.284   2.313  1.00  0.00     0.032 A 
BRANCH  25  28
HETATM   28  N   UNL     1      40.811 -12.612   2.323  1.00  0.00    -0.378 N 
HETATM   29  C   UNL     1      39.378 -12.631   1.961  1.00  0.00     0.150 C 
HETATM   30  C   UNL     1      39.174 -12.229   0.484  1.00  0.00     0.254 C 
HETATM   31  N   UNL     1      39.810 -10.857   0.220  1.00  0.00    -0.068 N 
HETATM   32  H   UNL     1      39.385 -10.193   0.881  1.00  0.00     0.280 HD
HETATM   33  C   UNL     1      41.306 -10.911   0.559  1.00  0.00     0.254 C 
HETATM   34  C   UNL     1      41.519 -11.360   2.020  1.00  0.00     0.150 C 
BRANCH  31  35
HETATM   35  C   UNL     1      39.581 -10.339  -1.177  1.00  0.00     0.230 C 
HETATM   36  C   UNL     1      40.730 -10.725  -2.092  1.00  0.00     0.034 C 
ENDBRANCH  31  35
ENDBRANCH  25  28
ENDBRANCH   1  22
TORSDOF 6
ENDMDL
MODEL 2
REMARK VINA RESULT:      -8.1      3.339      6.684
REMARK  6 active torsions:
REMARK  status: ('A' for Active; 'I' for Inactive)
REMARK    1  A    between atoms: C_2  and  N_3 
REMARK    2  A    between atoms: N_7  and  C_8 
REMARK    3  A    between atoms: C_11  and  N_12 
REMARK    4  A    between atoms: C_13  and  N_14 
REMARK       I    between atoms: N_14  and  C_15 
REMARK    5  A    between atoms: C_15  and  C_16 
REMARK    6  A    between atoms: C_18  and  C_19 
ROOT
HETATM    1  N   UNL     1      39.730 -11.649  -0.394  1.00  0.00    -0.338 N 
HETATM    2  C   UNL     1      39.787 -12.759  -1.155  1.00  0.00     0.157 C 
HETATM    3  S   UNL     1      38.921 -12.779  -2.589  1.00  0.00    -0.047 SA
HETATM    4  H   UNL     1      39.382 -10.841  -0.903  1.00  0.00     0.168 HD
ENDROOT
BRANCH   2   5
HETATM    5  N   UNL     1      40.590 -13.826  -0.895  1.00  0.00    -0.199 NA
HETATM    6  C   UNL     1      40.352 -14.818   0.053  1.00  0.00     0.261 C 
HETATM    7  O   UNL     1      39.449 -15.644  -0.007  1.00  0.00    -0.271 OA
HETATM    8  H   UNL     1      41.542 -13.478  -0.829  1.00  0.00     0.139 HD
BRANCH   6   9
HETATM    9  C   UNL     1      41.392 -14.902   1.062  1.00  0.00     0.138 A 
HETATM   10  O   UNL     1      41.619 -16.092   1.702  1.00  0.00    -0.305 OA
HETATM   11  C   UNL     1      42.699 -15.919   2.527  1.00  0.00     0.088 A 
HETATM   12  C   UNL     1      43.104 -14.600   2.475  1.00  0.00     0.041 A 
HETATM   13  C   UNL     1      42.284 -13.955   1.521  1.00  0.00     0.045 A 
BRANCH  11  14
HETATM   14  C   UNL     1      43.162 -17.115   3.233  1.00  0.00     0.020 A 
HETATM   15  C   UNL     1      43.513 -17.121   4.598  1.00  0.00     0.048 A 
HETATM   16 CL   UNL     1      43.498 -15.695   5.583  1.00  0.00    -0.083 Cl
HETATM   17  C   UNL     1      43.942 -18.298   5.225  1.00  0.00     0.048 A 
HETATM   18  C   UNL     1      44.034 -19.479   4.497  1.00  0.00     0.035 A 
HETATM   19 CL   UNL     1      44.566 -20.920   5.269  1.00  0.00    -0.084 Cl
HETATM   20  C   UNL     1      43.705 -19.497   3.146  1.00  0.00     0.025 A 
HETATM   21  C   UNL     1      43.272 -18.323   2.520  1.00  0.00     0.017 A 
ENDBRANCH  11  14
ENDBRANCH   6   9
ENDBRANCH   2   5
BRANCH   1  22
HETATM   22  C   UNL     1      39.824 -11.460   0.994  1.00  0.00     0.034 A 
HETATM   23  C   UNL     1      38.921 -11.980   1.915  1.00  0.00     0.032 A 
HETATM   24  C   UNL     1      39.084 -11.738   3.289  1.00  0.00     0.031 A 
HETATM   25  C   UNL     1      40.153 -10.980   3.780  1.00  0.00     0.030 A 
HETATM   26  C   UNL     1      41.009 -10.406   2.826  1.00  0.00     0.031 A 
HETATM   27  C   UNL     1      40.843 -10.629   1.456  1.00  0.00     0.032 A 
BRANCH  25  28
HETATM   28  N   UNL     1      40.391 -10.752   5.135  1.00  0.00    -0.378 N 
HETATM   29  C   UNL     1      41.443  -9.764   5.449  1.00  0.00     0.150 C 
HETATM   30  C   UNL     1      42.793 -10.461   5.728  1.00  0.00     0.254 C 
HETATM   31  N   UNL     1      42.629 -11.494   6.851  1.00  0.00    -0.068 N 
HETATM   32  H   UNL     1      42.256 -10.995   7.670  1.00  0.00     0.280 HD
HETATM   33  C   UNL     1      41.566 -12.526   6.448  1.00  0.00     0.254 C 
HETATM   34  C   UNL     1      40.228 -11.831   6.121  1.00  0.00     0.150 C 
BRANCH  31  35
HETATM   35  C   UNL     1      43.918 -12.163   7.256  1.00  0.00     0.230 C 
HETATM   36  C   UNL     1      45.028 -11.840   6.273  1.00  0.00     0.034 C 
ENDBRANCH  31  35
ENDBRANCH  25  28
ENDBRANCH   1  22
TORSDOF 6
ENDMDL
MODEL 3
REMARK VINA RESULT:      -8.1      3.643      5.983
REMARK  6 active torsions:
REMARK  status: ('A' for Active; 'I' for Inactive)
REMARK    1  A    between atoms: C_2  and  N_3 
REMARK    2  A    between atoms: N_7  and  C_8 
REMARK    3  A    between atoms: C_11  and  N_12 
REMARK    4  A    between atoms: C_13  and  N_14 
REMARK       I    between atoms: N_14  and  C_15 
REMARK    5  A    between atoms: C_15  and  C_16 
REMARK    6  A    between atoms: C_18  and  C_19 
ROOT
HETATM    1  N   UNL     1      42.337 -10.157   7.725  1.00  0.00    -0.338 N 
HETATM    2  C   UNL     1      43.403 -10.827   8.202  1.00  0.00     0.157 C 
HETATM    3  S   UNL     1      44.458 -10.012   9.219  1.00  0.00    -0.047 SA
HETATM    4  H   UNL     1      42.140  -9.308   8.247  1.00  0.00     0.168 HD
ENDROOT
BRANCH   2   5
HETATM    5  N   UNL     1      43.626 -12.154   8.006  1.00  0.00    -0.199 NA
HETATM    6  C   UNL     1      44.098 -12.742   6.836  1.00  0.00     0.261 C 
HETATM    7  O   UNL     1      45.226 -12.592   6.381  1.00  0.00    -0.271 OA
HETATM    8  H   UNL     1      42.815 -12.651   8.363  1.00  0.00     0.139 HD
BRANCH   6   9
HETATM    9  C   UNL     1      43.173 -13.707   6.269  1.00  0.00     0.138 A 
HETATM   10  O   UNL     1      43.645 -14.687   5.436  1.00  0.00    -0.305 OA
HETATM   11  C   UNL     1      42.592 -15.505   5.121  1.00  0.00     0.088 A 
HETATM   12  C   UNL     1      41.438 -14.997   5.684  1.00  0.00     0.041 A 
HETATM   13  C   UNL     1      41.813 -13.862   6.438  1.00  0.00     0.045 A 
BRANCH  11  14
HETATM   14  C   UNL     1      42.915 -16.678   4.309  1.00  0.00     0.020 A 
HETATM   15  C   UNL     1      42.315 -16.946   3.061  1.00  0.00     0.048 A 
HETATM   16 CL   UNL     1      41.078 -15.946   2.375  1.00  0.00    -0.083 Cl
HETATM   17  C   UNL     1      42.669 -18.082   2.321  1.00  0.00     0.048 A 
HETATM   18  C   UNL     1      43.618 -18.968   2.821  1.00  0.00     0.035 A 
HETATM   19 CL   UNL     1      44.045 -20.363   1.913  1.00  0.00    -0.084 Cl
HETATM   20  C   UNL     1      44.215 -18.733   4.054  1.00  0.00     0.025 A 
HETATM   21  C   UNL     1      43.865 -17.597   4.792  1.00  0.00     0.017 A 
ENDBRANCH  11  14
ENDBRANCH   6   9
ENDBRANCH   2   5
BRANCH   1  22
HETATM   22  C   UNL     1      41.616 -10.278   6.526  1.00  0.00     0.034 A 
HETATM   23  C   UNL     1      40.275 -10.641   6.455  1.00  0.00     0.032 A 
HETATM   24  C   UNL     1      39.629 -10.744   5.212  1.00  0.00     0.031 A 
HETATM   25  C   UNL     1      40.300 -10.483   4.011  1.00  0.00     0.030 A 
HETATM   26  C   UNL     1      41.670 -10.190   4.105  1.00  0.00     0.031 A 
HETATM   27  C   UNL     1      42.323 -10.101   5.338  1.00  0.00     0.032 A 
BRANCH  25  28
HETATM   28  N   UNL     1      39.694 -10.522   2.755  1.00  0.00    -0.378 N 
HETATM   29  C   UNL     1      38.725 -11.616   2.539  1.00  0.00     0.150 C 
HETATM   30  C   UNL     1      39.391 -12.813   1.825  1.00  0.00     0.254 C 
HETATM   31  N   UNL     1      40.030 -12.350   0.509  1.00  0.00    -0.068 N 
HETATM   32  H   UNL     1      39.287 -11.910  -0.050  1.00  0.00     0.280 HD
HETATM   33  C   UNL     1      41.066 -11.255   0.798  1.00  0.00     0.254 C 
HETATM   34  C   UNL     1      40.418 -10.078   1.555  1.00  0.00     0.150 C 
BRANCH  31  35
HETATM   35  C   UNL     1      40.627 -13.471  -0.305  1.00  0.00     0.230 C 
HETATM   36  C   UNL     1      39.540 -14.317  -0.941  1.00  0.00     0.034 C 
ENDBRANCH  31  35
ENDBRANCH  25  28
ENDBRANCH   1  22
TORSDOF 6
ENDMDL
MODEL 4
REMARK VINA RESULT:      -8.0      6.581      9.783
REMARK  6 active torsions:
REMARK  status: ('A' for Active; 'I' for Inactive)
REMARK    1  A    between atoms: C_2  and  N_3 
REMARK    2  A    between atoms: N_7  and  C_8 
REMARK    3  A    between atoms: C_11  and  N_12 
REMARK    4  A    between atoms: C_13  and  N_14 
REMARK       I    between atoms: N_14  and  C_15 
REMARK    5  A    between atoms: C_15  and  C_16 
REMARK    6  A    between atoms: C_18  and  C_19 
ROOT
HETATM    1  N   UNL     1      43.248  -9.409   7.571  1.00  0.00    -0.338 N 
HETATM    2  C   UNL     1      42.735 -10.403   6.821  1.00  0.00     0.157 C 
HETATM    3  S   UNL     1      42.211 -10.034   5.273  1.00  0.00    -0.047 SA
HETATM    4  H   UNL     1      43.509  -8.595   7.020  1.00  0.00     0.168 HD
ENDROOT
BRANCH   2   5
HETATM    5  N   UNL     1      42.716 -11.711   7.192  1.00  0.00    -0.199 NA
HETATM    6  C   UNL     1      43.459 -12.738   6.614  1.00  0.00     0.261 C 
HETATM    7  O   UNL     1      44.678 -12.845   6.680  1.00  0.00    -0.271 OA
HETATM    8  H   UNL     1      41.742 -11.980   7.298  1.00  0.00     0.139 HD
BRANCH   6   9
HETATM    9  C   UNL     1      42.633 -13.791   6.052  1.00  0.00     0.138 A 
HETATM   10  O   UNL     1      43.206 -14.746   5.253  1.00  0.00    -0.305 OA
HETATM   11  C   UNL     1      42.234 -15.658   4.936  1.00  0.00     0.088 A 
HETATM   12  C   UNL     1      41.029 -15.238   5.462  1.00  0.00     0.041 A 
HETATM   13  C   UNL     1      41.288 -14.058   6.195  1.00  0.00     0.045 A 
BRANCH  11  14
HETATM   14  C   UNL     1      42.675 -16.818   4.161  1.00  0.00     0.020 A 
HETATM   15  C   UNL     1      42.174 -17.130   2.880  1.00  0.00     0.048 A 
HETATM   16 CL   UNL     1      40.930 -16.208   2.104  1.00  0.00    -0.083 Cl
HETATM   17  C   UNL     1      42.640 -18.249   2.178  1.00  0.00     0.048 A 
HETATM   18  C   UNL     1      43.602 -19.075   2.749  1.00  0.00     0.035 A 
HETATM   19 CL   UNL     1      44.166 -20.452   1.887  1.00  0.00    -0.084 Cl
HETATM   20  C   UNL     1      44.103 -18.797   4.015  1.00  0.00     0.025 A 
HETATM   21  C   UNL     1      43.642 -17.677   4.715  1.00  0.00     0.017 A 
ENDBRANCH  11  14
ENDBRANCH   6   9
ENDBRANCH   2   5
BRANCH   1  22
HETATM   22  C   UNL     1      43.261  -9.194   8.959  1.00  0.00     0.034 A 
HETATM   23  C   UNL     1      44.338  -9.497   9.785  1.00  0.00     0.032 A 
HETATM   24  C   UNL     1      44.267  -9.257  11.167  1.00  0.00     0.031 A 
HETATM   25  C   UNL     1      43.125  -8.704  11.759  1.00  0.00     0.030 A 
HETATM   26  C   UNL     1      42.026  -8.476  10.916  1.00  0.00     0.031 A 
HETATM   27  C   UNL     1      42.084  -8.727   9.542  1.00  0.00     0.032 A 
BRANCH  25  28
HETATM   28  N   UNL     1      43.020  -8.399  13.116  1.00  0.00    -0.378 N 
HETATM   29  C   UNL     1      42.082  -9.233  13.895  1.00  0.00     0.150 C 
HETATM   30  C   UNL     1      40.707  -8.543  14.030  1.00  0.00     0.254 C 
HETATM   31  N   UNL     1      40.878  -7.149  14.650  1.00  0.00    -0.068 N 
HETATM   32  H   UNL     1      41.357  -7.274  15.552  1.00  0.00     0.280 HD
HETATM   33  C   UNL     1      41.816  -6.308  13.771  1.00  0.00     0.254 C 
HETATM   34  C   UNL     1      43.175  -7.016  13.592  1.00  0.00     0.150 C 
BRANCH  31  35
HETATM   35  C   UNL     1      39.576  -6.432  14.906  1.00  0.00     0.230 C 
HETATM   36  C   UNL     1      38.617  -6.622  13.745  1.00  0.00     0.034 C 
ENDBRANCH  31  35
ENDBRANCH  25  28
ENDBRANCH   1  22
TORSDOF 6
ENDMDL
MODEL 5
REMARK VINA RESULT:      -7.9      3.578      5.815
REMARK  6 active torsions:
REMARK  status: ('A' for Active; 'I' for Inactive)
REMARK    1  A    between atoms: C_2  and  N_3 
REMARK    2  A    between atoms: N_7  and  C_8 
REMARK    3  A    between atoms: C_11  and  N_12 
REMARK    4  A    between atoms: C_13  and  N_14 
REMARK       I    between atoms: N_14  and  C_15 
REMARK    5  A    between atoms: C_15  and  C_16 
REMARK    6  A    between atoms: C_18  and  C_19 
ROOT
HETATM    1  N   UNL     1      40.902 -10.435   5.431  1.00  0.00    -0.338 N 
HETATM    2  C   UNL     1      41.717 -10.540   6.498  1.00  0.00     0.157 C 
HETATM    3  S   UNL     1      41.849  -9.221   7.524  1.00  0.00    -0.047 SA
HETATM    4  H   UNL     1      40.248  -9.661   5.511  1.00  0.00     0.168 HD
ENDROOT
BRANCH   2   5
HETATM    5  N   UNL     1      42.357 -11.683   6.865  1.00  0.00    -0.199 NA
HETATM    6  C   UNL     1      43.080 -12.523   6.023  1.00  0.00     0.261 C 
HETATM    7  O   UNL     1      44.138 -12.230   5.478  1.00  0.00    -0.271 OA
HETATM    8  H   UNL     1      41.715 -12.213   7.447  1.00  0.00     0.139 HD
BRANCH   6   9
HETATM    9  C   UNL     1      42.550 -13.874   5.973  1.00  0.00     0.138 A 
HETATM   10  O   UNL     1      42.971 -14.729   4.989  1.00  0.00    -0.305 OA
HETATM   11  C   UNL     1      42.392 -15.949   5.225  1.00  0.00     0.088 A 
HETATM   12  C   UNL     1      41.540 -15.845   6.307  1.00  0.00     0.041 A 
HETATM   13  C   UNL     1      41.659 -14.525   6.799  1.00  0.00     0.045 A 
BRANCH  11  14
HETATM   14  C   UNL     1      42.796 -17.033   4.329  1.00  0.00     0.020 A 
HETATM   15  C   UNL     1      42.239 -17.229   3.049  1.00  0.00     0.048 A 
HETATM   16 CL   UNL     1      40.961 -16.245   2.416  1.00  0.00    -0.083 Cl
HETATM   17  C   UNL     1      42.671 -18.280   2.230  1.00  0.00     0.048 A 
HETATM   18  C   UNL     1      43.657 -19.151   2.680  1.00  0.00     0.035 A 
HETATM   19 CL   UNL     1      44.180 -20.442   1.673  1.00  0.00    -0.084 Cl
HETATM   20  C   UNL     1      44.215 -18.986   3.942  1.00  0.00     0.025 A 
HETATM   21  C   UNL     1      43.787 -17.935   4.760  1.00  0.00     0.017 A 
ENDBRANCH  11  14
ENDBRANCH   6   9
ENDBRANCH   2   5
BRANCH   1  22
HETATM   22  C   UNL     1      40.948 -11.024   4.157  1.00  0.00     0.034 A 
HETATM   23  C   UNL     1      40.220 -12.151   3.792  1.00  0.00     0.032 A 
HETATM   24  C   UNL     1      40.328 -12.682   2.496  1.00  0.00     0.031 A 
HETATM   25  C   UNL     1      41.157 -12.098   1.530  1.00  0.00     0.030 A 
HETATM   26  C   UNL     1      41.935 -11.005   1.945  1.00  0.00     0.031 A 
HETATM   27  C   UNL     1      41.844 -10.482   3.238  1.00  0.00     0.032 A 
BRANCH  25  28
HETATM   28  N   UNL     1      41.263 -12.553   0.216  1.00  0.00    -0.378 N 
HETATM   29  C   UNL     1      40.908 -11.576  -0.835  1.00  0.00     0.150 C 
HETATM   30  C   UNL     1      39.447 -11.765  -1.298  1.00  0.00     0.254 C 
HETATM   31  N   UNL     1      39.227 -13.210  -1.766  1.00  0.00    -0.068 N 
HETATM   32  H   UNL     1      39.912 -13.396  -2.510  1.00  0.00     0.280 HD
HETATM   33  C   UNL     1      39.555 -14.177  -0.619  1.00  0.00     0.254 C 
HETATM   34  C   UNL     1      40.999 -13.959  -0.120  1.00  0.00     0.150 C 
BRANCH  31  35
HETATM   35  C   UNL     1      37.849 -13.467  -2.322  1.00  0.00     0.230 C 
HETATM   36  C   UNL     1      37.908 -14.441  -3.484  1.00  0.00     0.034 C 
ENDBRANCH  31  35
ENDBRANCH  25  28
ENDBRANCH   1  22
TORSDOF 6
ENDMDL
MODEL 6
REMARK VINA RESULT:      -7.7      1.777      2.388
REMARK  6 active torsions:
REMARK  status: ('A' for Active; 'I' for Inactive)
REMARK    1  A    between atoms: C_2  and  N_3 
REMARK    2  A    between atoms: N_7  and  C_8 
REMARK    3  A    between atoms: C_11  and  N_12 
REMARK    4  A    between atoms: C_13  and  N_14 
REMARK       I    between atoms: N_14  and  C_15 
REMARK    5  A    between atoms: C_15  and  C_16 
REMARK    6  A    between atoms: C_18  and  C_19 
ROOT
HETATM    1  N   UNL     1      43.714 -17.568   3.075  1.00  0.00    -0.338 N 
HETATM    2  C   UNL     1      43.853 -17.967   4.354  1.00  0.00     0.157 C 
HETATM    3  S   UNL     1      44.276 -19.564   4.640  1.00  0.00    -0.047 SA
HETATM    4  H   UNL     1      44.142 -18.209   2.413  1.00  0.00     0.168 HD
ENDROOT
BRANCH   2   5
HETATM    5  N   UNL     1      43.785 -17.138   5.428  1.00  0.00    -0.199 NA
HETATM    6  C   UNL     1      42.651 -16.460   5.869  1.00  0.00     0.261 C 
HETATM    7  O   UNL     1      41.657 -16.993   6.349  1.00  0.00    -0.271 OA
HETATM    8  H   UNL     1      44.586 -16.515   5.380  1.00  0.00     0.139 HD
BRANCH   6   9
HETATM    9  C   UNL     1      42.813 -15.017   5.869  1.00  0.00     0.138 A 
HETATM   10  O   UNL     1      41.831 -14.227   5.333  1.00  0.00    -0.305 OA
HETATM   11  C   UNL     1      42.191 -12.921   5.542  1.00  0.00     0.088 A 
HETATM   12  C   UNL     1      43.438 -12.883   6.133  1.00  0.00     0.041 A 
HETATM   13  C   UNL     1      43.826 -14.222   6.364  1.00  0.00     0.045 A 
BRANCH  11  14
HETATM   14  C   UNL     1      41.216 -11.914   5.122  1.00  0.00     0.020 A 
HETATM   15  C   UNL     1      41.412 -11.058   4.019  1.00  0.00     0.048 A 
HETATM   16 CL   UNL     1      42.862 -11.058   3.071  1.00  0.00    -0.083 Cl
HETATM   17  C   UNL     1      40.439 -10.117   3.657  1.00  0.00     0.048 A 
HETATM   18  C   UNL     1      39.265 -10.013   4.395  1.00  0.00     0.035 A 
HETATM   19 CL   UNL     1      38.076  -8.854   3.950  1.00  0.00    -0.084 Cl
HETATM   20  C   UNL     1      39.052 -10.837   5.494  1.00  0.00     0.025 A 
HETATM   21  C   UNL     1      40.022 -11.780   5.854  1.00  0.00     0.017 A 
ENDBRANCH  11  14
ENDBRANCH   6   9
ENDBRANCH   2   5
BRANCH   1  22
HETATM   22  C   UNL     1      42.899 -16.588   2.485  1.00  0.00     0.034 A 
HETATM   23  C   UNL     1      43.345 -15.325   2.111  1.00  0.00     0.032 A 
HETATM   24  C   UNL     1      42.462 -14.399   1.530  1.00  0.00     0.031 A 
HETATM   25  C   UNL     1      41.116 -14.712   1.303  1.00  0.00     0.030 A 
HETATM   26  C   UNL     1      40.674 -15.965   1.756  1.00  0.00     0.031 A 
HETATM   27  C   UNL     1      41.545 -16.885   2.348  1.00  0.00     0.032 A 
BRANCH  25  28
HETATM   28  N   UNL     1      40.209 -13.850   0.685  1.00  0.00    -0.378 N 
HETATM   29  C   UNL     1      39.540 -14.376  -0.523  1.00  0.00     0.150 C 
HETATM   30  C   UNL     1      40.264 -13.908  -1.805  1.00  0.00     0.254 C 
HETATM   31  N   UNL     1      40.356 -12.376  -1.826  1.00  0.00    -0.068 N 
HETATM   32  H   UNL     1      39.397 -12.013  -1.750  1.00  0.00     0.280 HD
HETATM   33  C   UNL     1      41.108 -11.890  -0.579  1.00  0.00     0.254 C 
HETATM   34  C   UNL     1      40.418 -12.395   0.705  1.00  0.00     0.150 C 
BRANCH  31  35
HETATM   35  C   UNL     1      40.968 -11.821  -3.088  1.00  0.00     0.230 C 
HETATM   36  C   UNL     1      40.573 -10.369  -3.287  1.00  0.00     0.034 C 
ENDBRANCH  31  35
ENDBRANCH  25  28
ENDBRANCH   1  22
TORSDOF 6
ENDMDL
MODEL 7
REMARK VINA RESULT:      -7.7      4.623      7.948
REMARK  6 active torsions:
REMARK  status: ('A' for Active; 'I' for Inactive)
REMARK    1  A    between atoms: C_2  and  N_3 
REMARK    2  A    between atoms: N_7  and  C_8 
REMARK    3  A    between atoms: C_11  and  N_12 
REMARK    4  A    between atoms: C_13  and  N_14 
REMARK       I    between atoms: N_14  and  C_15 
REMARK    5  A    between atoms: C_15  and  C_16 
REMARK    6  A    between atoms: C_18  and  C_19 
ROOT
HETATM    1  N   UNL     1      40.603 -10.977   3.959  1.00  0.00    -0.338 N 
HETATM    2  C   UNL     1      39.710 -11.967   3.765  1.00  0.00     0.157 C 
HETATM    3  S   UNL     1      38.478 -11.712   2.658  1.00  0.00    -0.047 SA
HETATM    4  H   UNL     1      40.589 -10.284   3.216  1.00  0.00     0.168 HD
ENDROOT
BRANCH   2   5
HETATM    5  N   UNL     1      39.803 -13.204   4.322  1.00  0.00    -0.199 NA
HETATM    6  C   UNL     1      40.174 -13.485   5.634  1.00  0.00     0.261 C 
HETATM    7  O   UNL     1      39.514 -13.201   6.627  1.00  0.00    -0.271 OA
HETATM    8  H   UNL     1      40.306 -13.793   3.665  1.00  0.00     0.139 HD
BRANCH   6   9
HETATM    9  C   UNL     1      41.363 -14.315   5.725  1.00  0.00     0.138 A 
HETATM   10  O   UNL     1      41.468 -15.433   4.940  1.00  0.00    -0.305 OA
HETATM   11  C   UNL     1      42.709 -15.973   5.154  1.00  0.00     0.088 A 
HETATM   12  C   UNL     1      43.357 -15.248   6.135  1.00  0.00     0.041 A 
HETATM   13  C   UNL     1      42.507 -14.174   6.482  1.00  0.00     0.045 A 
BRANCH  11  14
HETATM   14  C   UNL     1      43.053 -17.131   4.328  1.00  0.00     0.020 A 
HETATM   15  C   UNL     1      42.700 -17.245   2.968  1.00  0.00     0.048 A 
HETATM   16 CL   UNL     1      41.761 -16.052   2.134  1.00  0.00    -0.083 Cl
HETATM   17  C   UNL     1      43.064 -18.374   2.223  1.00  0.00     0.048 A 
HETATM   18  C   UNL     1      43.774 -19.406   2.827  1.00  0.00     0.035 A 
HETATM   19 CL   UNL     1      44.214 -20.792   1.911  1.00  0.00    -0.084 Cl
HETATM   20  C   UNL     1      44.124 -19.323   4.170  1.00  0.00     0.025 A 
HETATM   21  C   UNL     1      43.765 -18.194   4.915  1.00  0.00     0.017 A 
ENDBRANCH  11  14
ENDBRANCH   6   9
ENDBRANCH   2   5
BRANCH   1  22
HETATM   22  C   UNL     1      41.355 -10.603   5.085  1.00  0.00     0.034 A 
HETATM   23  C   UNL     1      40.839  -9.901   6.168  1.00  0.00     0.032 A 
HETATM   24  C   UNL     1      41.662  -9.560   7.255  1.00  0.00     0.031 A 
HETATM   25  C   UNL     1      43.016  -9.915   7.290  1.00  0.00     0.030 A 
HETATM   26  C   UNL     1      43.529 -10.558   6.153  1.00  0.00     0.031 A 
HETATM   27  C   UNL     1      42.719 -10.887   5.062  1.00  0.00     0.032 A 
BRANCH  25  28
HETATM   28  N   UNL     1      43.864  -9.646   8.365  1.00  0.00    -0.378 N 
HETATM   29  C   UNL     1      43.643 -10.457   9.580  1.00  0.00     0.150 C 
HETATM   30  C   UNL     1      42.756  -9.704  10.595  1.00  0.00     0.254 C 
HETATM   31  N   UNL     1      43.377  -8.340  10.926  1.00  0.00    -0.068 N 
HETATM   32  H   UNL     1      44.328  -8.516  11.275  1.00  0.00     0.280 HD
HETATM   33  C   UNL     1      43.530  -7.520   9.637  1.00  0.00     0.254 C 
HETATM   34  C   UNL     1      44.376  -8.288   8.600  1.00  0.00     0.150 C 
BRANCH  31  35
HETATM   35  C   UNL     1      42.625  -7.568  11.981  1.00  0.00     0.230 C 
HETATM   36  C   UNL     1      43.228  -7.802  13.354  1.00  0.00     0.034 C 
ENDBRANCH  31  35
ENDBRANCH  25  28
ENDBRANCH   1  22
TORSDOF 6
ENDMDL
MODEL 8
REMARK VINA RESULT:      -7.6      4.026      7.466
REMARK  6 active torsions:
REMARK  status: ('A' for Active; 'I' for Inactive)
REMARK    1  A    between atoms: C_2  and  N_3 
REMARK    2  A    between atoms: N_7  and  C_8 
REMARK    3  A    between atoms: C_11  and  N_12 
REMARK    4  A    between atoms: C_13  and  N_14 
REMARK       I    between atoms: N_14  and  C_15 
REMARK    5  A    between atoms: C_15  and  C_16 
REMARK    6  A    between atoms: C_18  and  C_19 
ROOT
HETATM    1  N   UNL     1      39.752 -13.326   4.409  1.00  0.00    -0.338 N 
HETATM    2  C   UNL     1      39.816 -12.019   4.090  1.00  0.00     0.157 C 
HETATM    3  S   UNL     1      38.820 -11.456   2.865  1.00  0.00    -0.047 SA
HETATM    4  H   UNL     1      38.914 -13.777   4.054  1.00  0.00     0.168 HD
ENDROOT
BRANCH   2   5
HETATM    5  N   UNL     1      40.552 -11.099   4.769  1.00  0.00    -0.199 NA
HETATM    6  C   UNL     1      41.894 -10.798   4.547  1.00  0.00     0.261 C 
HETATM    7  O   UNL     1      42.335 -10.255   3.540  1.00  0.00    -0.271 OA
HETATM    8  H   UNL     1      40.368 -11.236   5.758  1.00  0.00     0.139 HD
BRANCH   6   9
HETATM    9  C   UNL     1      42.731 -11.036   5.709  1.00  0.00     0.138 A 
HETATM   10  O   UNL     1      42.632 -10.207   6.794  1.00  0.00    -0.305 OA
HETATM   11  C   UNL     1      43.455 -10.704   7.771  1.00  0.00     0.088 A 
HETATM   12  C   UNL     1      44.138 -11.797   7.276  1.00  0.00     0.041 A 
HETATM   13  C   UNL     1      43.658 -12.024   5.967  1.00  0.00     0.045 A 
BRANCH  11  14
HETATM   14  C   UNL     1      43.416 -10.004   9.056  1.00  0.00     0.020 A 
HETATM   15  C   UNL     1      42.253  -9.399   9.574  1.00  0.00     0.048 A 
HETATM   16 CL   UNL     1      40.749  -9.358   8.716  1.00  0.00    -0.083 Cl
HETATM   17  C   UNL     1      42.272  -8.750  10.816  1.00  0.00     0.048 A 
HETATM   18  C   UNL     1      43.452  -8.689  11.549  1.00  0.00     0.035 A 
HETATM   19 CL   UNL     1      43.472  -7.886  13.069  1.00  0.00    -0.084 Cl
HETATM   20  C   UNL     1      44.615  -9.268  11.056  1.00  0.00     0.025 A 
HETATM   21  C   UNL     1      44.597  -9.920   9.818  1.00  0.00     0.017 A 
ENDBRANCH  11  14
ENDBRANCH   6   9
ENDBRANCH   2   5
BRANCH   1  22
HETATM   22  C   UNL     1      40.717 -14.215   4.912  1.00  0.00     0.034 A 
HETATM   23  C   UNL     1      40.714 -14.715   6.210  1.00  0.00     0.032 A 
HETATM   24  C   UNL     1      41.721 -15.597   6.637  1.00  0.00     0.031 A 
HETATM   25  C   UNL     1      42.750 -16.006   5.781  1.00  0.00     0.030 A 
HETATM   26  C   UNL     1      42.772 -15.430   4.500  1.00  0.00     0.031 A 
HETATM   27  C   UNL     1      41.781 -14.540   4.074  1.00  0.00     0.032 A 
BRANCH  25  28
HETATM   28  N   UNL     1      43.745 -16.917   6.137  1.00  0.00    -0.378 N 
HETATM   29  C   UNL     1      44.777 -17.178   5.113  1.00  0.00     0.150 C 
HETATM   30  C   UNL     1      44.445 -18.450   4.302  1.00  0.00     0.254 C 
HETATM   31  N   UNL     1      44.266 -19.645   5.249  1.00  0.00    -0.068 N 
HETATM   32  H   UNL     1      45.134 -19.730   5.796  1.00  0.00     0.280 HD
HETATM   33  C   UNL     1      43.146 -19.341   6.253  1.00  0.00     0.254 C 
HETATM   34  C   UNL     1      43.449 -18.044   7.032  1.00  0.00     0.150 C 
BRANCH  31  35
HETATM   35  C   UNL     1      44.028 -20.954   4.539  1.00  0.00     0.230 C 
HETATM   36  C   UNL     1      43.698 -20.723   3.076  1.00  0.00     0.034 C 
ENDBRANCH  31  35
ENDBRANCH  25  28
ENDBRANCH   1  22
TORSDOF 6
ENDMDL
MODEL 9
REMARK VINA RESULT:      -7.6      3.704      5.693
REMARK  6 active torsions:
REMARK  status: ('A' for Active; 'I' for Inactive)
REMARK    1  A    between atoms: C_2  and  N_3 
REMARK    2  A    between atoms: N_7  and  C_8 
REMARK    3  A    between atoms: C_11  and  N_12 
REMARK    4  A    between atoms: C_13  and  N_14 
REMARK       I    between atoms: N_14  and  C_15 
REMARK    5  A    between atoms: C_15  and  C_16 
REMARK    6  A    between atoms: C_18  and  C_19 
ROOT
HETATM    1  N   UNL     1      41.770  -9.931   6.031  1.00  0.00    -0.338 N 
HETATM    2  C   UNL     1      42.672 -10.423   6.901  1.00  0.00     0.157 C 
HETATM    3  S   UNL     1      43.659  -9.338   7.713  1.00  0.00    -0.047 SA
HETATM    4  H   UNL     1      41.601  -8.937   6.158  1.00  0.00     0.168 HD
ENDROOT
BRANCH   2   5
HETATM    5  N   UNL     1      42.763 -11.733   7.253  1.00  0.00    -0.199 NA
HETATM    6  C   UNL     1      43.509 -12.708   6.595  1.00  0.00     0.261 C 
HETATM    7  O   UNL     1      44.734 -12.743   6.549  1.00  0.00    -0.271 OA
HETATM    8  H   UNL     1      41.820 -12.061   7.442  1.00  0.00     0.139 HD
BRANCH   6   9
HETATM    9  C   UNL     1      42.700 -13.804   6.094  1.00  0.00     0.138 A 
HETATM   10  O   UNL     1      43.278 -14.771   5.315  1.00  0.00    -0.305 OA
HETATM   11  C   UNL     1      42.325 -15.721   5.058  1.00  0.00     0.088 A 
HETATM   12  C   UNL     1      41.122 -15.315   5.602  1.00  0.00     0.041 A 
HETATM   13  C   UNL     1      41.366 -14.102   6.284  1.00  0.00     0.045 A 
BRANCH  11  14
HETATM   14  C   UNL     1      42.778 -16.896   4.313  1.00  0.00     0.020 A 
HETATM   15  C   UNL     1      43.373 -18.019   4.923  1.00  0.00     0.048 A 
HETATM   16 CL   UNL     1      43.695 -18.108   6.623  1.00  0.00    -0.083 Cl
HETATM   17  C   UNL     1      43.780 -19.121   4.160  1.00  0.00     0.048 A 
HETATM   18  C   UNL     1      43.607 -19.112   2.780  1.00  0.00     0.035 A 
HETATM   19 CL   UNL     1      44.114 -20.464   1.847  1.00  0.00    -0.084 Cl
HETATM   20  C   UNL     1      43.034 -18.012   2.153  1.00  0.00     0.025 A 
HETATM   21  C   UNL     1      42.623 -16.912   2.914  1.00  0.00     0.017 A 
ENDBRANCH  11  14
ENDBRANCH   6   9
ENDBRANCH   2   5
BRANCH   1  22
HETATM   22  C   UNL     1      41.218 -10.464   4.854  1.00  0.00     0.034 A 
HETATM   23  C   UNL     1      41.874 -10.490   3.628  1.00  0.00     0.032 A 
HETATM   24  C   UNL     1      41.248 -11.037   2.495  1.00  0.00     0.031 A 
HETATM   25  C   UNL     1      39.957 -11.576   2.558  1.00  0.00     0.030 A 
HETATM   26  C   UNL     1      39.289 -11.472   3.789  1.00  0.00     0.031 A 
HETATM   27  C   UNL     1      39.901 -10.915   4.916  1.00  0.00     0.032 A 
BRANCH  25  28
HETATM   28  N   UNL     1      39.309 -12.176   1.478  1.00  0.00    -0.378 N 
HETATM   29  C   UNL     1      39.999 -13.336   0.876  1.00  0.00     0.150 C 
HETATM   30  C   UNL     1      40.826 -12.910  -0.357  1.00  0.00     0.254 C 
HETATM   31  N   UNL     1      39.925 -12.192  -1.372  1.00  0.00    -0.068 N 
HETATM   32  H   UNL     1      39.157 -12.836  -1.604  1.00  0.00     0.280 HD
HETATM   33  C   UNL     1      39.281 -10.966  -0.709  1.00  0.00     0.254 C 
HETATM   34  C   UNL     1      38.493 -11.380   0.551  1.00  0.00     0.150 C 
BRANCH  31  35
HETATM   35  C   UNL     1      40.628 -11.818  -2.652  1.00  0.00     0.230 C 
HETATM   36  C   UNL     1      40.993 -10.345  -2.659  1.00  0.00     0.034 C 
ENDBRANCH  31  35
ENDBRANCH  25  28
ENDBRANCH   1  22
TORSDOF 6
ENDMDL
MODEL 10
REMARK VINA RESULT:      -7.5      3.043      6.885
REMARK  6 active torsions:
REMARK  status: ('A' for Active; 'I' for Inactive)
REMARK    1  A    between atoms: C_2  and  N_3 
REMARK    2  A    between atoms: N_7  and  C_8 
REMARK    3  A    between atoms: C_11  and  N_12 
REMARK    4  A    between atoms: C_13  and  N_14 
REMARK       I    between atoms: N_14  and  C_15 
REMARK    5  A    between atoms: C_15  and  C_16 
REMARK    6  A    between atoms: C_18  and  C_19 
ROOT
HETATM    1  N   UNL     1      39.659 -15.075  -0.005  1.00  0.00    -0.338 N 
HETATM    2  C   UNL     1      39.261 -13.940  -0.611  1.00  0.00     0.157 C 
HETATM    3  S   UNL     1      39.022 -13.973  -2.270  1.00  0.00    -0.047 SA
HETATM    4  H   UNL     1      39.514 -15.900  -0.580  1.00  0.00     0.168 HD
ENDROOT
BRANCH   2   5
HETATM    5  N   UNL     1      38.929 -12.796   0.044  1.00  0.00    -0.199 NA
HETATM    6  C   UNL     1      39.817 -11.818   0.487  1.00  0.00     0.261 C 
HETATM    7  O   UNL     1      40.476 -11.086  -0.243  1.00  0.00    -0.271 OA
HETATM    8  H   UNL     1      38.269 -13.047   0.775  1.00  0.00     0.139 HD
BRANCH   6   9
HETATM    9  C   UNL     1      39.774 -11.618   1.924  1.00  0.00     0.138 A 
HETATM   10  O   UNL     1      40.932 -11.693   2.652  1.00  0.00    -0.305 OA
HETATM   11  C   UNL     1      40.626 -11.378   3.950  1.00  0.00     0.088 A 
HETATM   12  C   UNL     1      39.263 -11.187   4.062  1.00  0.00     0.041 A 
HETATM   13  C   UNL     1      38.721 -11.316   2.763  1.00  0.00     0.045 A 
BRANCH  11  14
HETATM   14  C   UNL     1      41.758 -11.310   4.875  1.00  0.00     0.020 A 
HETATM   15  C   UNL     1      42.009 -10.203   5.712  1.00  0.00     0.048 A 
HETATM   16 CL   UNL     1      41.039  -8.767   5.693  1.00  0.00    -0.083 Cl
HETATM   17  C   UNL     1      43.104 -10.195   6.585  1.00  0.00     0.048 A 
HETATM   18  C   UNL     1      43.965 -11.285   6.628  1.00  0.00     0.035 A 
HETATM   19 CL   UNL     1      45.312 -11.269   7.697  1.00  0.00    -0.084 Cl
HETATM   20  C   UNL     1      43.747 -12.384   5.805  1.00  0.00     0.025 A 
HETATM   21  C   UNL     1      42.651 -12.395   4.935  1.00  0.00     0.017 A 
ENDBRANCH  11  14
ENDBRANCH   6   9
ENDBRANCH   2   5
BRANCH   1  22
HETATM   22  C   UNL     1      40.442 -15.299   1.140  1.00  0.00     0.034 A 
HETATM   23  C   UNL     1      39.930 -15.699   2.369  1.00  0.00     0.032 A 
HETATM   24  C   UNL     1      40.783 -15.895   3.468  1.00  0.00     0.031 A 
HETATM   25  C   UNL     1      42.166 -15.705   3.367  1.00  0.00     0.030 A 
HETATM   26  C   UNL     1      42.649 -15.231   2.137  1.00  0.00     0.031 A 
HETATM   27  C   UNL     1      41.804 -15.018   1.044  1.00  0.00     0.032 A 
BRANCH  25  28
HETATM   28  N   UNL     1      43.063 -15.934   4.411  1.00  0.00    -0.378 N 
HETATM   29  C   UNL     1      44.215 -16.803   4.092  1.00  0.00     0.150 C 
HETATM   30  C   UNL     1      43.944 -18.262   4.520  1.00  0.00     0.254 C 
HETATM   31  N   UNL     1      43.588 -18.314   6.012  1.00  0.00    -0.068 N 
HETATM   32  H   UNL     1      44.367 -17.881   6.526  1.00  0.00     0.280 HD
HETATM   33  C   UNL     1      42.353 -17.441   6.275  1.00  0.00     0.254 C 
HETATM   34  C   UNL     1      42.599 -15.992   5.804  1.00  0.00     0.150 C 
BRANCH  31  35
HETATM   35  C   UNL     1      43.395 -19.712   6.544  1.00  0.00     0.230 C 
HETATM   36  C   UNL     1      43.874 -20.743   5.539  1.00  0.00     0.034 C 
ENDBRANCH  31  35
ENDBRANCH  25  28
ENDBRANCH   1  22
TORSDOF 6
ENDMDL
