MODEL 1
REMARK VINA RESULT:      -9.4      0.000      0.000
REMARK  8 active torsions:
REMARK  status: ('A' for Active; 'I' for Inactive)
REMARK    1  A    between atoms: C_6  and  N_7 
REMARK       I    between atoms: N_7  and  C_8 
REMARK    2  A    between atoms: C_8  and  C_9 
REMARK    3  A    between atoms: C_9  and  N_10 
REMARK    4  A    between atoms: C_13  and  C_14 
REMARK       I    between atoms: C_14  and  N_15 
REMARK    5  A    between atoms: N_15  and  C_16 
REMARK    6  A    between atoms: C_16  and  C_17 
REMARK    7  A    between atoms: C_20  and  O_21 
REMARK    8  A    between atoms: C_26  and  N_27 
ROOT
HETATM    1  N   UNL     1      42.664 -12.411   6.118  1.00  0.00    -0.248 N 
HETATM    2  N   UNL     1      43.567 -13.268   6.641  1.00  0.00     0.007 NA
HETATM    3  N   UNL     1      44.318 -12.581   7.487  1.00  0.00    -0.150 NA
HETATM    4  C   UNL     1      43.888 -11.269   7.487  1.00  0.00     0.186 A 
HETATM    5  C   UNL     1      42.817 -11.143   6.617  1.00  0.00     0.151 A 
ENDROOT
BRANCH   1   6
HETATM    6  C   UNL     1      41.737 -12.897   5.126  1.00  0.00     0.251 C 
BRANCH   6   7
HETATM    7  C   UNL     1      41.813 -14.399   4.969  1.00  0.00     0.241 C 
HETATM    8  N   UNL     1      42.927 -14.839   4.270  1.00  0.00    -0.325 N 
HETATM    9  H   UNL     1      43.461 -14.113   3.803  1.00  0.00     0.169 HD
HETATM   10  O   UNL     1      40.872 -15.094   5.344  1.00  0.00    -0.271 OA
BRANCH   8  11
HETATM   11  C   UNL     1      43.204 -16.167   3.861  1.00  0.00     0.046 A 
HETATM   12  C   UNL     1      42.916 -16.498   2.513  1.00  0.00    -0.034 A 
HETATM   13  C   UNL     1      43.092 -17.819   2.063  1.00  0.00     0.015 A 
HETATM   14  C   UNL     1      42.377 -15.488   1.531  1.00  0.00     0.050 C 
HETATM   15  C   UNL     1      43.566 -18.813   2.917  1.00  0.00    -0.061 A 
HETATM   16  C   UNL     1      43.715 -20.230   2.453  1.00  0.00     0.048 C 
HETATM   17  C   UNL     1      43.910 -18.465   4.225  1.00  0.00     0.015 A 
HETATM   18  C   UNL     1      43.773 -17.145   4.701  1.00  0.00    -0.034 A 
HETATM   19  C   UNL     1      44.319 -16.874   6.078  1.00  0.00     0.050 C 
ENDBRANCH   8  11
ENDBRANCH   6   7
ENDBRANCH   1   6
BRANCH   5  20
HETATM   20  N   UNL     1      42.055 -10.087   6.254  1.00  0.00    -0.382 N 
HETATM   21  H   UNL     1      41.461 -10.173   5.425  1.00  0.00     0.157 HD
HETATM   22  H   UNL     1      42.276  -9.120   6.480  1.00  0.00     0.157 HD
ENDBRANCH   5  20
BRANCH   4  23
HETATM   23  C   UNL     1      44.522 -10.238   8.297  1.00  0.00     0.275 C 
HETATM   24  N   UNL     1      43.975 -10.135   9.552  1.00  0.00    -0.351 N 
HETATM   25  H   UNL     1      43.173 -10.719   9.767  1.00  0.00     0.163 HD
HETATM   26  O   UNL     1      45.454  -9.543   7.905  1.00  0.00    -0.266 OA
BRANCH  24  27
HETATM   27  C   UNL     1      44.473  -9.230  10.554  1.00  0.00     0.161 C 
BRANCH  27  28
HETATM   28  C   UNL     1      43.472  -9.113  11.673  1.00  0.00    -0.040 A 
HETATM   29  C   UNL     1      43.574  -8.064  12.596  1.00  0.00     0.011 A 
HETATM   30  C   UNL     1      42.703  -7.992  13.684  1.00  0.00     0.037 A 
HETATM   31  C   UNL     1      41.720  -8.965  13.872  1.00  0.00     0.068 A 
HETATM   32  C   UNL     1      41.602 -10.002  12.948  1.00  0.00     0.037 A 
HETATM   33  C   UNL     1      42.476 -10.080  11.857  1.00  0.00     0.011 A 
BRANCH  31  34
HETATM   34  O   UNL     1      40.949  -8.787  14.988  1.00  0.00    -0.356 OA
HETATM   35  C   UNL     1      41.376  -7.793  15.910  1.00  0.00     0.210 C 
ENDBRANCH  31  34
ENDBRANCH  27  28
ENDBRANCH  24  27
ENDBRANCH   4  23
TORSDOF 8
ENDMDL
MODEL 2
REMARK VINA RESULT:      -9.2      1.440      1.899
REMARK  8 active torsions:
REMARK  status: ('A' for Active; 'I' for Inactive)
REMARK    1  A    between atoms: C_6  and  N_7 
REMARK       I    between atoms: N_7  and  C_8 
REMARK    2  A    between atoms: C_8  and  C_9 
REMARK    3  A    between atoms: C_9  and  N_10 
REMARK    4  A    between atoms: C_13  and  C_14 
REMARK       I    between atoms: C_14  and  N_15 
REMARK    5  A    between atoms: N_15  and  C_16 
REMARK    6  A    between atoms: C_16  and  C_17 
REMARK    7  A    between atoms: C_20  and  O_21 
REMARK    8  A    between atoms: C_26  and  N_27 
ROOT
HETATM    1  N   UNL     1      43.120 -12.198   4.756  1.00  0.00    -0.248 N 
HETATM    2  N   UNL     1      44.042 -11.717   3.894  1.00  0.00     0.007 NA
HETATM    3  N   UNL     1      45.014 -11.182   4.616  1.00  0.00    -0.150 NA
HETATM    4  C   UNL     1      44.691 -11.318   5.952  1.00  0.00     0.186 A 
HETATM    5  C   UNL     1      43.479 -11.978   6.061  1.00  0.00     0.151 A 
ENDROOT
BRANCH   1   6
HETATM    6  C   UNL     1      41.923 -12.806   4.227  1.00  0.00     0.251 C 
BRANCH   6   7
HETATM    7  C   UNL     1      41.953 -14.313   4.352  1.00  0.00     0.241 C 
HETATM    8  N   UNL     1      43.118 -14.898   3.877  1.00  0.00    -0.325 N 
HETATM    9  H   UNL     1      43.730 -14.280   3.352  1.00  0.00     0.169 HD
HETATM   10  O   UNL     1      40.947 -14.907   4.734  1.00  0.00    -0.271 OA
BRANCH   8  11
HETATM   11  C   UNL     1      43.381 -16.284   3.747  1.00  0.00     0.046 A 
HETATM   12  C   UNL     1      43.165 -16.862   2.471  1.00  0.00    -0.034 A 
HETATM   13  C   UNL     1      43.331 -18.248   2.294  1.00  0.00     0.015 A 
HETATM   14  C   UNL     1      42.713 -16.052   1.282  1.00  0.00     0.050 C 
HETATM   15  C   UNL     1      43.725 -19.067   3.350  1.00  0.00    -0.061 A 
HETATM   16  C   UNL     1      43.862 -20.549   3.176  1.00  0.00     0.048 C 
HETATM   17  C   UNL     1      44.000 -18.479   4.587  1.00  0.00     0.015 A 
HETATM   18  C   UNL     1      43.872 -17.091   4.792  1.00  0.00    -0.034 A 
HETATM   19  C   UNL     1      44.342 -16.568   6.124  1.00  0.00     0.050 C 
ENDBRANCH   8  11
ENDBRANCH   6   7
ENDBRANCH   1   6
BRANCH   5  20
HETATM   20  N   UNL     1      42.732 -12.345   7.126  1.00  0.00    -0.382 N 
HETATM   21  H   UNL     1      43.141 -12.980   7.817  1.00  0.00     0.157 HD
HETATM   22  H   UNL     1      41.715 -12.365   7.130  1.00  0.00     0.157 HD
ENDBRANCH   5  20
BRANCH   4  23
HETATM   23  C   UNL     1      45.544 -10.809   7.017  1.00  0.00     0.275 C 
HETATM   24  N   UNL     1      44.867 -10.012   7.907  1.00  0.00    -0.351 N 
HETATM   25  H   UNL     1      43.891  -9.810   7.712  1.00  0.00     0.163 HD
HETATM   26  O   UNL     1      46.738 -11.073   7.117  1.00  0.00    -0.266 OA
BRANCH  24  27
HETATM   27  C   UNL     1      45.481  -9.443   9.078  1.00  0.00     0.161 C 
BRANCH  27  28
HETATM   28  C   UNL     1      44.476  -9.379  10.196  1.00  0.00    -0.040 A 
HETATM   29  C   UNL     1      44.236 -10.511  10.986  1.00  0.00     0.011 A 
HETATM   30  C   UNL     1      43.248 -10.489  11.972  1.00  0.00     0.037 A 
HETATM   31  C   UNL     1      42.481  -9.342  12.184  1.00  0.00     0.068 A 
HETATM   32  C   UNL     1      42.726  -8.206  11.413  1.00  0.00     0.037 A 
HETATM   33  C   UNL     1      43.715  -8.225  10.421  1.00  0.00     0.011 A 
BRANCH  31  34
HETATM   34  O   UNL     1      41.535  -9.462  13.164  1.00  0.00    -0.356 OA
HETATM   35  C   UNL     1      40.388 -10.243  12.855  1.00  0.00     0.210 C 
ENDBRANCH  31  34
ENDBRANCH  27  28
ENDBRANCH  24  27
ENDBRANCH   4  23
TORSDOF 8
ENDMDL
MODEL 3
REMARK VINA RESULT:      -9.2      0.370      1.580
REMARK  8 active torsions:
REMARK  status: ('A' for Active; 'I' for Inactive)
REMARK    1  A    between atoms: C_6  and  N_7 
REMARK       I    between atoms: N_7  and  C_8 
REMARK    2  A    between atoms: C_8  and  C_9 
REMARK    3  A    between atoms: C_9  and  N_10 
REMARK    4  A    between atoms: C_13  and  C_14 
REMARK       I    between atoms: C_14  and  N_15 
REMARK    5  A    between atoms: N_15  and  C_16 
REMARK    6  A    between atoms: C_16  and  C_17 
REMARK    7  A    between atoms: C_20  and  O_21 
REMARK    8  A    between atoms: C_26  and  N_27 
ROOT
HETATM    1  N   UNL     1      42.644 -12.467   6.007  1.00  0.00    -0.248 N 
HETATM    2  N   UNL     1      43.311 -13.453   6.644  1.00  0.00     0.007 NA
HETATM    3  N   UNL     1      44.087 -12.883   7.551  1.00  0.00    -0.150 NA
HETATM    4  C   UNL     1      43.916 -11.515   7.473  1.00  0.00     0.186 A 
HETATM    5  C   UNL     1      42.983 -11.229   6.490  1.00  0.00     0.151 A 
ENDROOT
BRANCH   1   6
HETATM    6  C   UNL     1      41.747 -12.814   4.932  1.00  0.00     0.251 C 
BRANCH   6   7
HETATM    7  C   UNL     1      41.669 -14.310   4.724  1.00  0.00     0.241 C 
HETATM    8  N   UNL     1      42.787 -14.855   4.109  1.00  0.00    -0.325 N 
HETATM    9  H   UNL     1      43.440 -14.181   3.721  1.00  0.00     0.169 HD
HETATM   10  O   UNL     1      40.625 -14.903   4.985  1.00  0.00    -0.271 OA
BRANCH   8  11
HETATM   11  C   UNL     1      42.950 -16.193   3.673  1.00  0.00     0.046 A 
HETATM   12  C   UNL     1      43.743 -17.042   4.486  1.00  0.00    -0.034 A 
HETATM   13  C   UNL     1      44.011 -18.359   4.070  1.00  0.00     0.015 A 
HETATM   14  C   UNL     1      44.362 -16.574   5.780  1.00  0.00     0.050 C 
HETATM   15  C   UNL     1      43.493 -18.856   2.877  1.00  0.00    -0.061 A 
HETATM   16  C   UNL     1      43.811 -20.245   2.410  1.00  0.00     0.048 C 
HETATM   17  C   UNL     1      42.659 -18.036   2.114  1.00  0.00     0.015 A 
HETATM   18  C   UNL     1      42.346 -16.721   2.515  1.00  0.00    -0.034 A 
HETATM   19  C   UNL     1      41.319 -15.999   1.684  1.00  0.00     0.050 C 
ENDBRANCH   8  11
ENDBRANCH   6   7
ENDBRANCH   1   6
BRANCH   5  20
HETATM   20  N   UNL     1      42.475 -10.067   6.023  1.00  0.00    -0.382 N 
HETATM   21  H   UNL     1      42.962  -9.193   6.248  1.00  0.00     0.157 HD
HETATM   22  H   UNL     1      41.494  -9.923   5.797  1.00  0.00     0.157 HD
ENDBRANCH   5  20
BRANCH   4  23
HETATM   23  C   UNL     1      44.649 -10.585   8.323  1.00  0.00     0.275 C 
HETATM   24  N   UNL     1      43.968 -10.262   9.470  1.00  0.00    -0.351 N 
HETATM   25  H   UNL     1      43.031 -10.637   9.584  1.00  0.00     0.163 HD
HETATM   26  O   UNL     1      45.761 -10.146   8.048  1.00  0.00    -0.266 OA
BRANCH  24  27
HETATM   27  C   UNL     1      44.513  -9.410  10.494  1.00  0.00     0.161 C 
BRANCH  27  28
HETATM   28  C   UNL     1      43.501  -9.231  11.594  1.00  0.00    -0.040 A 
HETATM   29  C   UNL     1      43.616  -8.151  12.480  1.00  0.00     0.011 A 
HETATM   30  C   UNL     1      42.733  -8.020  13.554  1.00  0.00     0.037 A 
HETATM   31  C   UNL     1      41.726  -8.963  13.764  1.00  0.00     0.068 A 
HETATM   32  C   UNL     1      41.595 -10.031  12.876  1.00  0.00     0.037 A 
HETATM   33  C   UNL     1      42.481 -10.167  11.800  1.00  0.00     0.011 A 
BRANCH  31  34
HETATM   34  O   UNL     1      40.945  -8.727  14.862  1.00  0.00    -0.356 OA
HETATM   35  C   UNL     1      41.499  -7.899  15.876  1.00  0.00     0.210 C 
ENDBRANCH  31  34
ENDBRANCH  27  28
ENDBRANCH  24  27
ENDBRANCH   4  23
TORSDOF 8
ENDMDL
MODEL 4
REMARK VINA RESULT:      -8.8      5.309      9.522
REMARK  8 active torsions:
REMARK  status: ('A' for Active; 'I' for Inactive)
REMARK    1  A    between atoms: C_6  and  N_7 
REMARK       I    between atoms: N_7  and  C_8 
REMARK    2  A    between atoms: C_8  and  C_9 
REMARK    3  A    between atoms: C_9  and  N_10 
REMARK    4  A    between atoms: C_13  and  C_14 
REMARK       I    between atoms: C_14  and  N_15 
REMARK    5  A    between atoms: N_15  and  C_16 
REMARK    6  A    between atoms: C_16  and  C_17 
REMARK    7  A    between atoms: C_20  and  O_21 
REMARK    8  A    between atoms: C_26  and  N_27 
ROOT
HETATM    1  N   UNL     1      42.169 -12.247   4.490  1.00  0.00    -0.248 N 
HETATM    2  N   UNL     1      43.315 -11.882   3.877  1.00  0.00     0.007 NA
HETATM    3  N   UNL     1      42.983 -11.169   2.812  1.00  0.00    -0.150 NA
HETATM    4  C   UNL     1      41.606 -11.096   2.748  1.00  0.00     0.186 A 
HETATM    5  C   UNL     1      41.065 -11.777   3.826  1.00  0.00     0.151 A 
ENDROOT
BRANCH   1   6
HETATM    6  C   UNL     1      42.244 -13.073   5.670  1.00  0.00     0.251 C 
BRANCH   6   7
HETATM    7  C   UNL     1      42.120 -14.543   5.338  1.00  0.00     0.241 C 
HETATM    8  N   UNL     1      43.093 -15.011   4.467  1.00  0.00    -0.325 N 
HETATM    9  H   UNL     1      43.660 -14.294   4.025  1.00  0.00     0.169 HD
HETATM   10  O   UNL     1      41.145 -15.173   5.741  1.00  0.00    -0.271 OA
BRANCH   8  11
HETATM   11  C   UNL     1      43.162 -16.299   3.881  1.00  0.00     0.046 A 
HETATM   12  C   UNL     1      43.886 -17.290   4.590  1.00  0.00    -0.034 A 
HETATM   13  C   UNL     1      44.061 -18.567   4.026  1.00  0.00     0.015 A 
HETATM   14  C   UNL     1      44.529 -17.019   5.928  1.00  0.00     0.050 C 
HETATM   15  C   UNL     1      43.516 -18.886   2.785  1.00  0.00    -0.061 A 
HETATM   16  C   UNL     1      43.735 -20.232   2.163  1.00  0.00     0.048 C 
HETATM   17  C   UNL     1      42.748 -17.926   2.123  1.00  0.00     0.015 A 
HETATM   18  C   UNL     1      42.528 -16.646   2.672  1.00  0.00    -0.034 A 
HETATM   19  C   UNL     1      41.562 -15.761   1.930  1.00  0.00     0.050 C 
ENDBRANCH   8  11
ENDBRANCH   6   7
ENDBRANCH   1   6
BRANCH   5  20
HETATM   20  N   UNL     1      39.791 -12.007   4.215  1.00  0.00    -0.382 N 
HETATM   21  H   UNL     1      39.315 -11.299   4.781  1.00  0.00     0.157 HD
HETATM   22  H   UNL     1      39.387 -12.934   4.326  1.00  0.00     0.157 HD
ENDBRANCH   5  20
BRANCH   4  23
HETATM   23  C   UNL     1      40.909 -10.400   1.676  1.00  0.00     0.275 C 
HETATM   24  N   UNL     1      41.628 -10.365   0.507  1.00  0.00    -0.351 N 
HETATM   25  H   UNL     1      42.565 -10.756   0.518  1.00  0.00     0.163 HD
HETATM   26  O   UNL     1      39.792  -9.906   1.799  1.00  0.00    -0.266 OA
BRANCH  24  27
HETATM   27  C   UNL     1      41.123  -9.786  -0.710  1.00  0.00     0.161 C 
BRANCH  27  28
HETATM   28  C   UNL     1      40.556 -10.869  -1.589  1.00  0.00    -0.040 A 
HETATM   29  C   UNL     1      39.171 -11.068  -1.647  1.00  0.00     0.011 A 
HETATM   30  C   UNL     1      38.638 -12.121  -2.393  1.00  0.00     0.037 A 
HETATM   31  C   UNL     1      39.476 -12.993  -3.089  1.00  0.00     0.068 A 
HETATM   32  C   UNL     1      40.855 -12.791  -3.050  1.00  0.00     0.037 A 
HETATM   33  C   UNL     1      41.393 -11.737  -2.300  1.00  0.00     0.011 A 
BRANCH  31  34
HETATM   34  O   UNL     1      38.827 -13.992  -3.761  1.00  0.00    -0.356 OA
HETATM   35  C   UNL     1      38.436 -15.127  -3.000  1.00  0.00     0.210 C 
ENDBRANCH  31  34
ENDBRANCH  27  28
ENDBRANCH  24  27
ENDBRANCH   4  23
TORSDOF 8
ENDMDL
MODEL 5
REMARK VINA RESULT:      -8.6      5.448      9.311
REMARK  8 active torsions:
REMARK  status: ('A' for Active; 'I' for Inactive)
REMARK    1  A    between atoms: C_6  and  N_7 
REMARK       I    between atoms: N_7  and  C_8 
REMARK    2  A    between atoms: C_8  and  C_9 
REMARK    3  A    between atoms: C_9  and  N_10 
REMARK    4  A    between atoms: C_13  and  C_14 
REMARK       I    between atoms: C_14  and  N_15 
REMARK    5  A    between atoms: N_15  and  C_16 
REMARK    6  A    between atoms: C_16  and  C_17 
REMARK    7  A    between atoms: C_20  and  O_21 
REMARK    8  A    between atoms: C_26  and  N_27 
ROOT
HETATM    1  N   UNL     1      40.958 -12.879   5.310  1.00  0.00    -0.248 N 
HETATM    2  N   UNL     1      42.108 -12.192   5.475  1.00  0.00     0.007 NA
HETATM    3  N   UNL     1      42.236 -11.382   4.436  1.00  0.00    -0.150 NA
HETATM    4  C   UNL     1      41.156 -11.574   3.598  1.00  0.00     0.186 A 
HETATM    5  C   UNL     1      40.317 -12.528   4.149  1.00  0.00     0.151 A 
ENDROOT
BRANCH   1   6
HETATM    6  C   UNL     1      40.591 -13.870   6.292  1.00  0.00     0.251 C 
BRANCH   6   7
HETATM    7  C   UNL     1      41.059 -15.254   5.899  1.00  0.00     0.241 C 
HETATM    8  N   UNL     1      42.026 -15.264   4.904  1.00  0.00    -0.325 N 
HETATM    9  H   UNL     1      42.180 -14.373   4.441  1.00  0.00     0.169 HD
HETATM   10  O   UNL     1      40.497 -16.238   6.373  1.00  0.00    -0.271 OA
BRANCH   8  11
HETATM   11  C   UNL     1      42.559 -16.400   4.248  1.00  0.00     0.046 A 
HETATM   12  C   UNL     1      42.040 -16.705   2.965  1.00  0.00    -0.034 A 
HETATM   13  C   UNL     1      42.468 -17.865   2.294  1.00  0.00     0.015 A 
HETATM   14  C   UNL     1      40.995 -15.850   2.292  1.00  0.00     0.050 C 
HETATM   15  C   UNL     1      43.415 -18.716   2.860  1.00  0.00    -0.061 A 
HETATM   16  C   UNL     1      43.842 -19.974   2.167  1.00  0.00     0.048 C 
HETATM   17  C   UNL     1      43.970 -18.374   4.095  1.00  0.00     0.015 A 
HETATM   18  C   UNL     1      43.585 -17.205   4.782  1.00  0.00    -0.034 A 
HETATM   19  C   UNL     1      44.366 -16.877   6.027  1.00  0.00     0.050 C 
ENDBRANCH   8  11
ENDBRANCH   6   7
ENDBRANCH   1   6
BRANCH   5  20
HETATM   20  N   UNL     1      39.152 -13.071   3.730  1.00  0.00    -0.382 N 
HETATM   21  H   UNL     1      39.150 -13.624   2.868  1.00  0.00     0.157 HD
HETATM   22  H   UNL     1      38.234 -12.697   3.958  1.00  0.00     0.157 HD
ENDBRANCH   5  20
BRANCH   4  23
HETATM   23  C   UNL     1      41.003 -10.851   2.343  1.00  0.00     0.275 C 
HETATM   24  N   UNL     1      41.364 -11.598   1.250  1.00  0.00    -0.351 N 
HETATM   25  H   UNL     1      41.747 -12.523   1.416  1.00  0.00     0.163 HD
HETATM   26  O   UNL     1      40.584  -9.699   2.268  1.00  0.00    -0.266 OA
BRANCH  24  27
HETATM   27  C   UNL     1      41.243 -11.122  -0.104  1.00  0.00     0.161 C 
BRANCH  27  28
HETATM   28  C   UNL     1      40.496 -12.133  -0.931  1.00  0.00    -0.040 A 
HETATM   29  C   UNL     1      40.226 -13.404  -0.405  1.00  0.00     0.011 A 
HETATM   30  C   UNL     1      39.607 -14.377  -1.191  1.00  0.00     0.037 A 
HETATM   31  C   UNL     1      39.251 -14.103  -2.513  1.00  0.00     0.068 A 
HETATM   32  C   UNL     1      39.501 -12.835  -3.037  1.00  0.00     0.037 A 
HETATM   33  C   UNL     1      40.125 -11.857  -2.252  1.00  0.00     0.011 A 
BRANCH  31  34
HETATM   34  O   UNL     1      38.672 -15.150  -3.176  1.00  0.00    -0.356 OA
HETATM   35  C   UNL     1      37.862 -14.827  -4.299  1.00  0.00     0.210 C 
ENDBRANCH  31  34
ENDBRANCH  27  28
ENDBRANCH  24  27
ENDBRANCH   4  23
TORSDOF 8
ENDMDL
MODEL 6
REMARK VINA RESULT:      -8.4      5.610      9.459
REMARK  8 active torsions:
REMARK  status: ('A' for Active; 'I' for Inactive)
REMARK    1  A    between atoms: C_6  and  N_7 
REMARK       I    between atoms: N_7  and  C_8 
REMARK    2  A    between atoms: C_8  and  C_9 
REMARK    3  A    between atoms: C_9  and  N_10 
REMARK    4  A    between atoms: C_13  and  C_14 
REMARK       I    between atoms: C_14  and  N_15 
REMARK    5  A    between atoms: N_15  and  C_16 
REMARK    6  A    between atoms: C_16  and  C_17 
REMARK    7  A    between atoms: C_20  and  O_21 
REMARK    8  A    between atoms: C_26  and  N_27 
ROOT
HETATM    1  N   UNL     1      41.436 -12.614   4.043  1.00  0.00    -0.248 N 
HETATM    2  N   UNL     1      42.510 -11.960   3.550  1.00  0.00     0.007 NA
HETATM    3  N   UNL     1      42.180 -11.509   2.350  1.00  0.00    -0.150 NA
HETATM    4  C   UNL     1      40.883 -11.898   2.079  1.00  0.00     0.186 A 
HETATM    5  C   UNL     1      40.384 -12.603   3.162  1.00  0.00     0.151 A 
ENDROOT
BRANCH   1   6
HETATM    6  C   UNL     1      41.537 -13.243   5.337  1.00  0.00     0.251 C 
BRANCH   6   7
HETATM    7  C   UNL     1      41.774 -14.732   5.223  1.00  0.00     0.241 C 
HETATM    8  N   UNL     1      42.763 -15.081   4.315  1.00  0.00    -0.325 N 
HETATM    9  H   UNL     1      43.088 -14.327   3.717  1.00  0.00     0.169 HD
HETATM   10  O   UNL     1      41.031 -15.509   5.818  1.00  0.00    -0.271 OA
BRANCH   8  11
HETATM   11  C   UNL     1      43.118 -16.389   3.904  1.00  0.00     0.046 A 
HETATM   12  C   UNL     1      42.661 -16.809   2.629  1.00  0.00    -0.034 A 
HETATM   13  C   UNL     1      42.910 -18.123   2.195  1.00  0.00     0.015 A 
HETATM   14  C   UNL     1      41.867 -15.907   1.718  1.00  0.00     0.050 C 
HETATM   15  C   UNL     1      43.618 -19.023   2.989  1.00  0.00    -0.061 A 
HETATM   16  C   UNL     1      43.848 -20.436   2.547  1.00  0.00     0.048 C 
HETATM   17  C   UNL     1      44.121 -18.582   4.215  1.00  0.00     0.015 A 
HETATM   18  C   UNL     1      43.915 -17.263   4.669  1.00  0.00    -0.034 A 
HETATM   19  C   UNL     1      44.636 -16.874   5.933  1.00  0.00     0.050 C 
ENDBRANCH   8  11
ENDBRANCH   6   7
ENDBRANCH   1   6
BRANCH   5  20
HETATM   20  N   UNL     1      39.192 -13.195   3.395  1.00  0.00    -0.382 N 
HETATM   21  H   UNL     1      38.508 -13.237   2.634  1.00  0.00     0.157 HD
HETATM   22  H   UNL     1      38.763 -13.269   4.314  1.00  0.00     0.157 HD
ENDBRANCH   5  20
BRANCH   4  23
HETATM   23  C   UNL     1      40.220 -11.583   0.821  1.00  0.00     0.275 C 
HETATM   24  N   UNL     1      41.096 -11.464  -0.229  1.00  0.00    -0.351 N 
HETATM   25  H   UNL     1      42.088 -11.542  -0.027  1.00  0.00     0.163 HD
HETATM   26  O   UNL     1      39.005 -11.449   0.708  1.00  0.00    -0.266 OA
BRANCH  24  27
HETATM   27  C   UNL     1      40.673 -11.218  -1.582  1.00  0.00     0.161 C 
BRANCH  27  28
HETATM   28  C   UNL     1      41.250  -9.913  -2.063  1.00  0.00    -0.040 A 
HETATM   29  C   UNL     1      40.918  -9.429  -3.335  1.00  0.00     0.011 A 
HETATM   30  C   UNL     1      41.511  -8.263  -3.825  1.00  0.00     0.037 A 
HETATM   31  C   UNL     1      42.445  -7.565  -3.058  1.00  0.00     0.068 A 
HETATM   32  C   UNL     1      42.768  -8.032  -1.785  1.00  0.00     0.037 A 
HETATM   33  C   UNL     1      42.178  -9.203  -1.291  1.00  0.00     0.011 A 
BRANCH  31  34
HETATM   34  O   UNL     1      42.963  -6.454  -3.665  1.00  0.00    -0.356 OA
HETATM   35  C   UNL     1      42.236  -5.242  -3.510  1.00  0.00     0.210 C 
ENDBRANCH  31  34
ENDBRANCH  27  28
ENDBRANCH  24  27
ENDBRANCH   4  23
TORSDOF 8
ENDMDL
MODEL 7
REMARK VINA RESULT:      -8.1      6.400      9.881
REMARK  8 active torsions:
REMARK  status: ('A' for Active; 'I' for Inactive)
REMARK    1  A    between atoms: C_6  and  N_7 
REMARK       I    between atoms: N_7  and  C_8 
REMARK    2  A    between atoms: C_8  and  C_9 
REMARK    3  A    between atoms: C_9  and  N_10 
REMARK    4  A    between atoms: C_13  and  C_14 
REMARK       I    between atoms: C_14  and  N_15 
REMARK    5  A    between atoms: N_15  and  C_16 
REMARK    6  A    between atoms: C_16  and  C_17 
REMARK    7  A    between atoms: C_20  and  O_21 
REMARK    8  A    between atoms: C_26  and  N_27 
ROOT
HETATM    1  N   UNL     1      40.354 -14.124   2.638  1.00  0.00    -0.248 N 
HETATM    2  N   UNL     1      40.148 -15.321   2.048  1.00  0.00     0.007 NA
HETATM    3  N   UNL     1      39.944 -15.096   0.761  1.00  0.00    -0.150 NA
HETATM    4  C   UNL     1      40.009 -13.735   0.540  1.00  0.00     0.186 A 
HETATM    5  C   UNL     1      40.282 -13.093   1.737  1.00  0.00     0.151 A 
ENDROOT
BRANCH   1   6
HETATM    6  C   UNL     1      40.566 -14.079   4.064  1.00  0.00     0.251 C 
BRANCH   6   7
HETATM    7  C   UNL     1      40.978 -15.425   4.617  1.00  0.00     0.241 C 
HETATM    8  N   UNL     1      42.288 -15.778   4.329  1.00  0.00    -0.325 N 
HETATM    9  H   UNL     1      42.757 -15.187   3.648  1.00  0.00     0.169 HD
HETATM   10  O   UNL     1      40.136 -16.140   5.155  1.00  0.00    -0.271 OA
BRANCH   8  11
HETATM   11  C   UNL     1      42.914 -17.019   4.602  1.00  0.00     0.046 A 
HETATM   12  C   UNL     1      43.340 -17.784   3.487  1.00  0.00    -0.034 A 
HETATM   13  C   UNL     1      43.896 -19.061   3.685  1.00  0.00     0.015 A 
HETATM   14  C   UNL     1      43.181 -17.300   2.067  1.00  0.00     0.050 C 
HETATM   15  C   UNL     1      44.055 -19.586   4.966  1.00  0.00    -0.061 A 
HETATM   16  C   UNL     1      44.608 -20.963   5.178  1.00  0.00     0.048 C 
HETATM   17  C   UNL     1      43.693 -18.800   6.062  1.00  0.00     0.015 A 
HETATM   18  C   UNL     1      43.160 -17.505   5.901  1.00  0.00    -0.034 A 
HETATM   19  C   UNL     1      42.954 -16.709   7.163  1.00  0.00     0.050 C 
ENDBRANCH   8  11
ENDBRANCH   6   7
ENDBRANCH   1   6
BRANCH   5  20
HETATM   20  N   UNL     1      40.435 -11.790   2.060  1.00  0.00    -0.382 N 
HETATM   21  H   UNL     1      40.164 -11.482   2.999  1.00  0.00     0.157 HD
HETATM   22  H   UNL     1      40.436 -11.031   1.384  1.00  0.00     0.157 HD
ENDBRANCH   5  20
BRANCH   4  23
HETATM   23  C   UNL     1      39.802 -13.145  -0.776  1.00  0.00     0.275 C 
HETATM   24  N   UNL     1      40.975 -12.781  -1.387  1.00  0.00    -0.351 N 
HETATM   25  H   UNL     1      41.837 -12.895  -0.862  1.00  0.00     0.163 HD
HETATM   26  O   UNL     1      38.697 -12.998  -1.289  1.00  0.00    -0.266 OA
BRANCH  24  27
HETATM   27  C   UNL     1      41.033 -12.233  -2.717  1.00  0.00     0.161 C 
BRANCH  27  28
HETATM   28  C   UNL     1      41.116 -10.732  -2.643  1.00  0.00    -0.040 A 
HETATM   29  C   UNL     1      40.670  -9.953  -3.719  1.00  0.00     0.011 A 
HETATM   30  C   UNL     1      40.817  -8.565  -3.696  1.00  0.00     0.037 A 
HETATM   31  C   UNL     1      41.415  -7.932  -2.606  1.00  0.00     0.068 A 
HETATM   32  C   UNL     1      41.847  -8.699  -1.524  1.00  0.00     0.037 A 
HETATM   33  C   UNL     1      41.703 -10.092  -1.544  1.00  0.00     0.011 A 
BRANCH  31  34
HETATM   34  O   UNL     1      41.517  -6.572  -2.721  1.00  0.00    -0.356 OA
HETATM   35  C   UNL     1      42.822  -6.042  -2.914  1.00  0.00     0.210 C 
ENDBRANCH  31  34
ENDBRANCH  27  28
ENDBRANCH  24  27
ENDBRANCH   4  23
TORSDOF 8
ENDMDL
MODEL 8
REMARK VINA RESULT:      -8.0      2.007      2.834
REMARK  8 active torsions:
REMARK  status: ('A' for Active; 'I' for Inactive)
REMARK    1  A    between atoms: C_6  and  N_7 
REMARK       I    between atoms: N_7  and  C_8 
REMARK    2  A    between atoms: C_8  and  C_9 
REMARK    3  A    between atoms: C_9  and  N_10 
REMARK    4  A    between atoms: C_13  and  C_14 
REMARK       I    between atoms: C_14  and  N_15 
REMARK    5  A    between atoms: N_15  and  C_16 
REMARK    6  A    between atoms: C_16  and  C_17 
REMARK    7  A    between atoms: C_20  and  O_21 
REMARK    8  A    between atoms: C_26  and  N_27 
ROOT
HETATM    1  N   UNL     1      40.574 -11.097   5.876  1.00  0.00    -0.248 N 
HETATM    2  N   UNL     1      41.440 -10.850   4.870  1.00  0.00     0.007 NA
HETATM    3  N   UNL     1      42.220  -9.853   5.258  1.00  0.00    -0.150 NA
HETATM    4  C   UNL     1      41.829  -9.459   6.522  1.00  0.00     0.186 A 
HETATM    5  C   UNL     1      40.775 -10.256   6.940  1.00  0.00     0.151 A 
ENDROOT
BRANCH   1   6
HETATM    6  C   UNL     1      39.575 -12.123   5.698  1.00  0.00     0.251 C 
BRANCH   6   7
HETATM    7  C   UNL     1      40.190 -13.503   5.632  1.00  0.00     0.241 C 
HETATM    8  N   UNL     1      41.026 -13.699   4.543  1.00  0.00    -0.325 N 
HETATM    9  H   UNL     1      40.996 -12.971   3.836  1.00  0.00     0.169 HD
HETATM   10  O   UNL     1      39.835 -14.362   6.437  1.00  0.00    -0.271 OA
BRANCH   8  11
HETATM   11  C   UNL     1      41.640 -14.914   4.149  1.00  0.00     0.046 A 
HETATM   12  C   UNL     1      42.807 -15.302   4.853  1.00  0.00    -0.034 A 
HETATM   13  C   UNL     1      43.511 -16.456   4.460  1.00  0.00     0.015 A 
HETATM   14  C   UNL     1      43.367 -14.495   5.998  1.00  0.00     0.050 C 
HETATM   15  C   UNL     1      43.069 -17.241   3.398  1.00  0.00    -0.061 A 
HETATM   16  C   UNL     1      43.838 -18.447   2.950  1.00  0.00     0.048 C 
HETATM   17  C   UNL     1      41.882 -16.888   2.752  1.00  0.00     0.015 A 
HETATM   18  C   UNL     1      41.137 -15.756   3.138  1.00  0.00    -0.034 A 
HETATM   19  C   UNL     1      39.804 -15.574   2.462  1.00  0.00     0.050 C 
ENDBRANCH   8  11
ENDBRANCH   6   7
ENDBRANCH   1   6
BRANCH   5  20
HETATM   20  N   UNL     1      40.040 -10.276   8.074  1.00  0.00    -0.382 N 
HETATM   21  H   UNL     1      39.525  -9.431   8.340  1.00  0.00     0.157 HD
HETATM   22  H   UNL     1      40.228 -10.886   8.865  1.00  0.00     0.157 HD
ENDBRANCH   5  20
BRANCH   4  23
HETATM   23  C   UNL     1      42.470  -8.362   7.233  1.00  0.00     0.275 C 
HETATM   24  N   UNL     1      43.300  -8.790   8.238  1.00  0.00    -0.351 N 
HETATM   25  H   UNL     1      43.340  -9.787   8.425  1.00  0.00     0.163 HD
HETATM   26  O   UNL     1      42.296  -7.179   6.956  1.00  0.00    -0.266 OA
BRANCH  24  27
HETATM   27  C   UNL     1      44.091  -7.894   9.041  1.00  0.00     0.161 C 
BRANCH  27  28
HETATM   28  C   UNL     1      43.426  -7.689  10.375  1.00  0.00    -0.040 A 
HETATM   29  C   UNL     1      42.621  -6.563  10.589  1.00  0.00     0.011 A 
HETATM   30  C   UNL     1      42.065  -6.319  11.846  1.00  0.00     0.037 A 
HETATM   31  C   UNL     1      42.307  -7.189  12.911  1.00  0.00     0.068 A 
HETATM   32  C   UNL     1      43.094  -8.321  12.701  1.00  0.00     0.037 A 
HETATM   33  C   UNL     1      43.655  -8.568  11.441  1.00  0.00     0.011 A 
BRANCH  31  34
HETATM   34  O   UNL     1      41.721  -6.822  14.091  1.00  0.00    -0.356 OA
HETATM   35  C   UNL     1      42.491  -7.006  15.272  1.00  0.00     0.210 C 
ENDBRANCH  31  34
ENDBRANCH  27  28
ENDBRANCH  24  27
ENDBRANCH   4  23
TORSDOF 8
ENDMDL
MODEL 9
REMARK VINA RESULT:      -7.9      5.817      9.971
REMARK  8 active torsions:
REMARK  status: ('A' for Active; 'I' for Inactive)
REMARK    1  A    between atoms: C_6  and  N_7 
REMARK       I    between atoms: N_7  and  C_8 
REMARK    2  A    between atoms: C_8  and  C_9 
REMARK    3  A    between atoms: C_9  and  N_10 
REMARK    4  A    between atoms: C_13  and  C_14 
REMARK       I    between atoms: C_14  and  N_15 
REMARK    5  A    between atoms: N_15  and  C_16 
REMARK    6  A    between atoms: C_16  and  C_17 
REMARK    7  A    between atoms: C_20  and  O_21 
REMARK    8  A    between atoms: C_26  and  N_27 
ROOT
HETATM    1  N   UNL     1      41.607 -12.918   3.413  1.00  0.00    -0.248 N 
HETATM    2  N   UNL     1      40.724 -13.737   2.802  1.00  0.00     0.007 NA
HETATM    3  N   UNL     1      40.483 -13.233   1.603  1.00  0.00    -0.150 NA
HETATM    4  C   UNL     1      41.215 -12.071   1.462  1.00  0.00     0.186 A 
HETATM    5  C   UNL     1      41.953 -11.857   2.615  1.00  0.00     0.151 A 
ENDROOT
BRANCH   1   6
HETATM    6  C   UNL     1      42.016 -13.217   4.763  1.00  0.00     0.251 C 
BRANCH   6   7
HETATM    7  C   UNL     1      42.174 -14.704   4.988  1.00  0.00     0.241 C 
HETATM    8  N   UNL     1      43.130 -15.301   4.179  1.00  0.00    -0.325 N 
HETATM    9  H   UNL     1      43.483 -14.719   3.425  1.00  0.00     0.169 HD
HETATM   10  O   UNL     1      41.403 -15.286   5.747  1.00  0.00    -0.271 OA
BRANCH   8  11
HETATM   11  C   UNL     1      43.411 -16.685   4.073  1.00  0.00     0.046 A 
HETATM   12  C   UNL     1      43.228 -17.283   2.801  1.00  0.00    -0.034 A 
HETATM   13  C   UNL     1      43.412 -18.669   2.646  1.00  0.00     0.015 A 
HETATM   14  C   UNL     1      42.793 -16.493   1.592  1.00  0.00     0.050 C 
HETATM   15  C   UNL     1      43.793 -19.469   3.722  1.00  0.00    -0.061 A 
HETATM   16  C   UNL     1      43.949 -20.952   3.570  1.00  0.00     0.048 C 
HETATM   17  C   UNL     1      44.035 -18.863   4.956  1.00  0.00     0.015 A 
HETATM   18  C   UNL     1      43.888 -17.473   5.139  1.00  0.00    -0.034 A 
HETATM   19  C   UNL     1      44.324 -16.928   6.474  1.00  0.00     0.050 C 
ENDBRANCH   8  11
ENDBRANCH   6   7
ENDBRANCH   1   6
BRANCH   5  20
HETATM   20  N   UNL     1      42.808 -10.877   2.983  1.00  0.00    -0.382 N 
HETATM   21  H   UNL     1      43.371 -11.010   3.829  1.00  0.00     0.157 HD
HETATM   22  H   UNL     1      42.690  -9.897   2.740  1.00  0.00     0.157 HD
ENDBRANCH   5  20
BRANCH   4  23
HETATM   23  C   UNL     1      41.158 -11.251   0.260  1.00  0.00     0.275 C 
HETATM   24  N   UNL     1      40.947 -11.989  -0.879  1.00  0.00    -0.351 N 
HETATM   25  H   UNL     1      40.915 -12.999  -0.787  1.00  0.00     0.163 HD
HETATM   26  O   UNL     1      41.275 -10.029   0.263  1.00  0.00    -0.266 OA
BRANCH  24  27
HETATM   27  C   UNL     1      40.793 -11.397  -2.182  1.00  0.00     0.161 C 
BRANCH  27  28
HETATM   28  C   UNL     1      39.333 -11.348  -2.545  1.00  0.00    -0.040 A 
HETATM   29  C   UNL     1      38.773 -10.160  -3.033  1.00  0.00     0.011 A 
HETATM   30  C   UNL     1      37.404 -10.078  -3.295  1.00  0.00     0.037 A 
HETATM   31  C   UNL     1      36.572 -11.176  -3.074  1.00  0.00     0.068 A 
HETATM   32  C   UNL     1      37.125 -12.367  -2.605  1.00  0.00     0.037 A 
HETATM   33  C   UNL     1      38.497 -12.452  -2.337  1.00  0.00     0.011 A 
BRANCH  31  34
HETATM   34  O   UNL     1      35.251 -10.955  -3.351  1.00  0.00    -0.356 OA
HETATM   35  C   UNL     1      34.578 -11.956  -4.104  1.00  0.00     0.210 C 
ENDBRANCH  31  34
ENDBRANCH  27  28
ENDBRANCH  24  27
ENDBRANCH   4  23
TORSDOF 8
ENDMDL
MODEL 10
REMARK VINA RESULT:      -7.8      2.566     10.141
REMARK  8 active torsions:
REMARK  status: ('A' for Active; 'I' for Inactive)
REMARK    1  A    between atoms: C_6  and  N_7 
REMARK       I    between atoms: N_7  and  C_8 
REMARK    2  A    between atoms: C_8  and  C_9 
REMARK    3  A    between atoms: C_9  and  N_10 
REMARK    4  A    between atoms: C_13  and  C_14 
REMARK       I    between atoms: C_14  and  N_15 
REMARK    5  A    between atoms: N_15  and  C_16 
REMARK    6  A    between atoms: C_16  and  C_17 
REMARK    7  A    between atoms: C_20  and  O_21 
REMARK    8  A    between atoms: C_26  and  N_27 
ROOT
HETATM    1  N   UNL     1      40.223 -10.832   5.962  1.00  0.00    -0.248 N 
HETATM    2  N   UNL     1      39.993 -12.097   6.375  1.00  0.00     0.007 NA
HETATM    3  N   UNL     1      40.773 -12.893   5.661  1.00  0.00    -0.150 NA
HETATM    4  C   UNL     1      41.494 -12.117   4.775  1.00  0.00     0.186 A 
HETATM    5  C   UNL     1      41.159 -10.786   4.961  1.00  0.00     0.151 A 
ENDROOT
BRANCH   1   6
HETATM    6  C   UNL     1      39.467  -9.758   6.558  1.00  0.00     0.251 C 
BRANCH   6   7
HETATM    7  C   UNL     1      40.284  -8.987   7.571  1.00  0.00     0.241 C 
HETATM    8  N   UNL     1      40.851  -9.777   8.560  1.00  0.00    -0.325 N 
HETATM    9  H   UNL     1      40.519 -10.736   8.592  1.00  0.00     0.169 HD
HETATM   10  O   UNL     1      40.295  -7.759   7.529  1.00  0.00    -0.271 OA
BRANCH   8  11
HETATM   11  C   UNL     1      41.557  -9.330   9.704  1.00  0.00     0.046 A 
HETATM   12  C   UNL     1      40.892  -9.435  10.951  1.00  0.00    -0.034 A 
HETATM   13  C   UNL     1      41.505  -8.936  12.115  1.00  0.00     0.015 A 
HETATM   14  C   UNL     1      39.512 -10.028  11.084  1.00  0.00     0.050 C 
HETATM   15  C   UNL     1      42.770  -8.354  12.070  1.00  0.00    -0.061 A 
HETATM   16  C   UNL     1      43.408  -7.784  13.301  1.00  0.00     0.048 C 
HETATM   17  C   UNL     1      43.446  -8.314  10.848  1.00  0.00     0.015 A 
HETATM   18  C   UNL     1      42.874  -8.830   9.668  1.00  0.00    -0.034 A 
HETATM   19  C   UNL     1      43.765  -8.861   8.455  1.00  0.00     0.050 C 
ENDBRANCH   8  11
ENDBRANCH   6   7
ENDBRANCH   1   6
BRANCH   5  20
HETATM   20  N   UNL     1      41.567  -9.648   4.356  1.00  0.00    -0.382 N 
HETATM   21  H   UNL     1      41.282  -8.750   4.757  1.00  0.00     0.157 HD
HETATM   22  H   UNL     1      41.802  -9.581   3.369  1.00  0.00     0.157 HD
ENDBRANCH   5  20
BRANCH   4  23
HETATM   23  C   UNL     1      42.433 -12.688   3.820  1.00  0.00     0.275 C 
HETATM   24  N   UNL     1      42.091 -13.960   3.431  1.00  0.00    -0.351 N 
HETATM   25  H   UNL     1      41.284 -14.388   3.875  1.00  0.00     0.163 HD
HETATM   26  O   UNL     1      43.420 -12.094   3.397  1.00  0.00    -0.266 OA
BRANCH  24  27
HETATM   27  C   UNL     1      42.831 -14.708   2.449  1.00  0.00     0.161 C 
BRANCH  27  28
HETATM   28  C   UNL     1      43.275 -16.019   3.041  1.00  0.00    -0.040 A 
HETATM   29  C   UNL     1      43.330 -17.166   2.238  1.00  0.00     0.011 A 
HETATM   30  C   UNL     1      43.661 -18.403   2.794  1.00  0.00     0.037 A 
HETATM   31  C   UNL     1      43.939 -18.518   4.157  1.00  0.00     0.068 A 
HETATM   32  C   UNL     1      43.903 -17.378   4.959  1.00  0.00     0.037 A 
HETATM   33  C   UNL     1      43.569 -16.136   4.406  1.00  0.00     0.011 A 
BRANCH  31  34
HETATM   34  O   UNL     1      44.228 -19.788   4.574  1.00  0.00    -0.356 OA
HETATM   35  C   UNL     1      43.683 -20.191   5.824  1.00  0.00     0.210 C 
ENDBRANCH  31  34
ENDBRANCH  27  28
ENDBRANCH  24  27
ENDBRANCH   4  23
TORSDOF 8
ENDMDL
