MODEL 1
REMARK VINA RESULT:      -9.9      0.000      0.000
REMARK  4 active torsions:
REMARK  status: ('A' for Active; 'I' for Inactive)
REMARK       I    between atoms: C_2  and  N_3 
REMARK    1  A    between atoms: C_2  and  C_21 
REMARK    2  A    between atoms: N_3  and  C_4 
REMARK    3  A    between atoms: C_7  and  C_10 
REMARK    4  A    between atoms: C_24  and  N_27 
ROOT
HETATM    1  C   UNL     1      43.186 -13.678   6.536  1.00  0.00     0.035 A 
HETATM    2  C   UNL     1      42.441 -13.732   5.355  1.00  0.00     0.030 A 
HETATM    3  C   UNL     1      42.497 -14.862   4.531  1.00  0.00     0.016 A 
HETATM    4  C   UNL     1      43.286 -15.954   4.895  1.00  0.00    -0.005 A 
HETATM    5  C   UNL     1      44.048 -15.907   6.065  1.00  0.00     0.016 A 
HETATM    6  C   UNL     1      43.988 -14.775   6.884  1.00  0.00     0.030 A 
ENDROOT
BRANCH   1   7
HETATM    7  N   UNL     1      43.193 -12.573   7.414  1.00  0.00    -0.323 N 
HETATM    8  C   UNL     1      44.182 -11.615   7.553  1.00  0.00     0.256 C 
HETATM    9  O   UNL     1      45.255 -11.576   6.964  1.00  0.00    -0.267 OA
HETATM   10  H   UNL     1      42.419 -12.525   8.064  1.00  0.00     0.169 HD
BRANCH   8  11
HETATM   11  C   UNL     1      43.892 -10.558   8.564  1.00  0.00     0.032 A 
HETATM   12  C   UNL     1      42.819  -9.677   8.429  1.00  0.00     0.019 A 
HETATM   13  C   UNL     1      42.581  -8.712   9.417  1.00  0.00     0.030 A 
HETATM   14  C   UNL     1      43.401  -8.576  10.552  1.00  0.00     0.030 A 
HETATM   15  C   UNL     1      44.475  -9.474  10.654  1.00  0.00     0.030 A 
HETATM   16  C   UNL     1      44.729 -10.443   9.673  1.00  0.00     0.019 A 
BRANCH  14  17
HETATM   17  N   UNL     1      43.106  -7.626  11.526  1.00  0.00    -0.381 N 
HETATM   18  C   UNL     1      41.946  -6.731  11.395  1.00  0.00     0.123 C 
HETATM   19  C   UNL     1      40.733  -7.300  12.130  1.00  0.00     0.020 C 
HETATM   20  C   UNL     1      41.070  -7.620  13.586  1.00  0.00     0.003 C 
HETATM   21  C   UNL     1      42.306  -8.511  13.680  1.00  0.00     0.020 C 
HETATM   22  C   UNL     1      43.488  -7.902  12.922  1.00  0.00     0.123 C 
ENDBRANCH  14  17
ENDBRANCH   8  11
ENDBRANCH   1   7
BRANCH   4  23
HETATM   23  C   UNL     1      43.370 -17.123   3.984  1.00  0.00     0.098 A 
HETATM   24  N   UNL     1      43.285 -16.876   2.710  1.00  0.00    -0.170 NA
HETATM   25  N   UNL     1      43.411 -17.909   1.837  1.00  0.00    -0.242 N 
HETATM   26  C   UNL     1      43.671 -19.216   2.165  1.00  0.00     0.272 A 
HETATM   27  H   UNL     1      43.363 -17.676   0.851  1.00  0.00     0.192 HD
HETATM   28  O   UNL     1      43.832 -20.089   1.318  1.00  0.00    -0.266 OA
HETATM   29  C   UNL     1      43.729 -19.524   3.603  1.00  0.00     0.046 A 
HETATM   30  C   UNL     1      43.925 -20.843   4.031  1.00  0.00     0.018 A 
HETATM   31  C   UNL     1      43.553 -18.495   4.526  1.00  0.00     0.011 A 
HETATM   32  C   UNL     1      43.928 -21.136   5.394  1.00  0.00     0.001 A 
HETATM   33  C   UNL     1      43.722 -20.116   6.322  1.00  0.00     0.001 A 
HETATM   34  C   UNL     1      43.527 -18.799   5.893  1.00  0.00     0.015 A 
ENDBRANCH   4  23
TORSDOF 4
ENDMDL
MODEL 2
REMARK VINA RESULT:      -9.7      7.625     10.926
REMARK  4 active torsions:
REMARK  status: ('A' for Active; 'I' for Inactive)
REMARK       I    between atoms: C_2  and  N_3 
REMARK    1  A    between atoms: C_2  and  C_21 
REMARK    2  A    between atoms: N_3  and  C_4 
REMARK    3  A    between atoms: C_7  and  C_10 
REMARK    4  A    between atoms: C_24  and  N_27 
ROOT
HETATM    1  C   UNL     1      40.016 -13.596   0.970  1.00  0.00     0.035 A 
HETATM    2  C   UNL     1      41.381 -13.298   0.994  1.00  0.00     0.030 A 
HETATM    3  C   UNL     1      42.220 -13.886   1.948  1.00  0.00     0.016 A 
HETATM    4  C   UNL     1      41.699 -14.790   2.874  1.00  0.00    -0.005 A 
HETATM    5  C   UNL     1      40.334 -15.084   2.872  1.00  0.00     0.016 A 
HETATM    6  C   UNL     1      39.501 -14.494   1.916  1.00  0.00     0.030 A 
ENDROOT
BRANCH   1   7
HETATM    7  N   UNL     1      39.103 -13.038   0.050  1.00  0.00    -0.323 N 
HETATM    8  C   UNL     1      38.998 -13.312  -1.303  1.00  0.00     0.256 C 
HETATM    9  O   UNL     1      39.710 -14.062  -1.959  1.00  0.00    -0.267 OA
HETATM   10  H   UNL     1      38.512 -12.301   0.412  1.00  0.00     0.169 HD
BRANCH   8  11
HETATM   11  C   UNL     1      37.919 -12.565  -2.010  1.00  0.00     0.032 A 
HETATM   12  C   UNL     1      36.953 -13.210  -2.782  1.00  0.00     0.019 A 
HETATM   13  C   UNL     1      35.950 -12.462  -3.414  1.00  0.00     0.030 A 
HETATM   14  C   UNL     1      35.882 -11.061  -3.318  1.00  0.00     0.030 A 
HETATM   15  C   UNL     1      36.872 -10.441  -2.539  1.00  0.00     0.030 A 
HETATM   16  C   UNL     1      37.884 -11.175  -1.904  1.00  0.00     0.019 A 
BRANCH  14  17
HETATM   17  N   UNL     1      34.847 -10.360  -3.934  1.00  0.00    -0.381 N 
HETATM   18  C   UNL     1      33.596 -11.029  -4.321  1.00  0.00     0.123 C 
HETATM   19  C   UNL     1      32.537 -10.876  -3.230  1.00  0.00     0.020 C 
HETATM   20  C   UNL     1      32.331  -9.407  -2.863  1.00  0.00     0.003 C 
HETATM   21  C   UNL     1      33.659  -8.738  -2.514  1.00  0.00     0.020 C 
HETATM   22  C   UNL     1      34.686  -8.927  -3.632  1.00  0.00     0.123 C 
ENDBRANCH  14  17
ENDBRANCH   8  11
ENDBRANCH   1   7
BRANCH   4  23
HETATM   23  C   UNL     1      42.596 -15.365   3.908  1.00  0.00     0.098 A 
HETATM   24  N   UNL     1      42.879 -14.603   4.922  1.00  0.00    -0.170 NA
HETATM   25  N   UNL     1      43.652 -15.107   5.919  1.00  0.00    -0.242 N 
HETATM   26  C   UNL     1      44.142 -16.387   5.993  1.00  0.00     0.272 A 
HETATM   27  H   UNL     1      43.833 -14.492   6.706  1.00  0.00     0.192 HD
HETATM   28  O   UNL     1      44.785 -16.792   6.956  1.00  0.00    -0.266 OA
HETATM   29  C   UNL     1      43.867 -17.253   4.835  1.00  0.00     0.046 A 
HETATM   30  C   UNL     1      44.382 -18.554   4.794  1.00  0.00     0.018 A 
HETATM   31  C   UNL     1      43.119 -16.749   3.772  1.00  0.00     0.011 A 
HETATM   32  C   UNL     1      44.162 -19.352   3.672  1.00  0.00     0.001 A 
HETATM   33  C   UNL     1      43.441 -18.844   2.592  1.00  0.00     0.001 A 
HETATM   34  C   UNL     1      42.926 -17.544   2.635  1.00  0.00     0.015 A 
ENDBRANCH   4  23
TORSDOF 4
ENDMDL
MODEL 3
REMARK VINA RESULT:      -9.5      7.222     10.000
REMARK  4 active torsions:
REMARK  status: ('A' for Active; 'I' for Inactive)
REMARK       I    between atoms: C_2  and  N_3 
REMARK    1  A    between atoms: C_2  and  C_21 
REMARK    2  A    between atoms: N_3  and  C_4 
REMARK    3  A    between atoms: C_7  and  C_10 
REMARK    4  A    between atoms: C_24  and  N_27 
ROOT
HETATM    1  C   UNL     1      41.353 -14.338   1.290  1.00  0.00     0.035 A 
HETATM    2  C   UNL     1      40.450 -15.068   2.066  1.00  0.00     0.030 A 
HETATM    3  C   UNL     1      40.909 -15.938   3.063  1.00  0.00     0.016 A 
HETATM    4  C   UNL     1      42.278 -16.066   3.300  1.00  0.00    -0.005 A 
HETATM    5  C   UNL     1      43.193 -15.354   2.521  1.00  0.00     0.016 A 
HETATM    6  C   UNL     1      42.728 -14.488   1.527  1.00  0.00     0.030 A 
ENDROOT
BRANCH   1   7
HETATM    7  N   UNL     1      40.972 -13.452   0.260  1.00  0.00    -0.323 N 
HETATM    8  C   UNL     1      40.100 -13.701  -0.785  1.00  0.00     0.256 C 
HETATM    9  O   UNL     1      39.531 -14.757  -1.032  1.00  0.00    -0.267 OA
HETATM   10  H   UNL     1      41.451 -12.560   0.250  1.00  0.00     0.169 HD
BRANCH   8  11
HETATM   11  C   UNL     1      39.890 -12.552  -1.712  1.00  0.00     0.032 A 
HETATM   12  C   UNL     1      38.616 -12.095  -2.049  1.00  0.00     0.019 A 
HETATM   13  C   UNL     1      38.474 -11.000  -2.913  1.00  0.00     0.030 A 
HETATM   14  C   UNL     1      39.578 -10.341  -3.482  1.00  0.00     0.030 A 
HETATM   15  C   UNL     1      40.846 -10.830  -3.128  1.00  0.00     0.030 A 
HETATM   16  C   UNL     1      41.005 -11.926  -2.268  1.00  0.00     0.019 A 
BRANCH  14  17
HETATM   17  N   UNL     1      39.392  -9.234  -4.308  1.00  0.00    -0.381 N 
HETATM   18  C   UNL     1      38.243  -8.333  -4.130  1.00  0.00     0.123 C 
HETATM   19  C   UNL     1      38.621  -7.137  -3.258  1.00  0.00     0.020 C 
HETATM   20  C   UNL     1      39.853  -6.420  -3.807  1.00  0.00     0.003 C 
HETATM   21  C   UNL     1      41.006  -7.398  -4.022  1.00  0.00     0.020 C 
HETATM   22  C   UNL     1      40.575  -8.581  -4.892  1.00  0.00     0.123 C 
ENDBRANCH  14  17
ENDBRANCH   8  11
ENDBRANCH   1   7
BRANCH   4  23
HETATM   23  C   UNL     1      42.747 -17.028   4.329  1.00  0.00     0.098 A 
HETATM   24  N   UNL     1      42.719 -16.621   5.563  1.00  0.00    -0.170 NA
HETATM   25  N   UNL     1      43.088 -17.487   6.543  1.00  0.00    -0.242 N 
HETATM   26  C   UNL     1      43.453 -18.798   6.367  1.00  0.00     0.272 A 
HETATM   27  H   UNL     1      43.031 -17.143   7.496  1.00  0.00     0.192 HD
HETATM   28  O   UNL     1      43.716 -19.541   7.306  1.00  0.00    -0.266 OA
HETATM   29  C   UNL     1      43.531 -19.266   4.973  1.00  0.00     0.046 A 
HETATM   30  C   UNL     1      43.959 -20.571   4.694  1.00  0.00     0.018 A 
HETATM   31  C   UNL     1      43.208 -18.387   3.942  1.00  0.00     0.011 A 
HETATM   32  C   UNL     1      44.080 -20.992   3.371  1.00  0.00     0.001 A 
HETATM   33  C   UNL     1      43.788 -20.107   2.333  1.00  0.00     0.001 A 
HETATM   34  C   UNL     1      43.361 -18.805   2.613  1.00  0.00     0.015 A 
ENDBRANCH   4  23
TORSDOF 4
ENDMDL
MODEL 4
REMARK VINA RESULT:      -9.4      2.188      3.433
REMARK  4 active torsions:
REMARK  status: ('A' for Active; 'I' for Inactive)
REMARK       I    between atoms: C_2  and  N_3 
REMARK    1  A    between atoms: C_2  and  C_21 
REMARK    2  A    between atoms: N_3  and  C_4 
REMARK    3  A    between atoms: C_7  and  C_10 
REMARK    4  A    between atoms: C_24  and  N_27 
ROOT
HETATM    1  C   UNL     1      43.056 -10.867   7.762  1.00  0.00     0.035 A 
HETATM    2  C   UNL     1      44.185 -11.641   7.483  1.00  0.00     0.030 A 
HETATM    3  C   UNL     1      44.206 -12.493   6.373  1.00  0.00     0.016 A 
HETATM    4  C   UNL     1      43.100 -12.562   5.524  1.00  0.00    -0.005 A 
HETATM    5  C   UNL     1      41.959 -11.806   5.801  1.00  0.00     0.016 A 
HETATM    6  C   UNL     1      41.944 -10.957   6.911  1.00  0.00     0.030 A 
ENDROOT
BRANCH   1   7
HETATM    7  N   UNL     1      42.952  -9.994   8.866  1.00  0.00    -0.323 N 
HETATM    8  C   UNL     1      43.516  -8.738   9.003  1.00  0.00     0.256 C 
HETATM    9  O   UNL     1      44.249  -8.171   8.201  1.00  0.00    -0.267 OA
HETATM   10  H   UNL     1      42.470 -10.366   9.675  1.00  0.00     0.169 HD
BRANCH   8  11
HETATM   11  C   UNL     1      43.213  -8.052  10.291  1.00  0.00     0.032 A 
HETATM   12  C   UNL     1      42.583  -6.809  10.339  1.00  0.00     0.019 A 
HETATM   13  C   UNL     1      42.306  -6.214  11.577  1.00  0.00     0.030 A 
HETATM   14  C   UNL     1      42.658  -6.817  12.798  1.00  0.00     0.030 A 
HETATM   15  C   UNL     1      43.297  -8.064  12.715  1.00  0.00     0.030 A 
HETATM   16  C   UNL     1      43.584  -8.671  11.484  1.00  0.00     0.019 A 
BRANCH  14  17
HETATM   17  N   UNL     1      42.332  -6.206  14.007  1.00  0.00    -0.381 N 
HETATM   18  C   UNL     1      41.249  -5.215  14.095  1.00  0.00     0.123 C 
HETATM   19  C   UNL     1      39.938  -5.878  14.516  1.00  0.00     0.020 C 
HETATM   20  C   UNL     1      40.113  -6.676  15.808  1.00  0.00     0.003 C 
HETATM   21  C   UNL     1      41.276  -7.659  15.691  1.00  0.00     0.020 C 
HETATM   22  C   UNL     1      42.561  -6.949  15.258  1.00  0.00     0.123 C 
ENDBRANCH  14  17
ENDBRANCH   8  11
ENDBRANCH   1   7
BRANCH   4  23
HETATM   23  C   UNL     1      43.124 -13.507   4.380  1.00  0.00     0.098 A 
HETATM   24  N   UNL     1      43.154 -12.981   3.191  1.00  0.00    -0.170 NA
HETATM   25  N   UNL     1      43.231 -13.808   2.115  1.00  0.00    -0.242 N 
HETATM   26  C   UNL     1      43.329 -15.176   2.154  1.00  0.00     0.272 A 
HETATM   27  H   UNL     1      43.277 -13.363   1.205  1.00  0.00     0.192 HD
HETATM   28  O   UNL     1      43.456 -15.857   1.141  1.00  0.00    -0.266 OA
HETATM   29  C   UNL     1      43.254 -15.793   3.488  1.00  0.00     0.046 A 
HETATM   30  C   UNL     1      43.281 -17.187   3.619  1.00  0.00     0.018 A 
HETATM   31  C   UNL     1      43.124 -14.975   4.609  1.00  0.00     0.011 A 
HETATM   32  C   UNL     1      43.158 -17.767   4.881  1.00  0.00     0.001 A 
HETATM   33  C   UNL     1      42.996 -16.956   6.004  1.00  0.00     0.001 A 
HETATM   34  C   UNL     1      42.971 -15.564   5.871  1.00  0.00     0.015 A 
ENDBRANCH   4  23
TORSDOF 4
ENDMDL
MODEL 5
REMARK VINA RESULT:      -9.3      7.219     10.171
REMARK  4 active torsions:
REMARK  status: ('A' for Active; 'I' for Inactive)
REMARK       I    between atoms: C_2  and  N_3 
REMARK    1  A    between atoms: C_2  and  C_21 
REMARK    2  A    between atoms: N_3  and  C_4 
REMARK    3  A    between atoms: C_7  and  C_10 
REMARK    4  A    between atoms: C_24  and  N_27 
ROOT
HETATM    1  C   UNL     1      40.209 -14.364   0.901  1.00  0.00     0.035 A 
HETATM    2  C   UNL     1      41.575 -14.147   1.099  1.00  0.00     0.030 A 
HETATM    3  C   UNL     1      42.352 -15.089   1.784  1.00  0.00     0.016 A 
HETATM    4  C   UNL     1      41.768 -16.263   2.260  1.00  0.00    -0.005 A 
HETATM    5  C   UNL     1      40.400 -16.485   2.084  1.00  0.00     0.016 A 
HETATM    6  C   UNL     1      39.629 -15.541   1.398  1.00  0.00     0.030 A 
ENDROOT
BRANCH   1   7
HETATM    7  N   UNL     1      39.356 -13.460   0.233  1.00  0.00    -0.323 N 
HETATM    8  C   UNL     1      39.197 -13.306  -1.133  1.00  0.00     0.256 C 
HETATM    9  O   UNL     1      39.802 -13.902  -2.016  1.00  0.00    -0.267 OA
HETATM   10  H   UNL     1      38.864 -12.803   0.824  1.00  0.00     0.169 HD
BRANCH   8  11
HETATM   11  C   UNL     1      38.205 -12.268  -1.535  1.00  0.00     0.032 A 
HETATM   12  C   UNL     1      37.371 -12.428  -2.642  1.00  0.00     0.019 A 
HETATM   13  C   UNL     1      36.444 -11.428  -2.967  1.00  0.00     0.030 A 
HETATM   14  C   UNL     1      36.327 -10.239  -2.225  1.00  0.00     0.030 A 
HETATM   15  C   UNL     1      37.185 -10.106  -1.122  1.00  0.00     0.030 A 
HETATM   16  C   UNL     1      38.120 -11.095  -0.785  1.00  0.00     0.019 A 
BRANCH  14  17
HETATM   17  N   UNL     1      35.368  -9.287  -2.564  1.00  0.00    -0.381 N 
HETATM   18  C   UNL     1      34.299  -9.589  -3.527  1.00  0.00     0.123 C 
HETATM   19  C   UNL     1      33.032 -10.050  -2.807  1.00  0.00     0.020 C 
HETATM   20  C   UNL     1      32.601  -9.039  -1.745  1.00  0.00     0.003 C 
HETATM   21  C   UNL     1      33.753  -8.718  -0.795  1.00  0.00     0.020 C 
HETATM   22  C   UNL     1      34.998  -8.270  -1.564  1.00  0.00     0.123 C 
ENDBRANCH  14  17
ENDBRANCH   8  11
ENDBRANCH   1   7
BRANCH   4  23
HETATM   23  C   UNL     1      42.598 -17.226   3.026  1.00  0.00     0.098 A 
HETATM   24  N   UNL     1      43.180 -18.166   2.341  1.00  0.00    -0.170 NA
HETATM   25  N   UNL     1      43.994 -19.038   2.993  1.00  0.00    -0.242 N 
HETATM   26  C   UNL     1      44.311 -19.002   4.327  1.00  0.00     0.272 A 
HETATM   27  H   UNL     1      44.450 -19.743   2.423  1.00  0.00     0.192 HD
HETATM   28  O   UNL     1      45.103 -19.788   4.838  1.00  0.00    -0.266 OA
HETATM   29  C   UNL     1      43.630 -17.972   5.128  1.00  0.00     0.046 A 
HETATM   30  C   UNL     1      43.843 -17.902   6.510  1.00  0.00     0.018 A 
HETATM   31  C   UNL     1      42.750 -17.094   4.498  1.00  0.00     0.011 A 
HETATM   32  C   UNL     1      43.156 -16.957   7.270  1.00  0.00     0.001 A 
HETATM   33  C   UNL     1      42.251 -16.095   6.652  1.00  0.00     0.001 A 
HETATM   34  C   UNL     1      42.040 -16.166   5.271  1.00  0.00     0.015 A 
ENDBRANCH   4  23
TORSDOF 4
ENDMDL
MODEL 6
REMARK VINA RESULT:      -8.8      3.054     12.076
REMARK  4 active torsions:
REMARK  status: ('A' for Active; 'I' for Inactive)
REMARK       I    between atoms: C_2  and  N_3 
REMARK    1  A    between atoms: C_2  and  C_21 
REMARK    2  A    between atoms: N_3  and  C_4 
REMARK    3  A    between atoms: C_7  and  C_10 
REMARK    4  A    between atoms: C_24  and  N_27 
ROOT
HETATM    1  C   UNL     1      42.640  -9.390   8.348  1.00  0.00     0.035 A 
HETATM    2  C   UNL     1      43.752  -8.658   8.775  1.00  0.00     0.030 A 
HETATM    3  C   UNL     1      43.637  -7.736   9.822  1.00  0.00     0.016 A 
HETATM    4  C   UNL     1      42.410  -7.555  10.461  1.00  0.00    -0.005 A 
HETATM    5  C   UNL     1      41.287  -8.267  10.034  1.00  0.00     0.016 A 
HETATM    6  C   UNL     1      41.408  -9.187   8.988  1.00  0.00     0.030 A 
ENDROOT
BRANCH   1   7
HETATM    7  N   UNL     1      42.670 -10.328   7.294  1.00  0.00    -0.323 N 
HETATM    8  C   UNL     1      43.527 -11.405   7.150  1.00  0.00     0.256 C 
HETATM    9  O   UNL     1      44.447 -11.718   7.896  1.00  0.00    -0.267 OA
HETATM   10  H   UNL     1      42.041 -10.141   6.524  1.00  0.00     0.169 HD
BRANCH   8  11
HETATM   11  C   UNL     1      43.301 -12.224   5.925  1.00  0.00     0.032 A 
HETATM   12  C   UNL     1      42.960 -13.575   5.989  1.00  0.00     0.019 A 
HETATM   13  C   UNL     1      42.743 -14.297   4.807  1.00  0.00     0.030 A 
HETATM   14  C   UNL     1      42.875 -13.714   3.534  1.00  0.00     0.030 A 
HETATM   15  C   UNL     1      43.226 -12.355   3.505  1.00  0.00     0.030 A 
HETATM   16  C   UNL     1      43.450 -11.621   4.677  1.00  0.00     0.019 A 
BRANCH  14  17
HETATM   17  N   UNL     1      42.615 -14.460   2.386  1.00  0.00    -0.381 N 
HETATM   18  C   UNL     1      43.609 -15.398   1.843  1.00  0.00     0.123 C 
HETATM   19  C   UNL     1      43.358 -16.815   2.357  1.00  0.00     0.020 C 
HETATM   20  C   UNL     1      41.920 -17.255   2.082  1.00  0.00     0.003 C 
HETATM   21  C   UNL     1      40.922 -16.231   2.619  1.00  0.00     0.020 C 
HETATM   22  C   UNL     1      41.222 -14.830   2.083  1.00  0.00     0.123 C 
ENDBRANCH  14  17
ENDBRANCH   8  11
ENDBRANCH   1   7
BRANCH   4  23
HETATM   23  C   UNL     1      42.297  -6.538  11.537  1.00  0.00     0.098 A 
HETATM   24  N   UNL     1      42.347  -5.292  11.167  1.00  0.00    -0.170 NA
HETATM   25  N   UNL     1      42.194  -4.327  12.112  1.00  0.00    -0.242 N 
HETATM   26  C   UNL     1      41.939  -4.534  13.444  1.00  0.00     0.272 A 
HETATM   27  H   UNL     1      42.215  -3.367  11.785  1.00  0.00     0.192 HD
HETATM   28  O   UNL     1      41.751  -3.612  14.231  1.00  0.00    -0.266 OA
HETATM   29  C   UNL     1      41.920  -5.937  13.889  1.00  0.00     0.046 A 
HETATM   30  C   UNL     1      41.731  -6.241  15.243  1.00  0.00     0.018 A 
HETATM   31  C   UNL     1      42.124  -6.950  12.953  1.00  0.00     0.011 A 
HETATM   32  C   UNL     1      41.765  -7.569  15.666  1.00  0.00     0.001 A 
HETATM   33  C   UNL     1      42.000  -8.586  14.741  1.00  0.00     0.001 A 
HETATM   34  C   UNL     1      42.187  -8.280  13.389  1.00  0.00     0.015 A 
ENDBRANCH   4  23
TORSDOF 4
ENDMDL
MODEL 7
REMARK VINA RESULT:      -8.8      1.474      2.332
REMARK  4 active torsions:
REMARK  status: ('A' for Active; 'I' for Inactive)
REMARK       I    between atoms: C_2  and  N_3 
REMARK    1  A    between atoms: C_2  and  C_21 
REMARK    2  A    between atoms: N_3  and  C_4 
REMARK    3  A    between atoms: C_7  and  C_10 
REMARK    4  A    between atoms: C_24  and  N_27 
ROOT
HETATM    1  C   UNL     1      42.776 -13.043   6.288  1.00  0.00     0.035 A 
HETATM    2  C   UNL     1      43.723 -13.996   6.671  1.00  0.00     0.030 A 
HETATM    3  C   UNL     1      43.889 -15.172   5.928  1.00  0.00     0.016 A 
HETATM    4  C   UNL     1      43.118 -15.390   4.785  1.00  0.00    -0.005 A 
HETATM    5  C   UNL     1      42.157 -14.453   4.401  1.00  0.00     0.016 A 
HETATM    6  C   UNL     1      41.996 -13.281   5.147  1.00  0.00     0.030 A 
ENDROOT
BRANCH   1   7
HETATM    7  N   UNL     1      42.540 -11.841   6.988  1.00  0.00    -0.323 N 
HETATM    8  C   UNL     1      43.419 -10.789   7.175  1.00  0.00     0.256 C 
HETATM    9  O   UNL     1      44.584 -10.728   6.799  1.00  0.00    -0.267 OA
HETATM   10  H   UNL     1      41.651 -11.781   7.469  1.00  0.00     0.169 HD
BRANCH   8  11
HETATM   11  C   UNL     1      42.869  -9.644   7.956  1.00  0.00     0.032 A 
HETATM   12  C   UNL     1      41.577  -9.160   7.752  1.00  0.00     0.019 A 
HETATM   13  C   UNL     1      41.102  -8.091   8.525  1.00  0.00     0.030 A 
HETATM   14  C   UNL     1      41.890  -7.460   9.503  1.00  0.00     0.030 A 
HETATM   15  C   UNL     1      43.188  -7.967   9.679  1.00  0.00     0.030 A 
HETATM   16  C   UNL     1      43.679  -9.032   8.912  1.00  0.00     0.019 A 
BRANCH  14  17
HETATM   17  N   UNL     1      41.366  -6.424  10.272  1.00  0.00    -0.381 N 
HETATM   18  C   UNL     1      42.202  -5.682  11.227  1.00  0.00     0.123 C 
HETATM   19  C   UNL     1      42.760  -4.411  10.588  1.00  0.00     0.020 C 
HETATM   20  C   UNL     1      41.643  -3.554   9.994  1.00  0.00     0.003 C 
HETATM   21  C   UNL     1      40.770  -4.375   9.046  1.00  0.00     0.020 C 
HETATM   22  C   UNL     1      40.244  -5.639   9.729  1.00  0.00     0.123 C 
ENDBRANCH  14  17
ENDBRANCH   8  11
ENDBRANCH   1   7
BRANCH   4  23
HETATM   23  C   UNL     1      43.275 -16.664   4.039  1.00  0.00     0.098 A 
HETATM   24  N   UNL     1      43.279 -16.581   2.741  1.00  0.00    -0.170 NA
HETATM   25  N   UNL     1      43.474 -17.714   2.018  1.00  0.00    -0.242 N 
HETATM   26  C   UNL     1      43.721 -18.965   2.526  1.00  0.00     0.272 A 
HETATM   27  H   UNL     1      43.495 -17.609   1.009  1.00  0.00     0.192 HD
HETATM   28  O   UNL     1      43.949 -19.935   1.811  1.00  0.00    -0.266 OA
HETATM   29  C   UNL     1      43.679 -19.087   3.993  1.00  0.00     0.046 A 
HETATM   30  C   UNL     1      43.855 -20.338   4.598  1.00  0.00     0.018 A 
HETATM   31  C   UNL     1      43.431 -17.952   4.763  1.00  0.00     0.011 A 
HETATM   32  C   UNL     1      43.764 -20.455   5.984  1.00  0.00     0.001 A 
HETATM   33  C   UNL     1      43.485 -19.330   6.759  1.00  0.00     0.001 A 
HETATM   34  C   UNL     1      43.310 -18.081   6.152  1.00  0.00     0.015 A 
ENDBRANCH   4  23
TORSDOF 4
ENDMDL
MODEL 8
REMARK VINA RESULT:      -8.7      7.707     12.045
REMARK  4 active torsions:
REMARK  status: ('A' for Active; 'I' for Inactive)
REMARK       I    between atoms: C_2  and  N_3 
REMARK    1  A    between atoms: C_2  and  C_21 
REMARK    2  A    between atoms: N_3  and  C_4 
REMARK    3  A    between atoms: C_7  and  C_10 
REMARK    4  A    between atoms: C_24  and  N_27 
ROOT
HETATM    1  C   UNL     1      40.058 -13.072  -0.076  1.00  0.00     0.035 A 
HETATM    2  C   UNL     1      40.247 -11.689  -0.022  1.00  0.00     0.030 A 
HETATM    3  C   UNL     1      39.507 -10.837  -0.851  1.00  0.00     0.016 A 
HETATM    4  C   UNL     1      38.559 -11.366  -1.728  1.00  0.00    -0.005 A 
HETATM    5  C   UNL     1      38.371 -12.748  -1.803  1.00  0.00     0.016 A 
HETATM    6  C   UNL     1      39.113 -13.594  -0.972  1.00  0.00     0.030 A 
ENDROOT
BRANCH   1   7
HETATM    7  N   UNL     1      40.770 -13.997   0.717  1.00  0.00    -0.323 N 
HETATM    8  C   UNL     1      40.390 -14.530   1.936  1.00  0.00     0.256 C 
HETATM    9  O   UNL     1      39.378 -14.261   2.572  1.00  0.00    -0.267 OA
HETATM   10  H   UNL     1      41.696 -14.235   0.386  1.00  0.00     0.169 HD
BRANCH   8  11
HETATM   11  C   UNL     1      41.359 -15.497   2.526  1.00  0.00     0.032 A 
HETATM   12  C   UNL     1      42.281 -16.194   1.744  1.00  0.00     0.019 A 
HETATM   13  C   UNL     1      43.181 -17.080   2.350  1.00  0.00     0.030 A 
HETATM   14  C   UNL     1      43.186 -17.319   3.736  1.00  0.00     0.030 A 
HETATM   15  C   UNL     1      42.242 -16.608   4.493  1.00  0.00     0.030 A 
HETATM   16  C   UNL     1      41.332 -15.720   3.902  1.00  0.00     0.019 A 
BRANCH  14  17
HETATM   17  N   UNL     1      44.122 -18.182   4.301  1.00  0.00    -0.381 N 
HETATM   18  C   UNL     1      44.133 -18.458   5.745  1.00  0.00     0.123 C 
HETATM   19  C   UNL     1      43.341 -19.726   6.063  1.00  0.00     0.020 C 
HETATM   20  C   UNL     1      43.837 -20.910   5.232  1.00  0.00     0.003 C 
HETATM   21  C   UNL     1      43.854 -20.565   3.744  1.00  0.00     0.020 C 
HETATM   22  C   UNL     1      44.651 -19.285   3.481  1.00  0.00     0.123 C 
ENDBRANCH  14  17
ENDBRANCH   8  11
ENDBRANCH   1   7
BRANCH   4  23
HETATM   23  C   UNL     1      37.819 -10.451  -2.633  1.00  0.00     0.098 A 
HETATM   24  N   UNL     1      38.343 -10.243  -3.805  1.00  0.00    -0.170 NA
HETATM   25  N   UNL     1      37.673  -9.455  -4.686  1.00  0.00    -0.242 N 
HETATM   26  C   UNL     1      36.445  -8.877  -4.481  1.00  0.00     0.272 A 
HETATM   27  H   UNL     1      38.099  -9.333  -5.599  1.00  0.00     0.192 HD
HETATM   28  O   UNL     1      35.870  -8.226  -5.347  1.00  0.00    -0.266 OA
HETATM   29  C   UNL     1      35.855  -9.067  -3.146  1.00  0.00     0.046 A 
HETATM   30  C   UNL     1      34.634  -8.460  -2.825  1.00  0.00     0.018 A 
HETATM   31  C   UNL     1      36.542  -9.828  -2.201  1.00  0.00     0.011 A 
HETATM   32  C   UNL     1      34.106  -8.601  -1.543  1.00  0.00     0.001 A 
HETATM   33  C   UNL     1      34.802  -9.335  -0.583  1.00  0.00     0.001 A 
HETATM   34  C   UNL     1      36.021  -9.942  -0.906  1.00  0.00     0.015 A 
ENDBRANCH   4  23
TORSDOF 4
ENDMDL
MODEL 9
REMARK VINA RESULT:      -8.7      3.652      4.730
REMARK  4 active torsions:
REMARK  status: ('A' for Active; 'I' for Inactive)
REMARK       I    between atoms: C_2  and  N_3 
REMARK    1  A    between atoms: C_2  and  C_21 
REMARK    2  A    between atoms: N_3  and  C_4 
REMARK    3  A    between atoms: C_7  and  C_10 
REMARK    4  A    between atoms: C_24  and  N_27 
ROOT
HETATM    1  C   UNL     1      40.431 -10.616   6.780  1.00  0.00     0.035 A 
HETATM    2  C   UNL     1      41.391 -10.594   5.765  1.00  0.00     0.030 A 
HETATM    3  C   UNL     1      41.267 -11.431   4.650  1.00  0.00     0.016 A 
HETATM    4  C   UNL     1      40.168 -12.283   4.535  1.00  0.00    -0.005 A 
HETATM    5  C   UNL     1      39.209 -12.327   5.549  1.00  0.00     0.016 A 
HETATM    6  C   UNL     1      39.339 -11.489   6.661  1.00  0.00     0.030 A 
ENDROOT
BRANCH   1   7
HETATM    7  N   UNL     1      40.489  -9.814   7.939  1.00  0.00    -0.323 N 
HETATM    8  C   UNL     1      39.650  -8.770   8.284  1.00  0.00     0.256 C 
HETATM    9  O   UNL     1      38.722  -8.322   7.620  1.00  0.00    -0.267 OA
HETATM   10  H   UNL     1      41.283  -9.979   8.546  1.00  0.00     0.169 HD
BRANCH   8  11
HETATM   11  C   UNL     1      39.963  -8.119   9.588  1.00  0.00     0.032 A 
HETATM   12  C   UNL     1      39.414  -8.563  10.790  1.00  0.00     0.019 A 
HETATM   13  C   UNL     1      39.754  -7.926  11.991  1.00  0.00     0.030 A 
HETATM   14  C   UNL     1      40.628  -6.824  12.038  1.00  0.00     0.030 A 
HETATM   15  C   UNL     1      41.158  -6.398  10.811  1.00  0.00     0.030 A 
HETATM   16  C   UNL     1      40.825  -7.022   9.600  1.00  0.00     0.019 A 
BRANCH  14  17
HETATM   17  N   UNL     1      40.966  -6.243  13.258  1.00  0.00    -0.381 N 
HETATM   18  C   UNL     1      40.242  -6.581  14.493  1.00  0.00     0.123 C 
HETATM   19  C   UNL     1      40.960  -7.691  15.259  1.00  0.00     0.020 C 
HETATM   20  C   UNL     1      42.423  -7.329  15.514  1.00  0.00     0.003 C 
HETATM   21  C   UNL     1      43.125  -6.940  14.215  1.00  0.00     0.020 C 
HETATM   22  C   UNL     1      42.363  -5.833  13.482  1.00  0.00     0.123 C 
ENDBRANCH  14  17
ENDBRANCH   8  11
ENDBRANCH   1   7
BRANCH   4  23
HETATM   23  C   UNL     1      40.079 -13.196   3.369  1.00  0.00     0.098 A 
HETATM   24  N   UNL     1      39.332 -12.805   2.379  1.00  0.00    -0.170 NA
HETATM   25  N   UNL     1      39.264 -13.585   1.268  1.00  0.00    -0.242 N 
HETATM   26  C   UNL     1      39.956 -14.750   1.055  1.00  0.00     0.272 A 
HETATM   27  H   UNL     1      38.691 -13.237   0.506  1.00  0.00     0.192 HD
HETATM   28  O   UNL     1      39.893 -15.372  -0.000  1.00  0.00    -0.266 OA
HETATM   29  C   UNL     1      40.775 -15.231   2.180  1.00  0.00     0.046 A 
HETATM   30  C   UNL     1      41.465 -16.446   2.077  1.00  0.00     0.018 A 
HETATM   31  C   UNL     1      40.826 -14.481   3.353  1.00  0.00     0.011 A 
HETATM   32  C   UNL     1      42.198 -16.921   3.163  1.00  0.00     0.001 A 
HETATM   33  C   UNL     1      42.228 -16.191   4.351  1.00  0.00     0.001 A 
HETATM   34  C   UNL     1      41.539 -14.978   4.452  1.00  0.00     0.015 A 
ENDBRANCH   4  23
TORSDOF 4
ENDMDL
MODEL 10
REMARK VINA RESULT:      -8.6      3.506     12.609
REMARK  4 active torsions:
REMARK  status: ('A' for Active; 'I' for Inactive)
REMARK       I    between atoms: C_2  and  N_3 
REMARK    1  A    between atoms: C_2  and  C_21 
REMARK    2  A    between atoms: N_3  and  C_4 
REMARK    3  A    between atoms: C_7  and  C_10 
REMARK    4  A    between atoms: C_24  and  N_27 
ROOT
HETATM    1  C   UNL     1      42.385  -8.951  10.547  1.00  0.00     0.035 A 
HETATM    2  C   UNL     1      43.389  -8.734  11.494  1.00  0.00     0.030 A 
HETATM    3  C   UNL     1      43.215  -7.790  12.512  1.00  0.00     0.016 A 
HETATM    4  C   UNL     1      42.023  -7.069  12.599  1.00  0.00    -0.005 A 
HETATM    5  C   UNL     1      41.017  -7.264  11.650  1.00  0.00     0.016 A 
HETATM    6  C   UNL     1      41.198  -8.208  10.635  1.00  0.00     0.030 A 
ENDROOT
BRANCH   1   7
HETATM    7  N   UNL     1      42.488  -9.874   9.484  1.00  0.00    -0.323 N 
HETATM    8  C   UNL     1      43.202  -9.728   8.308  1.00  0.00     0.256 C 
HETATM    9  O   UNL     1      43.845  -8.746   7.955  1.00  0.00    -0.267 OA
HETATM   10  H   UNL     1      41.912 -10.702   9.566  1.00  0.00     0.169 HD
BRANCH   8  11
HETATM   11  C   UNL     1      43.123 -10.891   7.379  1.00  0.00     0.032 A 
HETATM   12  C   UNL     1      42.165 -10.969   6.368  1.00  0.00     0.019 A 
HETATM   13  C   UNL     1      42.144 -12.078   5.511  1.00  0.00     0.030 A 
HETATM   14  C   UNL     1      43.051 -13.145   5.637  1.00  0.00     0.030 A 
HETATM   15  C   UNL     1      43.998 -13.039   6.668  1.00  0.00     0.030 A 
HETATM   16  C   UNL     1      44.030 -11.938   7.536  1.00  0.00     0.019 A 
BRANCH  14  17
HETATM   17  N   UNL     1      43.017 -14.211   4.741  1.00  0.00    -0.381 N 
HETATM   18  C   UNL     1      43.267 -15.591   5.184  1.00  0.00     0.123 C 
HETATM   19  C   UNL     1      41.954 -16.309   5.495  1.00  0.00     0.020 C 
HETATM   20  C   UNL     1      40.991 -16.235   4.310  1.00  0.00     0.003 C 
HETATM   21  C   UNL     1      40.796 -14.792   3.852  1.00  0.00     0.020 C 
HETATM   22  C   UNL     1      42.138 -14.115   3.563  1.00  0.00     0.123 C 
ENDBRANCH  14  17
ENDBRANCH   8  11
ENDBRANCH   1   7
BRANCH   4  23
HETATM   23  C   UNL     1      41.876  -6.039  13.657  1.00  0.00     0.098 A 
HETATM   24  N   UNL     1      42.113  -4.809  13.309  1.00  0.00    -0.170 NA
HETATM   25  N   UNL     1      41.938  -3.826  14.231  1.00  0.00    -0.242 N 
HETATM   26  C   UNL     1      41.481  -3.994  15.514  1.00  0.00     0.272 A 
HETATM   27  H   UNL     1      42.110  -2.876  13.918  1.00  0.00     0.192 HD
HETATM   28  O   UNL     1      41.289  -3.052  16.275  1.00  0.00    -0.266 OA
HETATM   29  C   UNL     1      41.246  -5.384  15.940  1.00  0.00     0.046 A 
HETATM   30  C   UNL     1      40.840  -5.656  17.253  1.00  0.00     0.018 A 
HETATM   31  C   UNL     1      41.465  -6.419  15.034  1.00  0.00     0.011 A 
HETATM   32  C   UNL     1      40.669  -6.976  17.665  1.00  0.00     0.001 A 
HETATM   33  C   UNL     1      40.916  -8.019  16.773  1.00  0.00     0.001 A 
HETATM   34  C   UNL     1      41.321  -7.745  15.462  1.00  0.00     0.015 A 
ENDBRANCH   4  23
TORSDOF 4
ENDMDL
