MODEL 1
REMARK VINA RESULT:      -8.6      0.000      0.000
REMARK  4 active torsions:
REMARK  status: ('A' for Active; 'I' for Inactive)
REMARK    1  A    between atoms: O_2  and  C_3 
REMARK    2  A    between atoms: C_5  and  C_6 
REMARK    3  A    between atoms: C_10  and  N_11 
REMARK    4  A    between atoms: C_14  and  C_15 
ROOT
HETATM    1  C   UNL     1      42.633 -12.071   4.679  1.00  0.00     0.164 C 
HETATM    2  N   UNL     1      41.282 -12.116   5.221  1.00  0.00    -0.074 N 
HETATM    3  C   UNL     1      40.597 -13.269   5.501  1.00  0.00     0.736 A 
HETATM    4  N   UNL     1      39.443 -12.955   6.029  1.00  0.00     0.131 NA
HETATM    5  C   UNL     1      39.451 -11.591   6.001  1.00  0.00     0.753 A 
HETATM    6  N   UNL     1      40.561 -11.026   5.530  1.00  0.00     0.037 NA
HETATM    7  N   UNL     1      41.128 -14.480   5.238  1.00  0.00    -0.214 N 
HETATM    8  C   UNL     1      42.549 -14.594   4.929  1.00  0.00     0.135 C 
HETATM    9  C   UNL     1      42.982 -13.423   4.025  1.00  0.00     0.063 C 
HETATM   10  H   UNL     1      40.698 -15.283   5.691  1.00  0.00     0.178 HD
ENDROOT
BRANCH   1  11
HETATM   11  C   UNL     1      43.678 -11.672   5.718  1.00  0.00    -0.030 A 
HETATM   12  C   UNL     1      43.377 -11.524   7.088  1.00  0.00     0.046 A 
HETATM   13  C   UNL     1      44.377 -11.226   8.017  1.00  0.00     0.068 A 
HETATM   14  C   UNL     1      45.690 -11.058   7.578  1.00  0.00     0.037 A 
HETATM   15  C   UNL     1      46.007 -11.192   6.228  1.00  0.00     0.003 A 
HETATM   16  C   UNL     1      45.011 -11.503   5.305  1.00  0.00     0.009 A 
BRANCH  13  17
HETATM   17  O   UNL     1      44.201 -11.082   9.366  1.00  0.00    -0.356 OA
HETATM   18  C   UNL     1      44.961 -10.068  10.013  1.00  0.00     0.210 C 
ENDBRANCH  13  17
ENDBRANCH   1  11
BRANCH   8  19
HETATM   19  C   UNL     1      42.857 -15.926   4.269  1.00  0.00    -0.035 A 
HETATM   20  C   UNL     1      43.738 -16.859   4.842  1.00  0.00     0.010 A 
HETATM   21  C   UNL     1      43.990 -18.082   4.215  1.00  0.00     0.019 A 
HETATM   22  C   UNL     1      43.350 -18.390   3.017  1.00  0.00     0.011 A 
HETATM   23 BR   UNL     1      43.688 -20.045   2.169  1.00  0.00    -0.051 Br
HETATM   24  C   UNL     1      42.459 -17.487   2.441  1.00  0.00     0.019 A 
HETATM   25  C   UNL     1      42.213 -16.262   3.065  1.00  0.00     0.010 A 
ENDBRANCH   8  19
BRANCH   5  26
HETATM   26  N   UNL     1      38.393 -10.938   6.469  1.00  0.00    -0.229 N 
HETATM   27  H   UNL     1      37.574 -11.488   6.688  1.00  0.00     0.174 HD
HETATM   28  H   UNL     1      38.571 -10.163   7.093  1.00  0.00     0.174 HD
ENDBRANCH   5  26
TORSDOF 4
ENDMDL
MODEL 2
REMARK VINA RESULT:      -8.5      3.831      6.923
REMARK  4 active torsions:
REMARK  status: ('A' for Active; 'I' for Inactive)
REMARK    1  A    between atoms: O_2  and  C_3 
REMARK    2  A    between atoms: C_5  and  C_6 
REMARK    3  A    between atoms: C_10  and  N_11 
REMARK    4  A    between atoms: C_14  and  C_15 
ROOT
HETATM    1  C   UNL     1      41.287 -15.336   5.060  1.00  0.00     0.164 C 
HETATM    2  N   UNL     1      41.011 -14.804   3.732  1.00  0.00    -0.074 N 
HETATM    3  C   UNL     1      41.559 -13.654   3.229  1.00  0.00     0.736 A 
HETATM    4  N   UNL     1      41.152 -13.498   1.996  1.00  0.00     0.131 NA
HETATM    5  C   UNL     1      40.313 -14.558   1.812  1.00  0.00     0.753 A 
HETATM    6  N   UNL     1      40.204 -15.398   2.839  1.00  0.00     0.037 NA
HETATM    7  N   UNL     1      42.379 -12.884   3.974  1.00  0.00    -0.214 N 
HETATM    8  C   UNL     1      42.932 -13.412   5.216  1.00  0.00     0.135 C 
HETATM    9  C   UNL     1      41.856 -14.224   5.963  1.00  0.00     0.063 C 
HETATM   10  H   UNL     1      42.946 -12.199   3.480  1.00  0.00     0.178 HD
ENDROOT
BRANCH   1  11
HETATM   11  C   UNL     1      42.208 -16.554   5.034  1.00  0.00    -0.030 A 
HETATM   12  C   UNL     1      42.739 -17.085   3.840  1.00  0.00     0.046 A 
HETATM   13  C   UNL     1      43.634 -18.158   3.865  1.00  0.00     0.068 A 
HETATM   14  C   UNL     1      43.994 -18.720   5.090  1.00  0.00     0.037 A 
HETATM   15  C   UNL     1      43.474 -18.214   6.280  1.00  0.00     0.003 A 
HETATM   16  C   UNL     1      42.592 -17.135   6.254  1.00  0.00     0.009 A 
BRANCH  13  17
HETATM   17  O   UNL     1      44.224 -18.737   2.775  1.00  0.00    -0.356 OA
HETATM   18  C   UNL     1      43.636 -19.934   2.280  1.00  0.00     0.210 C 
ENDBRANCH  13  17
ENDBRANCH   1  11
BRANCH   8  19
HETATM   19  C   UNL     1      43.465 -12.291   6.092  1.00  0.00    -0.035 A 
HETATM   20  C   UNL     1      44.764 -12.315   6.628  1.00  0.00     0.010 A 
HETATM   21  C   UNL     1      45.228 -11.261   7.420  1.00  0.00     0.019 A 
HETATM   22  C   UNL     1      44.403 -10.167   7.669  1.00  0.00     0.011 A 
HETATM   23 BR   UNL     1      45.032  -8.740   8.738  1.00  0.00    -0.051 Br
HETATM   24  C   UNL     1      43.119 -10.115   7.133  1.00  0.00     0.019 A 
HETATM   25  C   UNL     1      42.653 -11.172   6.347  1.00  0.00     0.010 A 
ENDBRANCH   8  19
BRANCH   5  26
HETATM   26  N   UNL     1      39.709 -14.695   0.636  1.00  0.00    -0.229 N 
HETATM   27  H   UNL     1      39.237 -15.571   0.462  1.00  0.00     0.174 HD
HETATM   28  H   UNL     1      39.254 -13.877   0.256  1.00  0.00     0.174 HD
ENDBRANCH   5  26
TORSDOF 4
ENDMDL
MODEL 3
REMARK VINA RESULT:      -8.2      4.338      6.553
REMARK  4 active torsions:
REMARK  status: ('A' for Active; 'I' for Inactive)
REMARK    1  A    between atoms: O_2  and  C_3 
REMARK    2  A    between atoms: C_5  and  C_6 
REMARK    3  A    between atoms: C_10  and  N_11 
REMARK    4  A    between atoms: C_14  and  C_15 
ROOT
HETATM    1  C   UNL     1      40.335 -13.660   2.189  1.00  0.00     0.164 C 
HETATM    2  N   UNL     1      41.126 -12.598   2.795  1.00  0.00    -0.074 N 
HETATM    3  C   UNL     1      42.367 -12.775   3.347  1.00  0.00     0.736 A 
HETATM    4  N   UNL     1      42.821 -11.615   3.743  1.00  0.00     0.131 NA
HETATM    5  C   UNL     1      41.793 -10.766   3.454  1.00  0.00     0.753 A 
HETATM    6  N   UNL     1      40.737 -11.315   2.857  1.00  0.00     0.037 NA
HETATM    7  N   UNL     1      42.936 -13.996   3.415  1.00  0.00    -0.214 N 
HETATM    8  C   UNL     1      42.376 -15.097   2.639  1.00  0.00     0.135 C 
HETATM    9  C   UNL     1      40.837 -15.033   2.679  1.00  0.00     0.063 C 
HETATM   10  H   UNL     1      43.936 -14.031   3.595  1.00  0.00     0.178 HD
ENDROOT
BRANCH   1  11
HETATM   11  C   UNL     1      40.312 -13.590   0.664  1.00  0.00    -0.030 A 
HETATM   12  C   UNL     1      39.639 -14.538  -0.135  1.00  0.00     0.046 A 
HETATM   13  C   UNL     1      39.583 -14.398  -1.524  1.00  0.00     0.068 A 
HETATM   14  C   UNL     1      40.215 -13.312  -2.128  1.00  0.00     0.037 A 
HETATM   15  C   UNL     1      40.891 -12.368  -1.357  1.00  0.00     0.003 A 
HETATM   16  C   UNL     1      40.935 -12.502   0.029  1.00  0.00     0.009 A 
BRANCH  13  17
HETATM   17  O   UNL     1      38.943 -15.242  -2.390  1.00  0.00    -0.356 OA
HETATM   18  C   UNL     1      38.243 -14.646  -3.476  1.00  0.00     0.210 C 
ENDBRANCH  13  17
ENDBRANCH   1  11
BRANCH   8  19
HETATM   19  C   UNL     1      42.872 -16.435   3.158  1.00  0.00    -0.035 A 
HETATM   20  C   UNL     1      43.049 -17.545   2.315  1.00  0.00     0.010 A 
HETATM   21  C   UNL     1      43.520 -18.759   2.822  1.00  0.00     0.019 A 
HETATM   22  C   UNL     1      43.835 -18.868   4.174  1.00  0.00     0.011 A 
HETATM   23 BR   UNL     1      44.475 -20.509   4.860  1.00  0.00    -0.051 Br
HETATM   24  C   UNL     1      43.685 -17.775   5.024  1.00  0.00     0.019 A 
HETATM   25  C   UNL     1      43.207 -16.564   4.518  1.00  0.00     0.010 A 
ENDBRANCH   8  19
BRANCH   5  26
HETATM   26  N   UNL     1      41.930  -9.477   3.747  1.00  0.00    -0.229 N 
HETATM   27  H   UNL     1      42.863  -9.148   3.949  1.00  0.00     0.174 HD
HETATM   28  H   UNL     1      41.344  -8.827   3.240  1.00  0.00     0.174 HD
ENDBRANCH   5  26
TORSDOF 4
ENDMDL
MODEL 4
REMARK VINA RESULT:      -8.1      4.501      6.870
REMARK  4 active torsions:
REMARK  status: ('A' for Active; 'I' for Inactive)
REMARK    1  A    between atoms: O_2  and  C_3 
REMARK    2  A    between atoms: C_5  and  C_6 
REMARK    3  A    between atoms: C_10  and  N_11 
REMARK    4  A    between atoms: C_14  and  C_15 
ROOT
HETATM    1  C   UNL     1      43.618 -15.896   3.989  1.00  0.00     0.164 C 
HETATM    2  N   UNL     1      43.134 -15.718   5.351  1.00  0.00    -0.074 N 
HETATM    3  C   UNL     1      41.904 -15.212   5.677  1.00  0.00     0.736 A 
HETATM    4  N   UNL     1      41.767 -15.244   6.977  1.00  0.00     0.131 NA
HETATM    5  C   UNL     1      42.967 -15.732   7.403  1.00  0.00     0.753 A 
HETATM    6  N   UNL     1      43.836 -16.054   6.446  1.00  0.00     0.037 NA
HETATM    7  N   UNL     1      41.048 -14.785   4.726  1.00  0.00    -0.214 N 
HETATM    8  C   UNL     1      41.294 -15.124   3.329  1.00  0.00     0.135 C 
HETATM    9  C   UNL     1      42.800 -15.017   3.022  1.00  0.00     0.063 C 
HETATM   10  H   UNL     1      40.076 -14.663   4.999  1.00  0.00     0.178 HD
ENDROOT
BRANCH   1  11
HETATM   11  C   UNL     1      43.618 -17.357   3.544  1.00  0.00    -0.030 A 
HETATM   12  C   UNL     1      44.135 -18.399   4.341  1.00  0.00     0.046 A 
HETATM   13  C   UNL     1      44.053 -19.731   3.927  1.00  0.00     0.068 A 
HETATM   14  C   UNL     1      43.463 -20.030   2.699  1.00  0.00     0.037 A 
HETATM   15  C   UNL     1      42.953 -19.014   1.893  1.00  0.00     0.003 A 
HETATM   16  C   UNL     1      43.024 -17.687   2.314  1.00  0.00     0.009 A 
BRANCH  13  17
HETATM   17  O   UNL     1      44.500 -20.818   4.627  1.00  0.00    -0.356 OA
HETATM   18  C   UNL     1      43.978 -21.003   5.937  1.00  0.00     0.210 C 
ENDBRANCH  13  17
ENDBRANCH   1  11
BRANCH   8  19
HETATM   19  C   UNL     1      40.491 -14.228   2.403  1.00  0.00    -0.035 A 
HETATM   20  C   UNL     1      39.729 -13.149   2.882  1.00  0.00     0.010 A 
HETATM   21  C   UNL     1      39.011 -12.335   2.002  1.00  0.00     0.019 A 
HETATM   22  C   UNL     1      39.061 -12.584   0.632  1.00  0.00     0.011 A 
HETATM   23 BR   UNL     1      38.092 -11.483  -0.560  1.00  0.00    -0.051 Br
HETATM   24  C   UNL     1      39.824 -13.638   0.135  1.00  0.00     0.019 A 
HETATM   25  C   UNL     1      40.536 -14.455   1.016  1.00  0.00     0.010 A 
ENDBRANCH   8  19
BRANCH   5  26
HETATM   26  N   UNL     1      43.166 -15.884   8.707  1.00  0.00    -0.229 N 
HETATM   27  H   UNL     1      42.633 -16.606   9.172  1.00  0.00     0.174 HD
HETATM   28  H   UNL     1      44.111 -15.762   9.045  1.00  0.00     0.174 HD
ENDBRANCH   5  26
TORSDOF 4
ENDMDL
MODEL 5
REMARK VINA RESULT:      -8.0      4.045      6.199
REMARK  4 active torsions:
REMARK  status: ('A' for Active; 'I' for Inactive)
REMARK    1  A    between atoms: O_2  and  C_3 
REMARK    2  A    between atoms: C_5  and  C_6 
REMARK    3  A    between atoms: C_10  and  N_11 
REMARK    4  A    between atoms: C_14  and  C_15 
ROOT
HETATM    1  C   UNL     1      40.377 -13.688   2.384  1.00  0.00     0.164 C 
HETATM    2  N   UNL     1      41.189 -12.641   2.990  1.00  0.00    -0.074 N 
HETATM    3  C   UNL     1      42.438 -12.836   3.516  1.00  0.00     0.736 A 
HETATM    4  N   UNL     1      42.909 -11.686   3.920  1.00  0.00     0.131 NA
HETATM    5  C   UNL     1      41.883 -10.825   3.664  1.00  0.00     0.753 A 
HETATM    6  N   UNL     1      40.811 -11.356   3.080  1.00  0.00     0.037 NA
HETATM    7  N   UNL     1      42.998 -14.063   3.554  1.00  0.00    -0.214 N 
HETATM    8  C   UNL     1      42.414 -15.148   2.774  1.00  0.00     0.135 C 
HETATM    9  C   UNL     1      40.877 -15.072   2.844  1.00  0.00     0.063 C 
HETATM   10  H   UNL     1      44.002 -14.109   3.714  1.00  0.00     0.178 HD
ENDROOT
BRANCH   1  11
HETATM   11  C   UNL     1      40.325 -13.594   0.861  1.00  0.00    -0.030 A 
HETATM   12  C   UNL     1      40.879 -12.515   0.142  1.00  0.00     0.046 A 
HETATM   13  C   UNL     1      40.872 -12.501  -1.255  1.00  0.00     0.068 A 
HETATM   14  C   UNL     1      40.296 -13.567  -1.946  1.00  0.00     0.037 A 
HETATM   15  C   UNL     1      39.737 -14.639  -1.255  1.00  0.00     0.003 A 
HETATM   16  C   UNL     1      39.756 -14.657   0.139  1.00  0.00     0.009 A 
BRANCH  13  17
HETATM   17  O   UNL     1      41.398 -11.520  -2.051  1.00  0.00    -0.356 OA
HETATM   18  C   UNL     1      40.631 -11.125  -3.182  1.00  0.00     0.210 C 
ENDBRANCH  13  17
ENDBRANCH   1  11
BRANCH   8  19
HETATM   19  C   UNL     1      42.910 -16.497   3.263  1.00  0.00    -0.035 A 
HETATM   20  C   UNL     1      43.097 -17.585   2.393  1.00  0.00     0.010 A 
HETATM   21  C   UNL     1      43.566 -18.810   2.873  1.00  0.00     0.019 A 
HETATM   22  C   UNL     1      43.870 -18.953   4.225  1.00  0.00     0.011 A 
HETATM   23 BR   UNL     1      44.507 -20.609   4.875  1.00  0.00    -0.051 Br
HETATM   24  C   UNL     1      43.709 -17.883   5.101  1.00  0.00     0.019 A 
HETATM   25  C   UNL     1      43.232 -16.660   4.622  1.00  0.00     0.010 A 
ENDBRANCH   8  19
BRANCH   5  26
HETATM   26  N   UNL     1      42.036  -9.541   3.973  1.00  0.00    -0.229 N 
HETATM   27  H   UNL     1      41.987  -8.877   3.213  1.00  0.00     0.174 HD
HETATM   28  H   UNL     1      41.633  -9.228   4.845  1.00  0.00     0.174 HD
ENDBRANCH   5  26
TORSDOF 4
ENDMDL
MODEL 6
REMARK VINA RESULT:      -8.0      4.759      6.809
REMARK  4 active torsions:
REMARK  status: ('A' for Active; 'I' for Inactive)
REMARK    1  A    between atoms: O_2  and  C_3 
REMARK    2  A    between atoms: C_5  and  C_6 
REMARK    3  A    between atoms: C_10  and  N_11 
REMARK    4  A    between atoms: C_14  and  C_15 
ROOT
HETATM    1  C   UNL     1      40.013 -13.289   1.330  1.00  0.00     0.164 C 
HETATM    2  N   UNL     1      40.741 -12.113   1.787  1.00  0.00    -0.074 N 
HETATM    3  C   UNL     1      41.982 -12.146   2.365  1.00  0.00     0.736 A 
HETATM    4  N   UNL     1      42.370 -10.919   2.598  1.00  0.00     0.131 NA
HETATM    5  C   UNL     1      41.303 -10.174   2.189  1.00  0.00     0.753 A 
HETATM    6  N   UNL     1      40.284 -10.856   1.668  1.00  0.00     0.037 NA
HETATM    7  N   UNL     1      42.612 -13.314   2.604  1.00  0.00    -0.214 N 
HETATM    8  C   UNL     1      42.119 -14.540   1.986  1.00  0.00     0.135 C 
HETATM    9  C   UNL     1      40.579 -14.552   2.008  1.00  0.00     0.063 C 
HETATM   10  H   UNL     1      43.611 -13.270   2.792  1.00  0.00     0.178 HD
ENDROOT
BRANCH   1  11
HETATM   11  C   UNL     1      40.005 -13.432  -0.190  1.00  0.00    -0.030 A 
HETATM   12  C   UNL     1      40.601 -12.486  -1.050  1.00  0.00     0.046 A 
HETATM   13  C   UNL     1      40.633 -12.690  -2.432  1.00  0.00     0.068 A 
HETATM   14  C   UNL     1      40.053 -13.839  -2.967  1.00  0.00     0.037 A 
HETATM   15  C   UNL     1      39.452 -14.782  -2.136  1.00  0.00     0.003 A 
HETATM   16  C   UNL     1      39.433 -14.584  -0.756  1.00  0.00     0.009 A 
BRANCH  13  17
HETATM   17  O   UNL     1      41.201 -11.853  -3.353  1.00  0.00    -0.356 OA
HETATM   18  C   UNL     1      40.730 -10.511  -3.385  1.00  0.00     0.210 C 
ENDBRANCH  13  17
ENDBRANCH   1  11
BRANCH   8  19
HETATM   19  C   UNL     1      42.678 -15.764   2.688  1.00  0.00    -0.035 A 
HETATM   20  C   UNL     1      42.796 -15.836   4.087  1.00  0.00     0.010 A 
HETATM   21  C   UNL     1      43.304 -16.983   4.702  1.00  0.00     0.019 A 
HETATM   22  C   UNL     1      43.681 -18.076   3.926  1.00  0.00     0.011 A 
HETATM   23 BR   UNL     1      44.365 -19.629   4.758  1.00  0.00    -0.051 Br
HETATM   24  C   UNL     1      43.556 -18.033   2.540  1.00  0.00     0.019 A 
HETATM   25  C   UNL     1      43.056 -16.883   1.924  1.00  0.00     0.010 A 
ENDBRANCH   8  19
BRANCH   5  26
HETATM   26  N   UNL     1      41.369  -8.852   2.300  1.00  0.00    -0.229 N 
HETATM   27  H   UNL     1      40.530  -8.330   2.086  1.00  0.00     0.174 HD
HETATM   28  H   UNL     1      41.924  -8.482   3.059  1.00  0.00     0.174 HD
ENDBRANCH   5  26
TORSDOF 4
ENDMDL
MODEL 7
REMARK VINA RESULT:      -7.8      3.609      4.513
REMARK  4 active torsions:
REMARK  status: ('A' for Active; 'I' for Inactive)
REMARK    1  A    between atoms: O_2  and  C_3 
REMARK    2  A    between atoms: C_5  and  C_6 
REMARK    3  A    between atoms: C_10  and  N_11 
REMARK    4  A    between atoms: C_14  and  C_15 
ROOT
HETATM    1  C   UNL     1      42.477 -13.214   1.793  1.00  0.00     0.164 C 
HETATM    2  N   UNL     1      41.422 -13.553   0.848  1.00  0.00    -0.074 N 
HETATM    3  C   UNL     1      40.796 -14.770   0.789  1.00  0.00     0.736 A 
HETATM    4  N   UNL     1      39.862 -14.719  -0.125  1.00  0.00     0.131 NA
HETATM    5  C   UNL     1      39.995 -13.460  -0.632  1.00  0.00     0.753 A 
HETATM    6  N   UNL     1      40.926 -12.698  -0.060  1.00  0.00     0.037 NA
HETATM    7  N   UNL     1      41.162 -15.786   1.597  1.00  0.00    -0.214 N 
HETATM    8  C   UNL     1      42.023 -15.521   2.744  1.00  0.00     0.135 C 
HETATM    9  C   UNL     1      43.111 -14.502   2.356  1.00  0.00     0.063 C 
HETATM   10  H   UNL     1      40.511 -16.562   1.688  1.00  0.00     0.178 HD
ENDROOT
BRANCH   1  11
HETATM   11  C   UNL     1      41.999 -12.296   2.915  1.00  0.00    -0.030 A 
HETATM   12  C   UNL     1      40.734 -12.427   3.524  1.00  0.00     0.046 A 
HETATM   13  C   UNL     1      40.362 -11.610   4.595  1.00  0.00     0.068 A 
HETATM   14  C   UNL     1      41.252 -10.642   5.057  1.00  0.00     0.037 A 
HETATM   15  C   UNL     1      42.504 -10.491   4.465  1.00  0.00     0.003 A 
HETATM   16  C   UNL     1      42.879 -11.315   3.405  1.00  0.00     0.009 A 
BRANCH  13  17
HETATM   17  O   UNL     1      39.174 -11.665   5.271  1.00  0.00    -0.356 OA
HETATM   18  C   UNL     1      39.112 -10.997   6.525  1.00  0.00     0.210 C 
ENDBRANCH  13  17
ENDBRANCH   1  11
BRANCH   8  19
HETATM   19  C   UNL     1      42.648 -16.804   3.262  1.00  0.00    -0.035 A 
HETATM   20  C   UNL     1      42.961 -17.879   2.413  1.00  0.00     0.010 A 
HETATM   21  C   UNL     1      43.547 -19.042   2.920  1.00  0.00     0.019 A 
HETATM   22  C   UNL     1      43.841 -19.134   4.278  1.00  0.00     0.011 A 
HETATM   23 BR   UNL     1      44.636 -20.705   4.964  1.00  0.00    -0.051 Br
HETATM   24  C   UNL     1      43.555 -18.073   5.134  1.00  0.00     0.019 A 
HETATM   25  C   UNL     1      42.962 -16.914   4.629  1.00  0.00     0.010 A 
ENDBRANCH   8  19
BRANCH   5  26
HETATM   26  N   UNL     1      39.181 -13.078  -1.611  1.00  0.00    -0.229 N 
HETATM   27  H   UNL     1      39.421 -13.372  -2.548  1.00  0.00     0.174 HD
HETATM   28  H   UNL     1      38.192 -13.061  -1.405  1.00  0.00     0.174 HD
ENDBRANCH   5  26
TORSDOF 4
ENDMDL
MODEL 8
REMARK VINA RESULT:      -7.6      3.834      5.407
REMARK  4 active torsions:
REMARK  status: ('A' for Active; 'I' for Inactive)
REMARK    1  A    between atoms: O_2  and  C_3 
REMARK    2  A    between atoms: C_5  and  C_6 
REMARK    3  A    between atoms: C_10  and  N_11 
REMARK    4  A    between atoms: C_14  and  C_15 
ROOT
HETATM    1  C   UNL     1      41.789 -14.636   4.488  1.00  0.00     0.164 C 
HETATM    2  N   UNL     1      42.515 -15.828   4.069  1.00  0.00    -0.074 N 
HETATM    3  C   UNL     1      42.637 -16.243   2.769  1.00  0.00     0.736 A 
HETATM    4  N   UNL     1      43.398 -17.306   2.737  1.00  0.00     0.131 NA
HETATM    5  C   UNL     1      43.673 -17.529   4.054  1.00  0.00     0.753 A 
HETATM    6  N   UNL     1      43.169 -16.643   4.911  1.00  0.00     0.037 NA
HETATM    7  N   UNL     1      42.031 -15.581   1.763  1.00  0.00    -0.214 N 
HETATM    8  C   UNL     1      41.482 -14.250   2.001  1.00  0.00     0.135 C 
HETATM    9  C   UNL     1      40.804 -14.205   3.383  1.00  0.00     0.063 C 
HETATM   10  H   UNL     1      42.356 -15.775   0.819  1.00  0.00     0.178 HD
ENDROOT
BRANCH   1  11
HETATM   11  C   UNL     1      42.711 -13.487   4.889  1.00  0.00    -0.030 A 
HETATM   12  C   UNL     1      43.147 -13.282   6.214  1.00  0.00     0.046 A 
HETATM   13  C   UNL     1      44.047 -12.260   6.527  1.00  0.00     0.068 A 
HETATM   14  C   UNL     1      44.509 -11.423   5.512  1.00  0.00     0.037 A 
HETATM   15  C   UNL     1      44.086 -11.604   4.197  1.00  0.00     0.003 A 
HETATM   16  C   UNL     1      43.198 -12.632   3.885  1.00  0.00     0.009 A 
BRANCH  13  17
HETATM   17  O   UNL     1      44.550 -11.986   7.769  1.00  0.00    -0.356 OA
HETATM   18  C   UNL     1      45.447 -10.886   7.875  1.00  0.00     0.210 C 
ENDBRANCH  13  17
ENDBRANCH   1  11
BRANCH   8  19
HETATM   19  C   UNL     1      40.502 -13.863   0.908  1.00  0.00    -0.035 A 
HETATM   20  C   UNL     1      39.843 -12.622   0.899  1.00  0.00     0.010 A 
HETATM   21  C   UNL     1      38.956 -12.292  -0.129  1.00  0.00     0.019 A 
HETATM   22  C   UNL     1      38.733 -13.193  -1.166  1.00  0.00     0.011 A 
HETATM   23 BR   UNL     1      37.535 -12.746  -2.559  1.00  0.00    -0.051 Br
HETATM   24  C   UNL     1      39.389 -14.421  -1.187  1.00  0.00     0.019 A 
HETATM   25  C   UNL     1      40.270 -14.754  -0.156  1.00  0.00     0.010 A 
ENDBRANCH   8  19
BRANCH   5  26
HETATM   26  N   UNL     1      44.437 -18.567   4.378  1.00  0.00    -0.229 N 
HETATM   27  H   UNL     1      45.435 -18.414   4.399  1.00  0.00     0.174 HD
HETATM   28  H   UNL     1      44.082 -19.193   5.088  1.00  0.00     0.174 HD
ENDBRANCH   5  26
TORSDOF 4
ENDMDL
MODEL 9
REMARK VINA RESULT:      -7.5      4.259      6.290
REMARK  4 active torsions:
REMARK  status: ('A' for Active; 'I' for Inactive)
REMARK    1  A    between atoms: O_2  and  C_3 
REMARK    2  A    between atoms: C_5  and  C_6 
REMARK    3  A    between atoms: C_10  and  N_11 
REMARK    4  A    between atoms: C_14  and  C_15 
ROOT
HETATM    1  C   UNL     1      43.010 -13.491   2.816  1.00  0.00     0.164 C 
HETATM    2  N   UNL     1      42.537 -12.803   4.010  1.00  0.00    -0.074 N 
HETATM    3  C   UNL     1      41.272 -12.304   4.167  1.00  0.00     0.736 A 
HETATM    4  N   UNL     1      41.163 -11.805   5.371  1.00  0.00     0.131 NA
HETATM    5  C   UNL     1      42.411 -11.979   5.892  1.00  0.00     0.753 A 
HETATM    6  N   UNL     1      43.287 -12.601   5.105  1.00  0.00     0.037 NA
HETATM    7  N   UNL     1      40.362 -12.375   3.174  1.00  0.00    -0.214 N 
HETATM    8  C   UNL     1      40.612 -13.243   2.028  1.00  0.00     0.135 C 
HETATM    9  C   UNL     1      42.095 -13.156   1.621  1.00  0.00     0.063 C 
HETATM   10  H   UNL     1      39.389 -12.226   3.426  1.00  0.00     0.178 HD
ENDROOT
BRANCH   1  11
HETATM   11  C   UNL     1      43.137 -15.000   3.011  1.00  0.00    -0.030 A 
HETATM   12  C   UNL     1      43.085 -15.615   4.279  1.00  0.00     0.046 A 
HETATM   13  C   UNL     1      43.135 -17.005   4.408  1.00  0.00     0.068 A 
HETATM   14  C   UNL     1      43.254 -17.794   3.264  1.00  0.00     0.037 A 
HETATM   15  C   UNL     1      43.315 -17.207   2.003  1.00  0.00     0.003 A 
HETATM   16  C   UNL     1      43.251 -15.820   1.875  1.00  0.00     0.009 A 
BRANCH  13  17
HETATM   17  O   UNL     1      43.071 -17.705   5.582  1.00  0.00    -0.356 OA
HETATM   18  C   UNL     1      43.797 -18.927   5.647  1.00  0.00     0.210 C 
ENDBRANCH  13  17
ENDBRANCH   1  11
BRANCH   8  19
HETATM   19  C   UNL     1      39.712 -12.875   0.862  1.00  0.00    -0.035 A 
HETATM   20  C   UNL     1      39.738 -13.579  -0.354  1.00  0.00     0.010 A 
HETATM   21  C   UNL     1      38.887 -13.222  -1.404  1.00  0.00     0.019 A 
HETATM   22  C   UNL     1      37.990 -12.170  -1.240  1.00  0.00     0.011 A 
HETATM   23 BR   UNL     1      36.836 -11.689  -2.658  1.00  0.00    -0.051 Br
HETATM   24  C   UNL     1      37.934 -11.471  -0.037  1.00  0.00     0.019 A 
HETATM   25  C   UNL     1      38.790 -11.823   1.009  1.00  0.00     0.010 A 
ENDBRANCH   8  19
BRANCH   5  26
HETATM   26  N   UNL     1      42.648 -11.562   7.131  1.00  0.00    -0.229 N 
HETATM   27  H   UNL     1      43.133 -12.201   7.746  1.00  0.00     0.174 HD
HETATM   28  H   UNL     1      42.884 -10.587   7.250  1.00  0.00     0.174 HD
ENDBRANCH   5  26
TORSDOF 4
ENDMDL
MODEL 10
REMARK VINA RESULT:      -7.5      9.532     13.028
REMARK  4 active torsions:
REMARK  status: ('A' for Active; 'I' for Inactive)
REMARK    1  A    between atoms: O_2  and  C_3 
REMARK    2  A    between atoms: C_5  and  C_6 
REMARK    3  A    between atoms: C_10  and  N_11 
REMARK    4  A    between atoms: C_14  and  C_15 
ROOT
HETATM    1  C   UNL     1      41.477  -6.398  17.376  1.00  0.00     0.164 C 
HETATM    2  N   UNL     1      40.334  -5.625  16.909  1.00  0.00    -0.074 N 
HETATM    3  C   UNL     1      39.731  -5.793  15.691  1.00  0.00     0.736 A 
HETATM    4  N   UNL     1      38.704  -4.988  15.615  1.00  0.00     0.131 NA
HETATM    5  C   UNL     1      38.754  -4.311  16.798  1.00  0.00     0.753 A 
HETATM    6  N   UNL     1      39.725  -4.674  17.634  1.00  0.00     0.037 NA
HETATM    7  N   UNL     1      40.203  -6.680  14.791  1.00  0.00    -0.214 N 
HETATM    8  C   UNL     1      41.177  -7.682  15.210  1.00  0.00     0.135 C 
HETATM    9  C   UNL     1      42.195  -7.049  16.177  1.00  0.00     0.063 C 
HETATM   10  H   UNL     1      39.583  -6.941  14.029  1.00  0.00     0.178 HD
ENDROOT
BRANCH   1  11
HETATM   11  C   UNL     1      41.103  -7.437  18.430  1.00  0.00    -0.030 A 
HETATM   12  C   UNL     1      42.056  -8.053  19.268  1.00  0.00     0.046 A 
HETATM   13  C   UNL     1      41.664  -8.947  20.267  1.00  0.00     0.068 A 
HETATM   14  C   UNL     1      40.311  -9.245  20.426  1.00  0.00     0.037 A 
HETATM   15  C   UNL     1      39.354  -8.653  19.604  1.00  0.00     0.003 A 
HETATM   16  C   UNL     1      39.746  -7.751  18.616  1.00  0.00     0.009 A 
BRANCH  13  17
HETATM   17  O   UNL     1      42.497  -9.584  21.147  1.00  0.00    -0.356 OA
HETATM   18  C   UNL     1      42.676 -10.984  20.970  1.00  0.00     0.210 C 
ENDBRANCH  13  17
ENDBRANCH   1  11
BRANCH   8  19
HETATM   19  C   UNL     1      41.881  -8.290  14.009  1.00  0.00    -0.035 A 
HETATM   20  C   UNL     1      43.008  -7.691  13.421  1.00  0.00     0.010 A 
HETATM   21  C   UNL     1      43.640  -8.282  12.324  1.00  0.00     0.019 A 
HETATM   22  C   UNL     1      43.162  -9.488  11.817  1.00  0.00     0.011 A 
HETATM   23 BR   UNL     1      44.018 -10.291  10.335  1.00  0.00    -0.051 Br
HETATM   24  C   UNL     1      42.057 -10.108  12.396  1.00  0.00     0.019 A 
HETATM   25  C   UNL     1      41.421  -9.513  13.488  1.00  0.00     0.010 A 
ENDBRANCH   8  19
BRANCH   5  26
HETATM   26  N   UNL     1      37.832  -3.386  17.043  1.00  0.00    -0.229 N 
HETATM   27  H   UNL     1      36.936  -3.500  16.591  1.00  0.00     0.174 HD
HETATM   28  H   UNL     1      37.797  -3.010  17.980  1.00  0.00     0.174 HD
ENDBRANCH   5  26
TORSDOF 4
ENDMDL
