MODEL 1
REMARK VINA RESULT:      -8.1      0.000      0.000
REMARK  5 active torsions:
REMARK  status: ('A' for Active; 'I' for Inactive)
REMARK    1  A    between atoms: C_8  and  C_9 
REMARK    2  A    between atoms: N_10  and  N_11 
REMARK       I    between atoms: N_11  and  C_12 
REMARK    3  A    between atoms: C_12  and  C_13 
REMARK    4  A    between atoms: C_13  and  O_14 
REMARK    5  A    between atoms: O_14  and  C_15 
ROOT
HETATM    1  N   UNL     1      42.987 -12.549   6.961  1.00  0.00    -0.246 N 
HETATM    2  C   UNL     1      43.900 -11.545   7.257  1.00  0.00     0.261 C 
HETATM    3  O   UNL     1      45.075 -11.703   7.582  1.00  0.00    -0.269 OA
HETATM    4  H   UNL     1      42.136 -12.266   6.475  1.00  0.00     0.192 HD
ENDROOT
BRANCH   1   5
HETATM    5  N   UNL     1      43.241 -13.898   6.902  1.00  0.00    -0.184 NA
HETATM    6  C   UNL     1      43.189 -14.496   5.755  1.00  0.00     0.152 C 
BRANCH   6   7
HETATM    7  C   UNL     1      43.430 -15.925   5.677  1.00  0.00     0.011 A 
HETATM    8  C   UNL     1      43.426 -16.733   4.493  1.00  0.00     0.004 A 
HETATM    9  C   UNL     1      43.196 -16.471   3.125  1.00  0.00     0.014 A 
HETATM   10  C   UNL     1      43.715 -18.042   4.879  1.00  0.00     0.043 A 
HETATM   11  C   UNL     1      43.268 -17.519   2.200  1.00  0.00     0.001 A 
HETATM   12  C   UNL     1      43.563 -18.813   2.617  1.00  0.00     0.002 A 
HETATM   13  C   UNL     1      43.793 -19.101   3.966  1.00  0.00     0.030 A 
HETATM   14  N   UNL     1      43.884 -18.034   6.244  1.00  0.00    -0.364 N 
HETATM   15  H   UNL     1      44.103 -18.850   6.799  1.00  0.00     0.165 HD
HETATM   16  C   UNL     1      43.711 -16.768   6.735  1.00  0.00     0.102 A 
ENDBRANCH   6   7
ENDBRANCH   1   5
BRANCH   2  17
HETATM   17  C   UNL     1      43.282 -10.148   7.231  1.00  0.00     0.280 C 
BRANCH  17  18
HETATM   18  O   UNL     1      43.703  -9.357   8.337  1.00  0.00    -0.340 OA
BRANCH  18  19
HETATM   19  C   UNL     1      42.950  -9.439   9.481  1.00  0.00     0.092 A 
HETATM   20  C   UNL     1      43.615  -9.828  10.656  1.00  0.00     0.069 A 
HETATM   21 CL   UNL     1      45.301 -10.205  10.646  1.00  0.00    -0.081 Cl
HETATM   22  C   UNL     1      42.926  -9.930  11.867  1.00  0.00     0.052 A 
HETATM   23  C   UNL     1      41.564  -9.634  11.921  1.00  0.00     0.057 A 
HETATM   24 CL   UNL     1      40.767  -9.779  13.447  1.00  0.00    -0.082 Cl
HETATM   25  C   UNL     1      40.894  -9.233  10.762  1.00  0.00     0.058 A 
HETATM   26 CL   UNL     1      39.211  -8.836  10.755  1.00  0.00    -0.082 Cl
HETATM   27  C   UNL     1      41.585  -9.134   9.547  1.00  0.00     0.064 A 
ENDBRANCH  18  19
ENDBRANCH  17  18
ENDBRANCH   2  17
TORSDOF 5
ENDMDL
MODEL 2
REMARK VINA RESULT:      -8.1      5.946      8.125
REMARK  5 active torsions:
REMARK  status: ('A' for Active; 'I' for Inactive)
REMARK    1  A    between atoms: C_8  and  C_9 
REMARK    2  A    between atoms: N_10  and  N_11 
REMARK       I    between atoms: N_11  and  C_12 
REMARK    3  A    between atoms: C_12  and  C_13 
REMARK    4  A    between atoms: C_13  and  O_14 
REMARK    5  A    between atoms: O_14  and  C_15 
ROOT
HETATM    1  N   UNL     1      42.547 -13.255   2.953  1.00  0.00    -0.246 N 
HETATM    2  C   UNL     1      42.948 -11.931   3.080  1.00  0.00     0.261 C 
HETATM    3  O   UNL     1      43.735 -11.485   3.912  1.00  0.00    -0.269 OA
HETATM    4  H   UNL     1      42.092 -13.514   2.077  1.00  0.00     0.192 HD
ENDROOT
BRANCH   1   5
HETATM    5  N   UNL     1      43.007 -14.324   3.682  1.00  0.00    -0.184 NA
HETATM    6  C   UNL     1      42.962 -15.507   3.157  1.00  0.00     0.152 C 
BRANCH   6   7
HETATM    7  C   UNL     1      43.420 -16.652   3.922  1.00  0.00     0.011 A 
HETATM    8  C   UNL     1      43.472 -18.014   3.480  1.00  0.00     0.004 A 
HETATM    9  C   UNL     1      43.122 -18.673   2.281  1.00  0.00     0.014 A 
HETATM   10  C   UNL     1      43.987 -18.775   4.530  1.00  0.00     0.043 A 
HETATM   11  C   UNL     1      43.302 -20.057   2.176  1.00  0.00     0.001 A 
HETATM   12  C   UNL     1      43.822 -20.787   3.241  1.00  0.00     0.002 A 
HETATM   13  C   UNL     1      44.175 -20.160   4.440  1.00  0.00     0.030 A 
HETATM   14  N   UNL     1      44.235 -17.913   5.572  1.00  0.00    -0.364 N 
HETATM   15  H   UNL     1      44.612 -18.190   6.467  1.00  0.00     0.165 HD
HETATM   16  C   UNL     1      43.894 -16.634   5.220  1.00  0.00     0.102 A 
ENDBRANCH   6   7
ENDBRANCH   1   5
BRANCH   2  17
HETATM   17  C   UNL     1      42.236 -10.994   2.104  1.00  0.00     0.280 C 
BRANCH  17  18
HETATM   18  O   UNL     1      40.879 -11.371   1.896  1.00  0.00    -0.340 OA
BRANCH  18  19
HETATM   19  C   UNL     1      40.595 -12.052   0.738  1.00  0.00     0.092 A 
HETATM   20  C   UNL     1      39.867 -13.246   0.864  1.00  0.00     0.069 A 
HETATM   21 CL   UNL     1      39.377 -13.836   2.413  1.00  0.00    -0.081 Cl
HETATM   22  C   UNL     1      39.528 -13.999  -0.264  1.00  0.00     0.052 A 
HETATM   23  C   UNL     1      39.902 -13.559  -1.533  1.00  0.00     0.057 A 
HETATM   24 CL   UNL     1      39.454 -14.532  -2.888  1.00  0.00    -0.082 Cl
HETATM   25  C   UNL     1      40.615 -12.365  -1.672  1.00  0.00     0.058 A 
HETATM   26 CL   UNL     1      41.100 -11.751  -3.214  1.00  0.00    -0.082 Cl
HETATM   27  C   UNL     1      40.958 -11.613  -0.540  1.00  0.00     0.064 A 
ENDBRANCH  18  19
ENDBRANCH  17  18
ENDBRANCH   2  17
TORSDOF 5
ENDMDL
MODEL 3
REMARK VINA RESULT:      -8.1      7.658      9.526
REMARK  5 active torsions:
REMARK  status: ('A' for Active; 'I' for Inactive)
REMARK    1  A    between atoms: C_8  and  C_9 
REMARK    2  A    between atoms: N_10  and  N_11 
REMARK       I    between atoms: N_11  and  C_12 
REMARK    3  A    between atoms: C_12  and  C_13 
REMARK    4  A    between atoms: C_13  and  O_14 
REMARK    5  A    between atoms: O_14  and  C_15 
ROOT
HETATM    1  N   UNL     1      41.686 -14.242   2.138  1.00  0.00    -0.246 N 
HETATM    2  C   UNL     1      40.676 -14.219   1.184  1.00  0.00     0.261 C 
HETATM    3  O   UNL     1      39.929 -15.151   0.893  1.00  0.00    -0.269 OA
HETATM    4  H   UNL     1      42.051 -13.338   2.441  1.00  0.00     0.192 HD
ENDROOT
BRANCH   1   5
HETATM    5  N   UNL     1      41.991 -15.280   2.984  1.00  0.00    -0.184 NA
HETATM    6  C   UNL     1      43.220 -15.680   3.068  1.00  0.00     0.152 C 
BRANCH   6   7
HETATM    7  C   UNL     1      43.557 -16.792   3.937  1.00  0.00     0.011 A 
HETATM    8  C   UNL     1      43.605 -18.178   3.577  1.00  0.00     0.004 A 
HETATM    9  C   UNL     1      43.354 -18.894   2.386  1.00  0.00     0.014 A 
HETATM   10  C   UNL     1      43.983 -18.892   4.714  1.00  0.00     0.043 A 
HETATM   11  C   UNL     1      43.494 -20.286   2.375  1.00  0.00     0.001 A 
HETATM   12  C   UNL     1      43.878 -20.969   3.526  1.00  0.00     0.002 A 
HETATM   13  C   UNL     1      44.130 -20.285   4.719  1.00  0.00     0.030 A 
HETATM   14  N   UNL     1      44.156 -17.980   5.728  1.00  0.00    -0.364 N 
HETATM   15  H   UNL     1      44.430 -18.216   6.671  1.00  0.00     0.165 HD
HETATM   16  C   UNL     1      43.898 -16.714   5.274  1.00  0.00     0.102 A 
ENDBRANCH   6   7
ENDBRANCH   1   5
BRANCH   2  17
HETATM   17  C   UNL     1      40.608 -12.899   0.416  1.00  0.00     0.280 C 
BRANCH  17  18
HETATM   18  O   UNL     1      40.420 -13.103  -0.980  1.00  0.00    -0.340 OA
BRANCH  18  19
HETATM   19  C   UNL     1      39.271 -12.594  -1.532  1.00  0.00     0.092 A 
HETATM   20  C   UNL     1      38.436 -13.497  -2.212  1.00  0.00     0.069 A 
HETATM   21 CL   UNL     1      38.857 -15.167  -2.359  1.00  0.00    -0.081 Cl
HETATM   22  C   UNL     1      37.243 -13.065  -2.798  1.00  0.00     0.052 A 
HETATM   23  C   UNL     1      36.865 -11.726  -2.703  1.00  0.00     0.057 A 
HETATM   24 CL   UNL     1      35.380 -11.253  -3.448  1.00  0.00    -0.082 Cl
HETATM   25  C   UNL     1      37.681 -10.821  -2.017  1.00  0.00     0.058 A 
HETATM   26 CL   UNL     1      37.269  -9.151  -1.846  1.00  0.00    -0.082 Cl
HETATM   27  C   UNL     1      38.878 -11.255  -1.433  1.00  0.00     0.064 A 
ENDBRANCH  18  19
ENDBRANCH  17  18
ENDBRANCH   2  17
TORSDOF 5
ENDMDL
MODEL 4
REMARK VINA RESULT:      -8.0      7.416     10.213
REMARK  5 active torsions:
REMARK  status: ('A' for Active; 'I' for Inactive)
REMARK    1  A    between atoms: C_8  and  C_9 
REMARK    2  A    between atoms: N_10  and  N_11 
REMARK       I    between atoms: N_11  and  C_12 
REMARK    3  A    between atoms: C_12  and  C_13 
REMARK    4  A    between atoms: C_13  and  O_14 
REMARK    5  A    between atoms: O_14  and  C_15 
ROOT
HETATM    1  N   UNL     1      41.293 -14.712   0.580  1.00  0.00    -0.246 N 
HETATM    2  C   UNL     1      42.091 -14.021   1.484  1.00  0.00     0.261 C 
HETATM    3  O   UNL     1      41.950 -12.852   1.834  1.00  0.00    -0.269 OA
HETATM    4  H   UNL     1      41.378 -15.728   0.577  1.00  0.00     0.192 HD
ENDROOT
BRANCH   1   5
HETATM    5  N   UNL     1      40.157 -14.244  -0.034  1.00  0.00    -0.184 NA
HETATM    6  C   UNL     1      40.154 -14.098  -1.321  1.00  0.00     0.152 C 
BRANCH   6   7
HETATM    7  C   UNL     1      38.972 -13.580  -1.984  1.00  0.00     0.011 A 
HETATM    8  C   UNL     1      38.335 -12.320  -1.742  1.00  0.00     0.004 A 
HETATM    9  C   UNL     1      38.584 -11.246  -0.859  1.00  0.00     0.014 A 
HETATM   10  C   UNL     1      37.245 -12.229  -2.607  1.00  0.00     0.043 A 
HETATM   11  C   UNL     1      37.741 -10.128  -0.877  1.00  0.00     0.001 A 
HETATM   12  C   UNL     1      36.664 -10.067  -1.756  1.00  0.00     0.002 A 
HETATM   13  C   UNL     1      36.394 -11.116  -2.639  1.00  0.00     0.030 A 
HETATM   14  N   UNL     1      37.214 -13.389  -3.344  1.00  0.00    -0.364 N 
HETATM   15  H   UNL     1      36.526 -13.600  -4.053  1.00  0.00     0.165 HD
HETATM   16  C   UNL     1      38.245 -14.211  -2.976  1.00  0.00     0.102 A 
ENDBRANCH   6   7
ENDBRANCH   1   5
BRANCH   2  17
HETATM   17  C   UNL     1      43.280 -14.843   1.981  1.00  0.00     0.280 C 
BRANCH  17  18
HETATM   18  O   UNL     1      43.121 -15.244   3.338  1.00  0.00    -0.340 OA
BRANCH  18  19
HETATM   19  C   UNL     1      43.427 -16.547   3.641  1.00  0.00     0.092 A 
HETATM   20  C   UNL     1      43.805 -16.822   4.965  1.00  0.00     0.069 A 
HETATM   21 CL   UNL     1      43.901 -15.565   6.147  1.00  0.00    -0.081 Cl
HETATM   22  C   UNL     1      44.126 -18.123   5.362  1.00  0.00     0.052 A 
HETATM   23  C   UNL     1      44.061 -19.168   4.440  1.00  0.00     0.057 A 
HETATM   24 CL   UNL     1      44.470 -20.754   4.990  1.00  0.00    -0.082 Cl
HETATM   25  C   UNL     1      43.673 -18.909   3.123  1.00  0.00     0.058 A 
HETATM   26 CL   UNL     1      43.556 -20.156   1.930  1.00  0.00    -0.082 Cl
HETATM   27  C   UNL     1      43.355 -17.603   2.725  1.00  0.00     0.064 A 
ENDBRANCH  18  19
ENDBRANCH  17  18
ENDBRANCH   2  17
TORSDOF 5
ENDMDL
MODEL 5
REMARK VINA RESULT:      -8.0      6.410      9.434
REMARK  5 active torsions:
REMARK  status: ('A' for Active; 'I' for Inactive)
REMARK    1  A    between atoms: C_8  and  C_9 
REMARK    2  A    between atoms: N_10  and  N_11 
REMARK       I    between atoms: N_11  and  C_12 
REMARK    3  A    between atoms: C_12  and  C_13 
REMARK    4  A    between atoms: C_13  and  O_14 
REMARK    5  A    between atoms: O_14  and  C_15 
ROOT
HETATM    1  N   UNL     1      41.186 -13.907   4.086  1.00  0.00    -0.246 N 
HETATM    2  C   UNL     1      41.229 -15.133   4.737  1.00  0.00     0.261 C 
HETATM    3  O   UNL     1      40.372 -16.014   4.689  1.00  0.00    -0.269 OA
HETATM    4  H   UNL     1      42.064 -13.392   4.021  1.00  0.00     0.192 HD
ENDROOT
BRANCH   1   5
HETATM    5  N   UNL     1      40.220 -13.477   3.210  1.00  0.00    -0.184 NA
HETATM    6  C   UNL     1      40.530 -13.316   1.963  1.00  0.00     0.152 C 
BRANCH   6   7
HETATM    7  C   UNL     1      39.529 -12.839   1.028  1.00  0.00     0.011 A 
HETATM    8  C   UNL     1      39.390 -13.215  -0.347  1.00  0.00     0.004 A 
HETATM    9  C   UNL     1      40.104 -14.078  -1.208  1.00  0.00     0.014 A 
HETATM   10  C   UNL     1      38.292 -12.526  -0.862  1.00  0.00     0.043 A 
HETATM   11  C   UNL     1      39.694 -14.221  -2.538  1.00  0.00     0.001 A 
HETATM   12  C   UNL     1      38.591 -13.522  -3.019  1.00  0.00     0.002 A 
HETATM   13  C   UNL     1      37.867 -12.660  -2.190  1.00  0.00     0.030 A 
HETATM   14  N   UNL     1      37.783 -11.756   0.158  1.00  0.00    -0.364 N 
HETATM   15  H   UNL     1      36.981 -11.147   0.071  1.00  0.00     0.165 HD
HETATM   16  C   UNL     1      38.521 -11.932   1.298  1.00  0.00     0.102 A 
ENDBRANCH   6   7
ENDBRANCH   1   5
BRANCH   2  17
HETATM   17  C   UNL     1      42.452 -15.289   5.641  1.00  0.00     0.280 C 
BRANCH  17  18
HETATM   18  O   UNL     1      43.625 -15.605   4.900  1.00  0.00    -0.340 OA
BRANCH  18  19
HETATM   19  C   UNL     1      43.686 -16.855   4.335  1.00  0.00     0.092 A 
HETATM   20  C   UNL     1      43.585 -16.928   2.937  1.00  0.00     0.069 A 
HETATM   21 CL   UNL     1      43.372 -15.505   1.979  1.00  0.00    -0.081 Cl
HETATM   22  C   UNL     1      43.643 -18.160   2.279  1.00  0.00     0.052 A 
HETATM   23  C   UNL     1      43.815 -19.334   3.012  1.00  0.00     0.057 A 
HETATM   24 CL   UNL     1      43.880 -20.825   2.143  1.00  0.00    -0.082 Cl
HETATM   25  C   UNL     1      43.931 -19.272   4.404  1.00  0.00     0.058 A 
HETATM   26 CL   UNL     1      44.160 -20.683   5.377  1.00  0.00    -0.082 Cl
HETATM   27  C   UNL     1      43.868 -18.037   5.063  1.00  0.00     0.064 A 
ENDBRANCH  18  19
ENDBRANCH  17  18
ENDBRANCH   2  17
TORSDOF 5
ENDMDL
MODEL 6
REMARK VINA RESULT:      -7.8      7.269      9.110
REMARK  5 active torsions:
REMARK  status: ('A' for Active; 'I' for Inactive)
REMARK    1  A    between atoms: C_8  and  C_9 
REMARK    2  A    between atoms: N_10  and  N_11 
REMARK       I    between atoms: N_11  and  C_12 
REMARK    3  A    between atoms: C_12  and  C_13 
REMARK    4  A    between atoms: C_13  and  O_14 
REMARK    5  A    between atoms: O_14  and  C_15 
ROOT
HETATM    1  N   UNL     1      41.217 -14.617   1.765  1.00  0.00    -0.246 N 
HETATM    2  C   UNL     1      40.275 -13.644   2.080  1.00  0.00     0.261 C 
HETATM    3  O   UNL     1      39.619 -13.575   3.118  1.00  0.00    -0.269 OA
HETATM    4  H   UNL     1      41.848 -14.409   0.992  1.00  0.00     0.192 HD
ENDROOT
BRANCH   1   5
HETATM    5  N   UNL     1      41.645 -15.636   2.579  1.00  0.00    -0.184 NA
HETATM    6  C   UNL     1      42.889 -15.672   2.938  1.00  0.00     0.152 C 
BRANCH   6   7
HETATM    7  C   UNL     1      43.366 -16.756   3.776  1.00  0.00     0.011 A 
HETATM    8  C   UNL     1      43.457 -18.141   3.419  1.00  0.00     0.004 A 
HETATM    9  C   UNL     1      43.138 -18.880   2.259  1.00  0.00     0.014 A 
HETATM   10  C   UNL     1      43.977 -18.824   4.518  1.00  0.00     0.043 A 
HETATM   11  C   UNL     1      43.353 -20.263   2.240  1.00  0.00     0.001 A 
HETATM   12  C   UNL     1      43.879 -20.913   3.353  1.00  0.00     0.002 A 
HETATM   13  C   UNL     1      44.201 -20.206   4.515  1.00  0.00     0.030 A 
HETATM   14  N   UNL     1      44.191 -17.893   5.509  1.00  0.00    -0.364 N 
HETATM   15  H   UNL     1      44.564 -18.106   6.423  1.00  0.00     0.165 HD
HETATM   16  C   UNL     1      43.823 -16.648   5.076  1.00  0.00     0.102 A 
ENDBRANCH   6   7
ENDBRANCH   1   5
BRANCH   2  17
HETATM   17  C   UNL     1      40.036 -12.652   0.942  1.00  0.00     0.280 C 
BRANCH  17  18
HETATM   18  O   UNL     1      41.037 -12.746  -0.066  1.00  0.00    -0.340 OA
BRANCH  18  19
HETATM   19  C   UNL     1      41.032 -11.775  -1.036  1.00  0.00     0.092 A 
HETATM   20  C   UNL     1      40.721 -12.183  -2.344  1.00  0.00     0.069 A 
HETATM   21 CL   UNL     1      40.382 -13.838  -2.708  1.00  0.00    -0.081 Cl
HETATM   22  C   UNL     1      40.687 -11.259  -3.392  1.00  0.00     0.052 A 
HETATM   23  C   UNL     1      40.952  -9.913  -3.143  1.00  0.00     0.057 A 
HETATM   24 CL   UNL     1      40.895  -8.819  -4.479  1.00  0.00    -0.082 Cl
HETATM   25  C   UNL     1      41.250  -9.492  -1.844  1.00  0.00     0.058 A 
HETATM   26 CL   UNL     1      41.576  -7.839  -1.458  1.00  0.00    -0.082 Cl
HETATM   27  C   UNL     1      41.288 -10.421  -0.794  1.00  0.00     0.064 A 
ENDBRANCH  18  19
ENDBRANCH  17  18
ENDBRANCH   2  17
TORSDOF 5
ENDMDL
MODEL 7
REMARK VINA RESULT:      -7.7      1.746      1.820
REMARK  5 active torsions:
REMARK  status: ('A' for Active; 'I' for Inactive)
REMARK    1  A    between atoms: C_8  and  C_9 
REMARK    2  A    between atoms: N_10  and  N_11 
REMARK       I    between atoms: N_11  and  C_12 
REMARK    3  A    between atoms: C_12  and  C_13 
REMARK    4  A    between atoms: C_13  and  O_14 
REMARK    5  A    between atoms: O_14  and  C_15 
ROOT
HETATM    1  N   UNL     1      43.894 -12.218   7.320  1.00  0.00    -0.246 N 
HETATM    2  C   UNL     1      44.806 -11.172   7.397  1.00  0.00     0.261 C 
HETATM    3  O   UNL     1      45.978 -11.199   7.029  1.00  0.00    -0.269 OA
HETATM    4  H   UNL     1      42.910 -11.977   7.431  1.00  0.00     0.192 HD
ENDROOT
BRANCH   1   5
HETATM    5  N   UNL     1      44.108 -13.450   6.752  1.00  0.00    -0.184 NA
HETATM    6  C   UNL     1      43.135 -14.304   6.722  1.00  0.00     0.152 C 
BRANCH   6   7
HETATM    7  C   UNL     1      43.349 -15.620   6.150  1.00  0.00     0.011 A 
HETATM    8  C   UNL     1      43.276 -15.975   4.764  1.00  0.00     0.004 A 
HETATM    9  C   UNL     1      42.985 -15.262   3.580  1.00  0.00     0.014 A 
HETATM   10  C   UNL     1      43.563 -17.337   4.665  1.00  0.00     0.043 A 
HETATM   11  C   UNL     1      42.996 -15.932   2.351  1.00  0.00     0.001 A 
HETATM   12  C   UNL     1      43.291 -17.290   2.286  1.00  0.00     0.002 A 
HETATM   13  C   UNL     1      43.581 -18.021   3.443  1.00  0.00     0.030 A 
HETATM   14  N   UNL     1      43.798 -17.795   5.941  1.00  0.00    -0.364 N 
HETATM   15  H   UNL     1      44.030 -18.751   6.172  1.00  0.00     0.165 HD
HETATM   16  C   UNL     1      43.668 -16.773   6.842  1.00  0.00     0.102 A 
ENDBRANCH   6   7
ENDBRANCH   1   5
BRANCH   2  17
HETATM   17  C   UNL     1      44.238  -9.934   8.091  1.00  0.00     0.280 C 
BRANCH  17  18
HETATM   18  O   UNL     1      43.440 -10.273   9.220  1.00  0.00    -0.340 OA
BRANCH  18  19
HETATM   19  C   UNL     1      43.203  -9.278  10.134  1.00  0.00     0.092 A 
HETATM   20  C   UNL     1      43.318  -9.619  11.492  1.00  0.00     0.069 A 
HETATM   21 CL   UNL     1      43.719 -11.228  11.979  1.00  0.00    -0.081 Cl
HETATM   22  C   UNL     1      43.102  -8.665  12.490  1.00  0.00     0.052 A 
HETATM   23  C   UNL     1      42.778  -7.354  12.142  1.00  0.00     0.057 A 
HETATM   24 CL   UNL     1      42.521  -6.220  13.419  1.00  0.00    -0.082 Cl
HETATM   25  C   UNL     1      42.674  -6.999  10.794  1.00  0.00     0.058 A 
HETATM   26 CL   UNL     1      42.290  -5.391  10.287  1.00  0.00    -0.082 Cl
HETATM   27  C   UNL     1      42.888  -7.957   9.794  1.00  0.00     0.064 A 
ENDBRANCH  18  19
ENDBRANCH  17  18
ENDBRANCH   2  17
TORSDOF 5
ENDMDL
MODEL 8
REMARK VINA RESULT:      -7.6      1.673      2.498
REMARK  5 active torsions:
REMARK  status: ('A' for Active; 'I' for Inactive)
REMARK    1  A    between atoms: C_8  and  C_9 
REMARK    2  A    between atoms: N_10  and  N_11 
REMARK       I    between atoms: N_11  and  C_12 
REMARK    3  A    between atoms: C_12  and  C_13 
REMARK    4  A    between atoms: C_13  and  O_14 
REMARK    5  A    between atoms: O_14  and  C_15 
ROOT
HETATM    1  N   UNL     1      43.037 -12.595   6.863  1.00  0.00    -0.246 N 
HETATM    2  C   UNL     1      44.057 -11.659   6.984  1.00  0.00     0.261 C 
HETATM    3  O   UNL     1      44.898 -11.385   6.130  1.00  0.00    -0.269 OA
HETATM    4  H   UNL     1      42.280 -12.537   7.544  1.00  0.00     0.192 HD
ENDROOT
BRANCH   1   5
HETATM    5  N   UNL     1      42.731 -13.335   5.747  1.00  0.00    -0.184 NA
HETATM    6  C   UNL     1      43.178 -14.547   5.655  1.00  0.00     0.152 C 
BRANCH   6   7
HETATM    7  C   UNL     1      42.886 -15.333   4.472  1.00  0.00     0.011 A 
HETATM    8  C   UNL     1      43.355 -16.656   4.184  1.00  0.00     0.004 A 
HETATM    9  C   UNL     1      44.191 -17.572   4.859  1.00  0.00     0.014 A 
HETATM   10  C   UNL     1      42.822 -17.030   2.950  1.00  0.00     0.043 A 
HETATM   11  C   UNL     1      44.459 -18.818   4.281  1.00  0.00     0.001 A 
HETATM   12  C   UNL     1      43.907 -19.162   3.051  1.00  0.00     0.002 A 
HETATM   13  C   UNL     1      43.077 -18.274   2.360  1.00  0.00     0.030 A 
HETATM   14  N   UNL     1      42.061 -15.976   2.501  1.00  0.00    -0.364 N 
HETATM   15  H   UNL     1      41.555 -15.966   1.627  1.00  0.00     0.165 HD
HETATM   16  C   UNL     1      42.095 -14.948   3.405  1.00  0.00     0.102 A 
ENDBRANCH   6   7
ENDBRANCH   1   5
BRANCH   2  17
HETATM   17  C   UNL     1      44.116 -11.013   8.367  1.00  0.00     0.280 C 
BRANCH  17  18
HETATM   18  O   UNL     1      43.722  -9.645   8.334  1.00  0.00    -0.340 OA
BRANCH  18  19
HETATM   19  C   UNL     1      42.981  -9.187   9.394  1.00  0.00     0.092 A 
HETATM   20  C   UNL     1      41.589  -9.124   9.218  1.00  0.00     0.069 A 
HETATM   21 CL   UNL     1      40.854  -9.585   7.723  1.00  0.00    -0.081 Cl
HETATM   22  C   UNL     1      40.757  -8.676  10.248  1.00  0.00     0.052 A 
HETATM   23  C   UNL     1      41.307  -8.296  11.472  1.00  0.00     0.057 A 
HETATM   24 CL   UNL     1      40.229  -7.751  12.706  1.00  0.00    -0.082 Cl
HETATM   25  C   UNL     1      42.690  -8.366  11.664  1.00  0.00     0.058 A 
HETATM   26 CL   UNL     1      43.441  -7.925  13.157  1.00  0.00    -0.082 Cl
HETATM   27  C   UNL     1      43.523  -8.812  10.628  1.00  0.00     0.064 A 
ENDBRANCH  18  19
ENDBRANCH  17  18
ENDBRANCH   2  17
TORSDOF 5
ENDMDL
MODEL 9
REMARK VINA RESULT:      -7.6      4.551      8.972
REMARK  5 active torsions:
REMARK  status: ('A' for Active; 'I' for Inactive)
REMARK    1  A    between atoms: C_8  and  C_9 
REMARK    2  A    between atoms: N_10  and  N_11 
REMARK       I    between atoms: N_11  and  C_12 
REMARK    3  A    between atoms: C_12  and  C_13 
REMARK    4  A    between atoms: C_13  and  O_14 
REMARK    5  A    between atoms: O_14  and  C_15 
ROOT
HETATM    1  N   UNL     1      41.758 -12.113   4.778  1.00  0.00    -0.246 N 
HETATM    2  C   UNL     1      41.852 -12.553   3.463  1.00  0.00     0.261 C 
HETATM    3  O   UNL     1      42.784 -12.343   2.690  1.00  0.00    -0.269 OA
HETATM    4  H   UNL     1      41.056 -12.566   5.363  1.00  0.00     0.192 HD
ENDROOT
BRANCH   1   5
HETATM    5  N   UNL     1      42.717 -11.428   5.483  1.00  0.00    -0.184 NA
HETATM    6  C   UNL     1      43.662 -12.094   6.067  1.00  0.00     0.152 C 
BRANCH   6   7
HETATM    7  C   UNL     1      44.668 -11.389   6.838  1.00  0.00     0.011 A 
HETATM    8  C   UNL     1      44.487 -10.758   8.111  1.00  0.00     0.004 A 
HETATM    9  C   UNL     1      43.386 -10.593   8.980  1.00  0.00     0.014 A 
HETATM   10  C   UNL     1      45.716 -10.215   8.488  1.00  0.00     0.043 A 
HETATM   11  C   UNL     1      43.554  -9.900  10.184  1.00  0.00     0.001 A 
HETATM   12  C   UNL     1      44.795  -9.375  10.532  1.00  0.00     0.002 A 
HETATM   13  C   UNL     1      45.902  -9.521   9.691  1.00  0.00     0.030 A 
HETATM   14  N   UNL     1      46.610 -10.499   7.482  1.00  0.00    -0.364 N 
HETATM   15  H   UNL     1      47.582 -10.224   7.485  1.00  0.00     0.165 HD
HETATM   16  C   UNL     1      45.991 -11.201   6.483  1.00  0.00     0.102 A 
ENDBRANCH   6   7
ENDBRANCH   1   5
BRANCH   2  17
HETATM   17  C   UNL     1      40.601 -13.292   2.988  1.00  0.00     0.280 C 
BRANCH  17  18
HETATM   18  O   UNL     1      40.366 -14.479   3.737  1.00  0.00    -0.340 OA
BRANCH  18  19
HETATM   19  C   UNL     1      41.302 -15.477   3.628  1.00  0.00     0.092 A 
HETATM   20  C   UNL     1      41.232 -16.294   2.487  1.00  0.00     0.069 A 
HETATM   21 CL   UNL     1      40.007 -16.058   1.292  1.00  0.00    -0.081 Cl
HETATM   22  C   UNL     1      42.150 -17.329   2.292  1.00  0.00     0.052 A 
HETATM   23  C   UNL     1      43.157 -17.554   3.231  1.00  0.00     0.057 A 
HETATM   24 CL   UNL     1      44.261 -18.849   2.935  1.00  0.00    -0.082 Cl
HETATM   25  C   UNL     1      43.244 -16.740   4.364  1.00  0.00     0.058 A 
HETATM   26 CL   UNL     1      44.472 -16.950   5.562  1.00  0.00    -0.082 Cl
HETATM   27  C   UNL     1      42.321 -15.704   4.560  1.00  0.00     0.064 A 
ENDBRANCH  18  19
ENDBRANCH  17  18
ENDBRANCH   2  17
TORSDOF 5
ENDMDL
MODEL 10
REMARK VINA RESULT:      -7.4      1.697      2.297
REMARK  5 active torsions:
REMARK  status: ('A' for Active; 'I' for Inactive)
REMARK    1  A    between atoms: C_8  and  C_9 
REMARK    2  A    between atoms: N_10  and  N_11 
REMARK       I    between atoms: N_11  and  C_12 
REMARK    3  A    between atoms: C_12  and  C_13 
REMARK    4  A    between atoms: C_13  and  O_14 
REMARK    5  A    between atoms: O_14  and  C_15 
ROOT
HETATM    1  N   UNL     1      42.690 -13.363   6.011  1.00  0.00    -0.246 N 
HETATM    2  C   UNL     1      43.264 -12.100   5.934  1.00  0.00     0.261 C 
HETATM    3  O   UNL     1      44.328 -11.816   5.388  1.00  0.00    -0.269 OA
HETATM    4  H   UNL     1      41.704 -13.403   6.271  1.00  0.00     0.192 HD
ENDROOT
BRANCH   1   5
HETATM    5  N   UNL     1      43.162 -14.515   5.431  1.00  0.00    -0.184 NA
HETATM    6  C   UNL     1      42.515 -15.026   4.433  1.00  0.00     0.152 C 
BRANCH   6   7
HETATM    7  C   UNL     1      42.985 -16.257   3.825  1.00  0.00     0.011 A 
HETATM    8  C   UNL     1      43.287 -17.485   4.497  1.00  0.00     0.004 A 
HETATM    9  C   UNL     1      43.258 -17.901   5.846  1.00  0.00     0.014 A 
HETATM   10  C   UNL     1      43.692 -18.404   3.528  1.00  0.00     0.043 A 
HETATM   11  C   UNL     1      43.629 -19.210   6.174  1.00  0.00     0.001 A 
HETATM   12  C   UNL     1      44.024 -20.104   5.183  1.00  0.00     0.002 A 
HETATM   13  C   UNL     1      44.064 -19.718   3.839  1.00  0.00     0.030 A 
HETATM   14  N   UNL     1      43.644 -17.760   2.314  1.00  0.00    -0.364 N 
HETATM   15  H   UNL     1      43.886 -18.185   1.430  1.00  0.00     0.165 HD
HETATM   16  C   UNL     1      43.224 -16.468   2.480  1.00  0.00     0.102 A 
ENDBRANCH   6   7
ENDBRANCH   1   5
BRANCH   2  17
HETATM   17  C   UNL     1      42.472 -11.036   6.693  1.00  0.00     0.280 C 
BRANCH  17  18
HETATM   18  O   UNL     1      43.282  -9.919   7.046  1.00  0.00    -0.340 OA
BRANCH  18  19
HETATM   19  C   UNL     1      43.244  -9.515   8.358  1.00  0.00     0.092 A 
HETATM   20  C   UNL     1      44.386  -9.767   9.135  1.00  0.00     0.069 A 
HETATM   21 CL   UNL     1      45.763 -10.570   8.468  1.00  0.00    -0.081 Cl
HETATM   22  C   UNL     1      44.436  -9.383  10.478  1.00  0.00     0.052 A 
HETATM   23  C   UNL     1      43.347  -8.731  11.057  1.00  0.00     0.057 A 
HETATM   24 CL   UNL     1      43.467  -8.281  12.720  1.00  0.00    -0.082 Cl
HETATM   25  C   UNL     1      42.209  -8.462  10.289  1.00  0.00     0.058 A 
HETATM   26 CL   UNL     1      40.829  -7.647  10.935  1.00  0.00    -0.082 Cl
HETATM   27  C   UNL     1      42.160  -8.852   8.944  1.00  0.00     0.064 A 
ENDBRANCH  18  19
ENDBRANCH  17  18
ENDBRANCH   2  17
TORSDOF 5
ENDMDL
