MODEL 1
REMARK VINA RESULT:      -8.8      0.000      0.000
REMARK  8 active torsions:
REMARK  status: ('A' for Active; 'I' for Inactive)
REMARK       I    between atoms: C_2  and  N_3 
REMARK    1  A    between atoms: N_3  and  C_4 
REMARK    2  A    between atoms: C_6  and  N_7 
REMARK       I    between atoms: N_7  and  C_8 
REMARK    3  A    between atoms: C_8  and  C_9 
REMARK       I    between atoms: C_9  and  N_10 
REMARK    4  A    between atoms: N_10  and  C_11 
REMARK    5  A    between atoms: C_11  and  C_12 
REMARK    6  A    between atoms: C_12  and  S_13 
REMARK    7  A    between atoms: S_13  and  C_14 
REMARK    8  A    between atoms: C_16  and  C_17 
ROOT
HETATM    1  C   UNL     1      42.514 -12.453   3.798  1.00  0.00     0.309 C 
HETATM    2  N   UNL     1      41.160 -12.226   3.854  1.00  0.00    -0.352 N 
HETATM    3  O   UNL     1      43.179 -12.642   2.789  1.00  0.00    -0.262 OA
HETATM    4  H   UNL     1      40.755 -12.195   4.788  1.00  0.00     0.162 HD
ENDROOT
BRANCH   1   5
HETATM    5  C   UNL     1      43.196 -12.460   5.184  1.00  0.00     0.313 C 
HETATM    6  N   UNL     1      43.494 -11.186   5.619  1.00  0.00    -0.319 N 
HETATM    7  H   UNL     1      43.187 -10.450   4.988  1.00  0.00     0.169 HD
HETATM    8  O   UNL     1      43.381 -13.536   5.734  1.00  0.00    -0.262 OA
BRANCH   6   9
HETATM    9  C   UNL     1      44.148 -10.808   6.804  1.00  0.00     0.037 A 
HETATM   10  C   UNL     1      43.482 -10.405   7.970  1.00  0.00     0.059 A 
HETATM   11  C   UNL     1      44.201 -10.053   9.119  1.00  0.00     0.036 A 
HETATM   12  C   UNL     1      45.601 -10.090   9.084  1.00  0.00     0.029 A 
HETATM   13  C   UNL     1      46.271 -10.494   7.929  1.00  0.00     0.004 A 
HETATM   14  C   UNL     1      45.546 -10.857   6.797  1.00  0.00     0.029 A 
BRANCH  11  15
HETATM   15  N   UNL     1      43.608  -9.650  10.336  1.00  0.00    -0.327 N 
HETATM   16  C   UNL     1      43.460 -10.394  11.491  1.00  0.00     0.218 C 
HETATM   17  C   UNL     1      42.744  -9.644  12.589  1.00  0.00     0.117 C 
HETATM   18  O   UNL     1      43.858 -11.537  11.690  1.00  0.00    -0.274 OA
HETATM   19  H   UNL     1      43.293  -8.689  10.371  1.00  0.00     0.169 HD
ENDBRANCH  11  15
ENDBRANCH   6   9
ENDBRANCH   1   5
BRANCH   2  20
HETATM   20  C   UNL     1      40.288 -12.364   2.706  1.00  0.00     0.133 C 
BRANCH  20  21
HETATM   21  C   UNL     1      39.678 -13.763   2.578  1.00  0.00     0.102 C 
BRANCH  21  22
HETATM   22  S   UNL     1      40.109 -14.515   0.971  1.00  0.00    -0.090 SA
BRANCH  22  23
HETATM   23  C   UNL     1      41.469 -15.467   1.426  1.00  0.00     0.166 A 
HETATM   24  N   UNL     1      41.474 -16.609   2.065  1.00  0.00    -0.223 NA
HETATM   25  C   UNL     1      42.808 -16.936   2.210  1.00  0.00     0.085 A 
HETATM   26  C   UNL     1      43.602 -15.966   1.632  1.00  0.00     0.122 A 
HETATM   27  N   UNL     1      42.728 -15.037   1.136  1.00  0.00    -0.343 N 
HETATM   28  H   UNL     1      42.950 -14.182   0.645  1.00  0.00     0.167 HD
BRANCH  25  29
HETATM   29  C   UNL     1      43.261 -18.144   2.888  1.00  0.00    -0.006 A 
HETATM   30  C   UNL     1      43.215 -19.372   2.211  1.00  0.00     0.014 A 
HETATM   31  C   UNL     1      43.635 -20.552   2.832  1.00  0.00     0.001 A 
HETATM   32  C   UNL     1      44.109 -20.517   4.141  1.00  0.00     0.000 A 
HETATM   33  C   UNL     1      44.161 -19.307   4.829  1.00  0.00     0.001 A 
HETATM   34  C   UNL     1      43.740 -18.127   4.206  1.00  0.00     0.014 A 
ENDBRANCH  25  29
ENDBRANCH  22  23
ENDBRANCH  21  22
ENDBRANCH  20  21
ENDBRANCH   2  20
TORSDOF 8
ENDMDL
MODEL 2
REMARK VINA RESULT:      -8.6      1.402      1.986
REMARK  8 active torsions:
REMARK  status: ('A' for Active; 'I' for Inactive)
REMARK       I    between atoms: C_2  and  N_3 
REMARK    1  A    between atoms: N_3  and  C_4 
REMARK    2  A    between atoms: C_6  and  N_7 
REMARK       I    between atoms: N_7  and  C_8 
REMARK    3  A    between atoms: C_8  and  C_9 
REMARK       I    between atoms: C_9  and  N_10 
REMARK    4  A    between atoms: N_10  and  C_11 
REMARK    5  A    between atoms: C_11  and  C_12 
REMARK    6  A    between atoms: C_12  and  S_13 
REMARK    7  A    between atoms: S_13  and  C_14 
REMARK    8  A    between atoms: C_16  and  C_17 
ROOT
HETATM    1  C   UNL     1      40.866 -12.667   4.159  1.00  0.00     0.309 C 
HETATM    2  N   UNL     1      41.248 -11.818   3.148  1.00  0.00    -0.352 N 
HETATM    3  O   UNL     1      39.910 -13.429   4.146  1.00  0.00    -0.262 OA
HETATM    4  H   UNL     1      42.008 -11.177   3.372  1.00  0.00     0.162 HD
ENDROOT
BRANCH   1   5
HETATM    5  C   UNL     1      41.780 -12.595   5.403  1.00  0.00     0.313 C 
HETATM    6  N   UNL     1      42.576 -11.470   5.393  1.00  0.00    -0.319 N 
HETATM    7  H   UNL     1      42.413 -10.852   4.602  1.00  0.00     0.169 HD
HETATM    8  O   UNL     1      41.698 -13.488   6.234  1.00  0.00    -0.262 OA
BRANCH   6   9
HETATM    9  C   UNL     1      43.553 -11.094   6.331  1.00  0.00     0.037 A 
HETATM   10  C   UNL     1      43.271 -10.406   7.519  1.00  0.00     0.059 A 
HETATM   11  C   UNL     1      44.296 -10.074   8.414  1.00  0.00     0.036 A 
HETATM   12  C   UNL     1      45.616 -10.423   8.098  1.00  0.00     0.029 A 
HETATM   13  C   UNL     1      45.904 -11.111   6.919  1.00  0.00     0.004 A 
HETATM   14  C   UNL     1      44.875 -11.451   6.044  1.00  0.00     0.029 A 
BRANCH  11  15
HETATM   15  N   UNL     1      44.096  -9.395   9.637  1.00  0.00    -0.327 N 
HETATM   16  C   UNL     1      43.873  -9.948  10.884  1.00  0.00     0.218 C 
HETATM   17  C   UNL     1      43.669  -8.910  11.961  1.00  0.00     0.117 C 
HETATM   18  O   UNL     1      43.851 -11.140  11.170  1.00  0.00    -0.274 OA
HETATM   19  H   UNL     1      44.165  -8.387   9.593  1.00  0.00     0.169 HD
ENDBRANCH  11  15
ENDBRANCH   6   9
ENDBRANCH   1   5
BRANCH   2  20
HETATM   20  C   UNL     1      40.438 -11.576   1.972  1.00  0.00     0.133 C 
BRANCH  20  21
HETATM   21  C   UNL     1      41.197 -11.804   0.662  1.00  0.00     0.102 C 
BRANCH  21  22
HETATM   22  S   UNL     1      40.476 -13.199  -0.271  1.00  0.00    -0.090 SA
BRANCH  22  23
HETATM   23  C   UNL     1      40.708 -14.481   0.853  1.00  0.00     0.166 A 
HETATM   24  N   UNL     1      41.838 -14.993   1.268  1.00  0.00    -0.223 NA
HETATM   25  C   UNL     1      41.479 -16.010   2.132  1.00  0.00     0.085 A 
HETATM   26  C   UNL     1      40.104 -16.087   2.230  1.00  0.00     0.122 A 
HETATM   27  N   UNL     1      39.629 -15.101   1.407  1.00  0.00    -0.343 N 
HETATM   28  H   UNL     1      38.665 -14.862   1.225  1.00  0.00     0.167 HD
BRANCH  25  29
HETATM   29  C   UNL     1      42.452 -16.854   2.813  1.00  0.00    -0.006 A 
HETATM   30  C   UNL     1      42.961 -16.451   4.056  1.00  0.00     0.014 A 
HETATM   31  C   UNL     1      43.900 -17.233   4.736  1.00  0.00     0.001 A 
HETATM   32  C   UNL     1      44.341 -18.430   4.179  1.00  0.00     0.000 A 
HETATM   33  C   UNL     1      43.846 -18.845   2.945  1.00  0.00     0.001 A 
HETATM   34  C   UNL     1      42.906 -18.062   2.266  1.00  0.00     0.014 A 
ENDBRANCH  25  29
ENDBRANCH  22  23
ENDBRANCH  21  22
ENDBRANCH  20  21
ENDBRANCH   2  20
TORSDOF 8
ENDMDL
MODEL 3
REMARK VINA RESULT:      -8.3      2.418      3.598
REMARK  8 active torsions:
REMARK  status: ('A' for Active; 'I' for Inactive)
REMARK       I    between atoms: C_2  and  N_3 
REMARK    1  A    between atoms: N_3  and  C_4 
REMARK    2  A    between atoms: C_6  and  N_7 
REMARK       I    between atoms: N_7  and  C_8 
REMARK    3  A    between atoms: C_8  and  C_9 
REMARK       I    between atoms: C_9  and  N_10 
REMARK    4  A    between atoms: N_10  and  C_11 
REMARK    5  A    between atoms: C_11  and  C_12 
REMARK    6  A    between atoms: C_12  and  S_13 
REMARK    7  A    between atoms: S_13  and  C_14 
REMARK    8  A    between atoms: C_16  and  C_17 
ROOT
HETATM    1  C   UNL     1      44.537 -11.801   7.122  1.00  0.00     0.309 C 
HETATM    2  N   UNL     1      43.385 -12.549   7.055  1.00  0.00    -0.352 N 
HETATM    3  O   UNL     1      45.451 -11.802   6.311  1.00  0.00    -0.262 OA
HETATM    4  H   UNL     1      42.779 -12.501   7.873  1.00  0.00     0.162 HD
ENDROOT
BRANCH   1   5
HETATM    5  C   UNL     1      44.614 -10.898   8.374  1.00  0.00     0.313 C 
HETATM    6  N   UNL     1      43.367 -10.488   8.791  1.00  0.00    -0.319 N 
HETATM    7  H   UNL     1      42.599 -10.869   8.244  1.00  0.00     0.169 HD
HETATM    8  O   UNL     1      45.715 -10.663   8.851  1.00  0.00    -0.262 OA
BRANCH   6   9
HETATM    9  C   UNL     1      43.052  -9.632   9.862  1.00  0.00     0.037 A 
HETATM   10  C   UNL     1      41.836  -8.945   9.981  1.00  0.00     0.059 A 
HETATM   11  C   UNL     1      41.587  -8.117  11.082  1.00  0.00     0.036 A 
HETATM   12  C   UNL     1      42.580  -7.968  12.060  1.00  0.00     0.029 A 
HETATM   13  C   UNL     1      43.791  -8.651  11.950  1.00  0.00     0.004 A 
HETATM   14  C   UNL     1      44.021  -9.485  10.858  1.00  0.00     0.029 A 
BRANCH  11  15
HETATM   15  N   UNL     1      40.386  -7.402  11.285  1.00  0.00    -0.327 N 
HETATM   16  C   UNL     1      39.292  -7.783  12.039  1.00  0.00     0.218 C 
HETATM   17  C   UNL     1      38.168  -6.776  12.000  1.00  0.00     0.117 C 
HETATM   18  O   UNL     1      39.178  -8.801  12.713  1.00  0.00    -0.274 OA
HETATM   19  H   UNL     1      40.345  -6.486  10.857  1.00  0.00     0.169 HD
ENDBRANCH  11  15
ENDBRANCH   6   9
ENDBRANCH   1   5
BRANCH   2  20
HETATM   20  C   UNL     1      43.181 -13.599   6.080  1.00  0.00     0.133 C 
BRANCH  20  21
HETATM   21  C   UNL     1      42.130 -13.245   5.025  1.00  0.00     0.102 C 
BRANCH  21  22
HETATM   22  S   UNL     1      42.911 -12.972   3.397  1.00  0.00    -0.090 SA
BRANCH  22  23
HETATM   23  C   UNL     1      43.063 -14.595   2.846  1.00  0.00     0.166 A 
HETATM   24  N   UNL     1      43.220 -15.677   3.564  1.00  0.00    -0.223 NA
HETATM   25  C   UNL     1      43.323 -16.707   2.649  1.00  0.00     0.085 A 
HETATM   26  C   UNL     1      43.213 -16.214   1.364  1.00  0.00     0.122 A 
HETATM   27  N   UNL     1      43.047 -14.863   1.511  1.00  0.00    -0.343 N 
HETATM   28  H   UNL     1      42.935 -14.174   0.782  1.00  0.00     0.167 HD
BRANCH  25  29
HETATM   29  C   UNL     1      43.521 -18.098   3.036  1.00  0.00    -0.006 A 
HETATM   30  C   UNL     1      43.940 -18.396   4.341  1.00  0.00     0.014 A 
HETATM   31  C   UNL     1      44.146 -19.718   4.746  1.00  0.00     0.001 A 
HETATM   32  C   UNL     1      43.933 -20.761   3.848  1.00  0.00     0.000 A 
HETATM   33  C   UNL     1      43.518 -20.483   2.548  1.00  0.00     0.001 A 
HETATM   34  C   UNL     1      43.312 -19.159   2.144  1.00  0.00     0.014 A 
ENDBRANCH  25  29
ENDBRANCH  22  23
ENDBRANCH  21  22
ENDBRANCH  20  21
ENDBRANCH   2  20
TORSDOF 8
ENDMDL
MODEL 4
REMARK VINA RESULT:      -8.2      1.978      2.535
REMARK  8 active torsions:
REMARK  status: ('A' for Active; 'I' for Inactive)
REMARK       I    between atoms: C_2  and  N_3 
REMARK    1  A    between atoms: N_3  and  C_4 
REMARK    2  A    between atoms: C_6  and  N_7 
REMARK       I    between atoms: N_7  and  C_8 
REMARK    3  A    between atoms: C_8  and  C_9 
REMARK       I    between atoms: C_9  and  N_10 
REMARK    4  A    between atoms: N_10  and  C_11 
REMARK    5  A    between atoms: C_11  and  C_12 
REMARK    6  A    between atoms: C_12  and  S_13 
REMARK    7  A    between atoms: S_13  and  C_14 
REMARK    8  A    between atoms: C_16  and  C_17 
ROOT
HETATM    1  C   UNL     1      43.659 -11.280   4.560  1.00  0.00     0.309 C 
HETATM    2  N   UNL     1      42.396 -10.809   4.290  1.00  0.00    -0.352 N 
HETATM    3  O   UNL     1      44.538 -11.511   3.742  1.00  0.00    -0.262 OA
HETATM    4  H   UNL     1      41.757 -10.775   5.083  1.00  0.00     0.162 HD
ENDROOT
BRANCH   1   5
HETATM    5  C   UNL     1      43.919 -11.521   6.064  1.00  0.00     0.313 C 
HETATM    6  N   UNL     1      43.787 -10.363   6.801  1.00  0.00    -0.319 N 
HETATM    7  H   UNL     1      43.504  -9.553   6.256  1.00  0.00     0.169 HD
HETATM    8  O   UNL     1      44.187 -12.655   6.431  1.00  0.00    -0.262 OA
BRANCH   6   9
HETATM    9  C   UNL     1      43.988 -10.191   8.182  1.00  0.00     0.037 A 
HETATM   10  C   UNL     1      42.990 -10.380   9.147  1.00  0.00     0.059 A 
HETATM   11  C   UNL     1      43.267 -10.201  10.508  1.00  0.00     0.036 A 
HETATM   12  C   UNL     1      44.555  -9.809  10.894  1.00  0.00     0.029 A 
HETATM   13  C   UNL     1      45.556  -9.622   9.940  1.00  0.00     0.004 A 
HETATM   14  C   UNL     1      45.273  -9.819   8.591  1.00  0.00     0.029 A 
BRANCH  11  15
HETATM   15  N   UNL     1      42.323 -10.384  11.543  1.00  0.00    -0.327 N 
HETATM   16  C   UNL     1      41.194  -9.630  11.801  1.00  0.00     0.218 C 
HETATM   17  C   UNL     1      40.435 -10.102  13.017  1.00  0.00     0.117 C 
HETATM   18  O   UNL     1      40.775  -8.681  11.148  1.00  0.00    -0.274 OA
HETATM   19  H   UNL     1      42.477 -11.189  12.137  1.00  0.00     0.169 HD
ENDBRANCH  11  15
ENDBRANCH   6   9
ENDBRANCH   1   5
BRANCH   2  20
HETATM   20  C   UNL     1      41.866 -10.693   2.947  1.00  0.00     0.133 C 
BRANCH  20  21
HETATM   21  C   UNL     1      40.947 -11.855   2.561  1.00  0.00     0.102 C 
BRANCH  21  22
HETATM   22  S   UNL     1      39.864 -12.318   3.956  1.00  0.00    -0.090 SA
BRANCH  22  23
HETATM   23  C   UNL     1      40.531 -13.847   4.378  1.00  0.00     0.166 A 
HETATM   24  N   UNL     1      41.370 -14.577   3.688  1.00  0.00    -0.223 NA
HETATM   25  C   UNL     1      41.565 -15.717   4.445  1.00  0.00     0.085 A 
HETATM   26  C   UNL     1      40.828 -15.646   5.610  1.00  0.00     0.122 A 
HETATM   27  N   UNL     1      40.175 -14.444   5.549  1.00  0.00    -0.343 N 
HETATM   28  H   UNL     1      39.541 -14.052   6.231  1.00  0.00     0.167 HD
BRANCH  25  29
HETATM   29  C   UNL     1      42.433 -16.810   4.026  1.00  0.00    -0.006 A 
HETATM   30  C   UNL     1      42.371 -17.269   2.702  1.00  0.00     0.014 A 
HETATM   31  C   UNL     1      43.184 -18.319   2.266  1.00  0.00     0.001 A 
HETATM   32  C   UNL     1      44.071 -18.925   3.152  1.00  0.00     0.000 A 
HETATM   33  C   UNL     1      44.145 -18.483   4.471  1.00  0.00     0.001 A 
HETATM   34  C   UNL     1      43.330 -17.430   4.905  1.00  0.00     0.014 A 
ENDBRANCH  25  29
ENDBRANCH  22  23
ENDBRANCH  21  22
ENDBRANCH  20  21
ENDBRANCH   2  20
TORSDOF 8
ENDMDL
MODEL 5
REMARK VINA RESULT:      -8.2      3.674      5.421
REMARK  8 active torsions:
REMARK  status: ('A' for Active; 'I' for Inactive)
REMARK       I    between atoms: C_2  and  N_3 
REMARK    1  A    between atoms: N_3  and  C_4 
REMARK    2  A    between atoms: C_6  and  N_7 
REMARK       I    between atoms: N_7  and  C_8 
REMARK    3  A    between atoms: C_8  and  C_9 
REMARK       I    between atoms: C_9  and  N_10 
REMARK    4  A    between atoms: N_10  and  C_11 
REMARK    5  A    between atoms: C_11  and  C_12 
REMARK    6  A    between atoms: C_12  and  S_13 
REMARK    7  A    between atoms: S_13  and  C_14 
REMARK    8  A    between atoms: C_16  and  C_17 
ROOT
HETATM    1  C   UNL     1      39.029 -10.395   9.041  1.00  0.00     0.309 C 
HETATM    2  N   UNL     1      39.495 -10.320   7.750  1.00  0.00    -0.352 N 
HETATM    3  O   UNL     1      38.179 -11.167   9.463  1.00  0.00    -0.262 OA
HETATM    4  H   UNL     1      40.127  -9.545   7.553  1.00  0.00     0.162 HD
ENDROOT
BRANCH   1   5
HETATM    5  C   UNL     1      39.685  -9.372   9.995  1.00  0.00     0.313 C 
HETATM    6  N   UNL     1      40.619  -9.962  10.819  1.00  0.00    -0.319 N 
HETATM    7  H   UNL     1      40.758 -10.955  10.647  1.00  0.00     0.169 HD
HETATM    8  O   UNL     1      39.340  -8.202   9.917  1.00  0.00    -0.262 OA
BRANCH   6   9
HETATM    9  C   UNL     1      41.381  -9.357  11.835  1.00  0.00     0.037 A 
HETATM   10  C   UNL     1      40.970  -9.269  13.172  1.00  0.00     0.059 A 
HETATM   11  C   UNL     1      41.787  -8.661  14.133  1.00  0.00     0.036 A 
HETATM   12  C   UNL     1      43.019  -8.122  13.737  1.00  0.00     0.029 A 
HETATM   13  C   UNL     1      43.436  -8.210  12.409  1.00  0.00     0.004 A 
HETATM   14  C   UNL     1      42.622  -8.831  11.464  1.00  0.00     0.029 A 
BRANCH  11  15
HETATM   15  N   UNL     1      41.455  -8.544  15.501  1.00  0.00    -0.327 N 
HETATM   16  C   UNL     1      40.771  -7.514  16.119  1.00  0.00     0.218 C 
HETATM   17  C   UNL     1      40.627  -7.712  17.609  1.00  0.00     0.117 C 
HETATM   18  O   UNL     1      40.282  -6.525  15.583  1.00  0.00    -0.274 OA
HETATM   19  H   UNL     1      41.718  -9.328  16.083  1.00  0.00     0.169 HD
ENDBRANCH  11  15
ENDBRANCH   6   9
ENDBRANCH   1   5
BRANCH   2  20
HETATM   20  C   UNL     1      38.894 -11.043   6.650  1.00  0.00     0.133 C 
BRANCH  20  21
HETATM   21  C   UNL     1      39.808 -12.125   6.069  1.00  0.00     0.102 C 
BRANCH  21  22
HETATM   22  S   UNL     1      41.551 -11.582   6.089  1.00  0.00    -0.090 SA
BRANCH  22  23
HETATM   23  C   UNL     1      42.354 -13.101   5.996  1.00  0.00     0.166 A 
HETATM   24  N   UNL     1      42.374 -13.941   4.994  1.00  0.00    -0.223 NA
HETATM   25  C   UNL     1      43.124 -15.014   5.435  1.00  0.00     0.085 A 
HETATM   26  C   UNL     1      43.562 -14.790   6.725  1.00  0.00     0.122 A 
HETATM   27  N   UNL     1      43.060 -13.562   7.066  1.00  0.00    -0.343 N 
HETATM   28  H   UNL     1      43.175 -13.071   7.941  1.00  0.00     0.167 HD
BRANCH  25  29
HETATM   29  C   UNL     1      43.385 -16.191   4.617  1.00  0.00    -0.006 A 
HETATM   30  C   UNL     1      44.035 -17.295   5.187  1.00  0.00     0.014 A 
HETATM   31  C   UNL     1      44.306 -18.440   4.432  1.00  0.00     0.001 A 
HETATM   32  C   UNL     1      43.930 -18.493   3.092  1.00  0.00     0.000 A 
HETATM   33  C   UNL     1      43.285 -17.405   2.509  1.00  0.00     0.001 A 
HETATM   34  C   UNL     1      43.014 -16.261   3.267  1.00  0.00     0.014 A 
ENDBRANCH  25  29
ENDBRANCH  22  23
ENDBRANCH  21  22
ENDBRANCH  20  21
ENDBRANCH   2  20
TORSDOF 8
ENDMDL
MODEL 6
REMARK VINA RESULT:      -8.1      2.750      8.387
REMARK  8 active torsions:
REMARK  status: ('A' for Active; 'I' for Inactive)
REMARK       I    between atoms: C_2  and  N_3 
REMARK    1  A    between atoms: N_3  and  C_4 
REMARK    2  A    between atoms: C_6  and  N_7 
REMARK       I    between atoms: N_7  and  C_8 
REMARK    3  A    between atoms: C_8  and  C_9 
REMARK       I    between atoms: C_9  and  N_10 
REMARK    4  A    between atoms: N_10  and  C_11 
REMARK    5  A    between atoms: C_11  and  C_12 
REMARK    6  A    between atoms: C_12  and  S_13 
REMARK    7  A    between atoms: S_13  and  C_14 
REMARK    8  A    between atoms: C_16  and  C_17 
ROOT
HETATM    1  C   UNL     1      39.790 -12.968   5.697  1.00  0.00     0.309 C 
HETATM    2  N   UNL     1      39.827 -12.511   4.401  1.00  0.00    -0.352 N 
HETATM    3  O   UNL     1      39.256 -12.414   6.648  1.00  0.00    -0.262 OA
HETATM    4  H   UNL     1      40.407 -13.048   3.759  1.00  0.00     0.162 HD
ENDROOT
BRANCH   1   5
HETATM    5  C   UNL     1      40.518 -14.316   5.897  1.00  0.00     0.313 C 
HETATM    6  N   UNL     1      41.720 -14.357   5.224  1.00  0.00    -0.319 N 
HETATM    7  H   UNL     1      41.957 -13.493   4.742  1.00  0.00     0.169 HD
HETATM    8  O   UNL     1      39.989 -15.160   6.605  1.00  0.00    -0.262 OA
BRANCH   6   9
HETATM    9  C   UNL     1      42.628 -15.427   5.142  1.00  0.00     0.037 A 
HETATM   10  C   UNL     1      42.631 -16.371   4.106  1.00  0.00     0.059 A 
HETATM   11  C   UNL     1      43.575 -17.406   4.083  1.00  0.00     0.036 A 
HETATM   12  C   UNL     1      44.509 -17.498   5.124  1.00  0.00     0.029 A 
HETATM   13  C   UNL     1      44.515 -16.560   6.156  1.00  0.00     0.004 A 
HETATM   14  C   UNL     1      43.582 -15.526   6.160  1.00  0.00     0.029 A 
BRANCH  11  15
HETATM   15  N   UNL     1      43.655 -18.388   3.071  1.00  0.00    -0.327 N 
HETATM   16  C   UNL     1      43.799 -19.754   3.228  1.00  0.00     0.218 C 
HETATM   17  C   UNL     1      43.882 -20.493   1.914  1.00  0.00     0.117 C 
HETATM   18  O   UNL     1      43.840 -20.376   4.284  1.00  0.00    -0.274 OA
HETATM   19  H   UNL     1      43.554 -18.048   2.124  1.00  0.00     0.169 HD
ENDBRANCH  11  15
ENDBRANCH   6   9
ENDBRANCH   1   5
BRANCH   2  20
HETATM   20  C   UNL     1      39.381 -11.188   4.018  1.00  0.00     0.133 C 
BRANCH  20  21
HETATM   21  C   UNL     1      40.445 -10.108   4.235  1.00  0.00     0.102 C 
BRANCH  21  22
HETATM   22  S   UNL     1      42.057 -10.638   3.560  1.00  0.00    -0.090 SA
BRANCH  22  23
HETATM   23  C   UNL     1      42.962 -10.814   5.012  1.00  0.00     0.166 A 
HETATM   24  N   UNL     1      42.795 -10.184   6.147  1.00  0.00    -0.223 NA
HETATM   25  C   UNL     1      43.794 -10.658   6.975  1.00  0.00     0.085 A 
HETATM   26  C   UNL     1      44.557 -11.597   6.310  1.00  0.00     0.122 A 
HETATM   27  N   UNL     1      44.010 -11.683   5.059  1.00  0.00    -0.343 N 
HETATM   28  H   UNL     1      44.310 -12.271   4.294  1.00  0.00     0.167 HD
BRANCH  25  29
HETATM   29  C   UNL     1      43.974 -10.199   8.347  1.00  0.00    -0.006 A 
HETATM   30  C   UNL     1      42.885  -9.645   9.036  1.00  0.00     0.014 A 
HETATM   31  C   UNL     1      43.023  -9.189  10.350  1.00  0.00     0.001 A 
HETATM   32  C   UNL     1      44.255  -9.282  10.992  1.00  0.00     0.000 A 
HETATM   33  C   UNL     1      45.347  -9.828  10.322  1.00  0.00     0.001 A 
HETATM   34  C   UNL     1      45.208 -10.285   9.007  1.00  0.00     0.014 A 
ENDBRANCH  25  29
ENDBRANCH  22  23
ENDBRANCH  21  22
ENDBRANCH  20  21
ENDBRANCH   2  20
TORSDOF 8
ENDMDL
MODEL 7
REMARK VINA RESULT:      -8.1      2.899      4.783
REMARK  8 active torsions:
REMARK  status: ('A' for Active; 'I' for Inactive)
REMARK       I    between atoms: C_2  and  N_3 
REMARK    1  A    between atoms: N_3  and  C_4 
REMARK    2  A    between atoms: C_6  and  N_7 
REMARK       I    between atoms: N_7  and  C_8 
REMARK    3  A    between atoms: C_8  and  C_9 
REMARK       I    between atoms: C_9  and  N_10 
REMARK    4  A    between atoms: N_10  and  C_11 
REMARK    5  A    between atoms: C_11  and  C_12 
REMARK    6  A    between atoms: C_12  and  S_13 
REMARK    7  A    between atoms: S_13  and  C_14 
REMARK    8  A    between atoms: C_16  and  C_17 
ROOT
HETATM    1  C   UNL     1      44.210 -10.833   8.411  1.00  0.00     0.309 C 
HETATM    2  N   UNL     1      43.166 -11.133   7.568  1.00  0.00    -0.352 N 
HETATM    3  O   UNL     1      45.367 -11.212   8.299  1.00  0.00    -0.262 OA
HETATM    4  H   UNL     1      42.247 -10.818   7.873  1.00  0.00     0.162 HD
ENDROOT
BRANCH   1   5
HETATM    5  C   UNL     1      43.805  -9.926   9.595  1.00  0.00     0.313 C 
HETATM    6  N   UNL     1      42.752 -10.454  10.311  1.00  0.00    -0.319 N 
HETATM    7  H   UNL     1      42.436 -11.362   9.979  1.00  0.00     0.169 HD
HETATM    8  O   UNL     1      44.435  -8.895   9.777  1.00  0.00    -0.262 OA
BRANCH   6   9
HETATM    9  C   UNL     1      42.093  -9.893  11.419  1.00  0.00     0.037 A 
HETATM   10  C   UNL     1      40.841  -9.266  11.349  1.00  0.00     0.059 A 
HETATM   11  C   UNL     1      40.240  -8.739  12.499  1.00  0.00     0.036 A 
HETATM   12  C   UNL     1      40.915  -8.829  13.723  1.00  0.00     0.029 A 
HETATM   13  C   UNL     1      42.159  -9.455  13.802  1.00  0.00     0.004 A 
HETATM   14  C   UNL     1      42.741  -9.990  12.655  1.00  0.00     0.029 A 
BRANCH  11  15
HETATM   15  N   UNL     1      38.978  -8.105  12.517  1.00  0.00    -0.327 N 
HETATM   16  C   UNL     1      38.713  -6.751  12.601  1.00  0.00     0.218 C 
HETATM   17  C   UNL     1      37.236  -6.440  12.628  1.00  0.00     0.117 C 
HETATM   18  O   UNL     1      39.531  -5.839  12.632  1.00  0.00    -0.274 OA
HETATM   19  H   UNL     1      38.179  -8.718  12.416  1.00  0.00     0.169 HD
ENDBRANCH  11  15
ENDBRANCH   6   9
ENDBRANCH   1   5
BRANCH   2  20
HETATM   20  C   UNL     1      43.265 -12.113   6.507  1.00  0.00     0.133 C 
BRANCH  20  21
HETATM   21  C   UNL     1      43.782 -11.526   5.191  1.00  0.00     0.102 C 
BRANCH  21  22
HETATM   22  S   UNL     1      42.539 -11.708   3.866  1.00  0.00    -0.090 SA
BRANCH  22  23
HETATM   23  C   UNL     1      42.255 -13.404   3.934  1.00  0.00     0.166 A 
HETATM   24  N   UNL     1      43.087 -14.372   3.645  1.00  0.00    -0.223 NA
HETATM   25  C   UNL     1      42.366 -15.536   3.829  1.00  0.00     0.085 A 
HETATM   26  C   UNL     1      41.083 -15.240   4.247  1.00  0.00     0.122 A 
HETATM   27  N   UNL     1      41.033 -13.874   4.309  1.00  0.00    -0.343 N 
HETATM   28  H   UNL     1      40.247 -13.298   4.576  1.00  0.00     0.167 HD
BRANCH  25  29
HETATM   29  C   UNL     1      42.925 -16.862   3.599  1.00  0.00    -0.006 A 
HETATM   30  C   UNL     1      42.529 -17.589   2.467  1.00  0.00     0.014 A 
HETATM   31  C   UNL     1      43.041 -18.866   2.218  1.00  0.00     0.001 A 
HETATM   32  C   UNL     1      43.956 -19.433   3.101  1.00  0.00     0.000 A 
HETATM   33  C   UNL     1      44.359 -18.725   4.231  1.00  0.00     0.001 A 
HETATM   34  C   UNL     1      43.847 -17.447   4.479  1.00  0.00     0.014 A 
ENDBRANCH  25  29
ENDBRANCH  22  23
ENDBRANCH  21  22
ENDBRANCH  20  21
ENDBRANCH   2  20
TORSDOF 8
ENDMDL
MODEL 8
REMARK VINA RESULT:      -7.8      3.455      4.035
REMARK  8 active torsions:
REMARK  status: ('A' for Active; 'I' for Inactive)
REMARK       I    between atoms: C_2  and  N_3 
REMARK    1  A    between atoms: N_3  and  C_4 
REMARK    2  A    between atoms: C_6  and  N_7 
REMARK       I    between atoms: N_7  and  C_8 
REMARK    3  A    between atoms: C_8  and  C_9 
REMARK       I    between atoms: C_9  and  N_10 
REMARK    4  A    between atoms: N_10  and  C_11 
REMARK    5  A    between atoms: C_11  and  C_12 
REMARK    6  A    between atoms: C_12  and  S_13 
REMARK    7  A    between atoms: S_13  and  C_14 
REMARK    8  A    between atoms: C_16  and  C_17 
ROOT
HETATM    1  C   UNL     1      39.330 -10.760   7.140  1.00  0.00     0.309 C 
HETATM    2  N   UNL     1      40.424 -11.255   6.470  1.00  0.00    -0.352 N 
HETATM    3  O   UNL     1      38.187 -11.191   7.084  1.00  0.00    -0.262 OA
HETATM    4  H   UNL     1      41.278 -10.707   6.552  1.00  0.00     0.162 HD
ENDROOT
BRANCH   1   5
HETATM    5  C   UNL     1      39.652  -9.537   8.028  1.00  0.00     0.313 C 
HETATM    6  N   UNL     1      40.850  -9.685   8.693  1.00  0.00    -0.319 N 
HETATM    7  H   UNL     1      41.348 -10.544   8.469  1.00  0.00     0.169 HD
HETATM    8  O   UNL     1      38.862  -8.605   8.040  1.00  0.00    -0.262 OA
BRANCH   6   9
HETATM    9  C   UNL     1      41.443  -8.802   9.613  1.00  0.00     0.037 A 
HETATM   10  C   UNL     1      41.399  -8.977  11.003  1.00  0.00     0.059 A 
HETATM   11  C   UNL     1      42.023  -8.060  11.859  1.00  0.00     0.036 A 
HETATM   12  C   UNL     1      42.679  -6.952  11.308  1.00  0.00     0.029 A 
HETATM   13  C   UNL     1      42.730  -6.773   9.926  1.00  0.00     0.004 A 
HETATM   14  C   UNL     1      42.120  -7.699   9.083  1.00  0.00     0.029 A 
BRANCH  11  15
HETATM   15  N   UNL     1      42.037  -8.170  13.267  1.00  0.00    -0.327 N 
HETATM   16  C   UNL     1      41.007  -7.894  14.147  1.00  0.00     0.218 C 
HETATM   17  C   UNL     1      41.396  -8.095  15.592  1.00  0.00     0.117 C 
HETATM   18  O   UNL     1      39.867  -7.543  13.863  1.00  0.00    -0.274 OA
HETATM   19  H   UNL     1      42.893  -8.531  13.669  1.00  0.00     0.169 HD
ENDBRANCH  11  15
ENDBRANCH   6   9
ENDBRANCH   1   5
BRANCH   2  20
HETATM   20  C   UNL     1      40.327 -12.269   5.441  1.00  0.00     0.133 C 
BRANCH  20  21
HETATM   21  C   UNL     1      40.610 -13.682   5.960  1.00  0.00     0.102 C 
BRANCH  21  22
HETATM   22  S   UNL     1      42.396 -13.919   6.257  1.00  0.00    -0.090 SA
BRANCH  22  23
HETATM   23  C   UNL     1      42.764 -15.081   5.042  1.00  0.00     0.166 A 
HETATM   24  N   UNL     1      42.901 -16.375   5.181  1.00  0.00    -0.223 NA
HETATM   25  C   UNL     1      43.225 -16.842   3.922  1.00  0.00     0.085 A 
HETATM   26  C   UNL     1      43.269 -15.795   3.023  1.00  0.00     0.122 A 
HETATM   27  N   UNL     1      42.970 -14.679   3.757  1.00  0.00    -0.343 N 
HETATM   28  H   UNL     1      42.911 -13.725   3.431  1.00  0.00     0.167 HD
BRANCH  25  29
HETATM   29  C   UNL     1      43.479 -18.249   3.637  1.00  0.00    -0.006 A 
HETATM   30  C   UNL     1      43.192 -18.755   2.361  1.00  0.00     0.014 A 
HETATM   31  C   UNL     1      43.417 -20.100   2.054  1.00  0.00     0.001 A 
HETATM   32  C   UNL     1      43.933 -20.957   3.022  1.00  0.00     0.000 A 
HETATM   33  C   UNL     1      44.222 -20.472   4.295  1.00  0.00     0.001 A 
HETATM   34  C   UNL     1      43.997 -19.125   4.601  1.00  0.00     0.014 A 
ENDBRANCH  25  29
ENDBRANCH  22  23
ENDBRANCH  21  22
ENDBRANCH  20  21
ENDBRANCH   2  20
TORSDOF 8
ENDMDL
MODEL 9
REMARK VINA RESULT:      -7.8      1.967      2.275
REMARK  8 active torsions:
REMARK  status: ('A' for Active; 'I' for Inactive)
REMARK       I    between atoms: C_2  and  N_3 
REMARK    1  A    between atoms: N_3  and  C_4 
REMARK    2  A    between atoms: C_6  and  N_7 
REMARK       I    between atoms: N_7  and  C_8 
REMARK    3  A    between atoms: C_8  and  C_9 
REMARK       I    between atoms: C_9  and  N_10 
REMARK    4  A    between atoms: N_10  and  C_11 
REMARK    5  A    between atoms: C_11  and  C_12 
REMARK    6  A    between atoms: C_12  and  S_13 
REMARK    7  A    between atoms: S_13  and  C_14 
REMARK    8  A    between atoms: C_16  and  C_17 
ROOT
HETATM    1  C   UNL     1      41.025 -12.230   5.214  1.00  0.00     0.309 C 
HETATM    2  N   UNL     1      41.247 -12.773   3.971  1.00  0.00    -0.352 N 
HETATM    3  O   UNL     1      40.134 -12.537   5.992  1.00  0.00    -0.262 OA
HETATM    4  H   UNL     1      41.972 -12.323   3.414  1.00  0.00     0.162 HD
ENDROOT
BRANCH   1   5
HETATM    5  C   UNL     1      42.039 -11.128   5.595  1.00  0.00     0.313 C 
HETATM    6  N   UNL     1      42.503 -11.279   6.884  1.00  0.00    -0.319 N 
HETATM    7  H   UNL     1      42.144 -12.101   7.362  1.00  0.00     0.169 HD
HETATM    8  O   UNL     1      42.322 -10.286   4.755  1.00  0.00    -0.262 OA
BRANCH   6   9
HETATM    9  C   UNL     1      43.397 -10.448   7.583  1.00  0.00     0.037 A 
HETATM   10  C   UNL     1      43.085  -9.151   8.012  1.00  0.00     0.059 A 
HETATM   11  C   UNL     1      44.024  -8.385   8.715  1.00  0.00     0.036 A 
HETATM   12  C   UNL     1      45.291  -8.926   8.969  1.00  0.00     0.029 A 
HETATM   13  C   UNL     1      45.608 -10.218   8.548  1.00  0.00     0.004 A 
HETATM   14  C   UNL     1      44.661 -10.977   7.864  1.00  0.00     0.029 A 
BRANCH  11  15
HETATM   15  N   UNL     1      43.785  -7.078   9.194  1.00  0.00    -0.327 N 
HETATM   16  C   UNL     1      42.699  -6.630   9.922  1.00  0.00     0.218 C 
HETATM   17  C   UNL     1      42.766  -5.154  10.234  1.00  0.00     0.117 C 
HETATM   18  O   UNL     1      41.755  -7.298  10.328  1.00  0.00    -0.274 OA
HETATM   19  H   UNL     1      44.519  -6.406   9.013  1.00  0.00     0.169 HD
ENDBRANCH  11  15
ENDBRANCH   6   9
ENDBRANCH   1   5
BRANCH   2  20
HETATM   20  C   UNL     1      40.319 -13.679   3.328  1.00  0.00     0.133 C 
BRANCH  20  21
HETATM   21  C   UNL     1      39.937 -13.245   1.910  1.00  0.00     0.102 C 
BRANCH  21  22
HETATM   22  S   UNL     1      39.933 -14.673   0.772  1.00  0.00    -0.090 SA
BRANCH  22  23
HETATM   23  C   UNL     1      41.328 -15.517   1.323  1.00  0.00     0.166 A 
HETATM   24  N   UNL     1      41.376 -16.607   2.045  1.00  0.00    -0.223 NA
HETATM   25  C   UNL     1      42.722 -16.852   2.241  1.00  0.00     0.085 A 
HETATM   26  C   UNL     1      43.478 -15.886   1.608  1.00  0.00     0.122 A 
HETATM   27  N   UNL     1      42.570 -15.043   1.027  1.00  0.00    -0.343 N 
HETATM   28  H   UNL     1      42.760 -14.216   0.479  1.00  0.00     0.167 HD
BRANCH  25  29
HETATM   29  C   UNL     1      43.219 -17.982   3.015  1.00  0.00    -0.006 A 
HETATM   30  C   UNL     1      43.533 -17.802   4.370  1.00  0.00     0.014 A 
HETATM   31  C   UNL     1      44.018 -18.862   5.142  1.00  0.00     0.001 A 
HETATM   32  C   UNL     1      44.195 -20.117   4.566  1.00  0.00     0.000 A 
HETATM   33  C   UNL     1      43.890 -20.313   3.222  1.00  0.00     0.001 A 
HETATM   34  C   UNL     1      43.404 -19.252   2.450  1.00  0.00     0.014 A 
ENDBRANCH  25  29
ENDBRANCH  22  23
ENDBRANCH  21  22
ENDBRANCH  20  21
ENDBRANCH   2  20
TORSDOF 8
ENDMDL
MODEL 10
REMARK VINA RESULT:      -7.8      3.711      8.248
REMARK  8 active torsions:
REMARK  status: ('A' for Active; 'I' for Inactive)
REMARK       I    between atoms: C_2  and  N_3 
REMARK    1  A    between atoms: N_3  and  C_4 
REMARK    2  A    between atoms: C_6  and  N_7 
REMARK       I    between atoms: N_7  and  C_8 
REMARK    3  A    between atoms: C_8  and  C_9 
REMARK       I    between atoms: C_9  and  N_10 
REMARK    4  A    between atoms: N_10  and  C_11 
REMARK    5  A    between atoms: C_11  and  C_12 
REMARK    6  A    between atoms: C_12  and  S_13 
REMARK    7  A    between atoms: S_13  and  C_14 
REMARK    8  A    between atoms: C_16  and  C_17 
ROOT
HETATM    1  C   UNL     1      42.283 -10.926   3.014  1.00  0.00     0.309 C 
HETATM    2  N   UNL     1      41.511 -10.721   4.132  1.00  0.00    -0.352 N 
HETATM    3  O   UNL     1      43.466 -11.236   2.994  1.00  0.00    -0.262 OA
HETATM    4  H   UNL     1      40.572 -10.364   3.962  1.00  0.00     0.162 HD
ENDROOT
BRANCH   1   5
HETATM    5  C   UNL     1      41.515 -10.725   1.688  1.00  0.00     0.313 C 
HETATM    6  N   UNL     1      40.248 -11.265   1.740  1.00  0.00    -0.319 N 
HETATM    7  H   UNL     1      40.005 -11.670   2.641  1.00  0.00     0.169 HD
HETATM    8  O   UNL     1      42.073 -10.126   0.781  1.00  0.00    -0.262 OA
BRANCH   6   9
HETATM    9  C   UNL     1      39.285 -11.309   0.717  1.00  0.00     0.037 A 
HETATM   10  C   UNL     1      39.095 -12.409  -0.131  1.00  0.00     0.059 A 
HETATM   11  C   UNL     1      38.106 -12.385  -1.123  1.00  0.00     0.036 A 
HETATM   12  C   UNL     1      37.318 -11.236  -1.271  1.00  0.00     0.029 A 
HETATM   13  C   UNL     1      37.498 -10.139  -0.429  1.00  0.00     0.004 A 
HETATM   14  C   UNL     1      38.473 -10.180   0.565  1.00  0.00     0.029 A 
BRANCH  11  15
HETATM   15  N   UNL     1      37.841 -13.454  -2.007  1.00  0.00    -0.327 N 
HETATM   16  C   UNL     1      38.622 -13.893  -3.060  1.00  0.00     0.218 C 
HETATM   17  C   UNL     1      38.003 -15.047  -3.812  1.00  0.00     0.117 C 
HETATM   18  O   UNL     1      39.719 -13.461  -3.397  1.00  0.00    -0.274 OA
HETATM   19  H   UNL     1      36.999 -13.980  -1.817  1.00  0.00     0.169 HD
ENDBRANCH  11  15
ENDBRANCH   6   9
ENDBRANCH   1   5
BRANCH   2  20
HETATM   20  C   UNL     1      42.059 -10.666   5.471  1.00  0.00     0.133 C 
BRANCH  20  21
HETATM   21  C   UNL     1      41.202 -11.403   6.503  1.00  0.00     0.102 C 
BRANCH  21  22
HETATM   22  S   UNL     1      39.777 -12.217   5.702  1.00  0.00    -0.090 SA
BRANCH  22  23
HETATM   23  C   UNL     1      40.366 -13.829   5.577  1.00  0.00     0.166 A 
HETATM   24  N   UNL     1      41.212 -14.311   4.703  1.00  0.00    -0.223 NA
HETATM   25  C   UNL     1      41.326 -15.653   5.012  1.00  0.00     0.085 A 
HETATM   26  C   UNL     1      40.533 -15.959   6.100  1.00  0.00     0.122 A 
HETATM   27  N   UNL     1      39.928 -14.781   6.446  1.00  0.00    -0.343 N 
HETATM   28  H   UNL     1      39.275 -14.623   7.200  1.00  0.00     0.167 HD
BRANCH  25  29
HETATM   29  C   UNL     1      42.173 -16.572   4.262  1.00  0.00    -0.006 A 
HETATM   30  C   UNL     1      43.149 -17.316   4.941  1.00  0.00     0.014 A 
HETATM   31  C   UNL     1      43.984 -18.203   4.254  1.00  0.00     0.001 A 
HETATM   32  C   UNL     1      43.852 -18.355   2.877  1.00  0.00     0.000 A 
HETATM   33  C   UNL     1      42.888 -17.623   2.186  1.00  0.00     0.001 A 
HETATM   34  C   UNL     1      42.053 -16.736   2.876  1.00  0.00     0.014 A 
ENDBRANCH  25  29
ENDBRANCH  22  23
ENDBRANCH  21  22
ENDBRANCH  20  21
ENDBRANCH   2  20
TORSDOF 8
ENDMDL
