MODEL 1
REMARK VINA RESULT:      -8.0      0.000      0.000
REMARK  7 active torsions:
REMARK  status: ('A' for Active; 'I' for Inactive)
REMARK    1  A    between atoms: C_3  and  C_4 
REMARK    2  A    between atoms: C_4  and  N_5 
REMARK    3  A    between atoms: C_4  and  C_9 
REMARK       I    between atoms: N_5  and  C_6 
REMARK       I    between atoms: C_6  and  N_7 
REMARK    4  A    between atoms: C_9  and  C_10 
REMARK       I    between atoms: C_10  and  N_11 
REMARK    5  A    between atoms: N_11  and  C_12 
REMARK    6  A    between atoms: C_12  and  C_13 
REMARK    7  A    between atoms: C_13  and  N_14 
ROOT
HETATM    1  C   UNL     1      40.648 -16.105   4.188  1.00  0.00     0.132 C 
ENDROOT
BRANCH   1   2
HETATM    2  C   UNL     1      41.986 -15.951   3.451  1.00  0.00     0.128 C 
BRANCH   2   3
HETATM    3  C   UNL     1      42.779 -17.254   3.359  1.00  0.00    -0.029 A 
HETATM    4  C   UNL     1      43.768 -17.605   4.307  1.00  0.00    -0.054 A 
HETATM    5  C   UNL     1      44.124 -16.716   5.470  1.00  0.00     0.049 C 
HETATM    6  C   UNL     1      44.464 -18.818   4.163  1.00  0.00     0.007 A 
HETATM    7  C   UNL     1      44.199 -19.676   3.097  1.00  0.00     0.001 A 
HETATM    8  C   UNL     1      43.238 -19.335   2.157  1.00  0.00     0.001 A 
HETATM    9  C   UNL     1      42.537 -18.136   2.285  1.00  0.00     0.010 A 
ENDBRANCH   2   3
BRANCH   2  10
HETATM   10  N   UNL     1      41.882 -15.323   2.136  1.00  0.00    -0.334 N 
HETATM   11  C   UNL     1      41.783 -13.986   1.913  1.00  0.00     0.314 C 
HETATM   12  N   UNL     1      41.610 -13.683   0.604  1.00  0.00    -0.352 N 
HETATM   13  O   UNL     1      41.886 -13.112   2.760  1.00  0.00    -0.248 OA
HETATM   14  H   UNL     1      41.069 -14.303   0.020  1.00  0.00     0.160 HD
HETATM   15  H   UNL     1      41.463 -12.697   0.425  1.00  0.00     0.160 HD
HETATM   16  H   UNL     1      41.646 -15.926   1.363  1.00  0.00     0.165 HD
ENDBRANCH   2  10
ENDBRANCH   1   2
BRANCH   1  17
HETATM   17  C   UNL     1      40.593 -15.200   5.395  1.00  0.00     0.219 C 
HETATM   18  N   UNL     1      40.193 -13.908   5.146  1.00  0.00    -0.359 N 
HETATM   19  H   UNL     1      39.788 -13.746   4.225  1.00  0.00     0.162 HD
HETATM   20  O   UNL     1      40.946 -15.564   6.514  1.00  0.00    -0.274 OA
BRANCH  18  21
HETATM   21  C   UNL     1      39.873 -12.896   6.151  1.00  0.00     0.150 C 
BRANCH  21  22
HETATM   22  C   UNL     1      40.331 -11.436   5.933  1.00  0.00     0.254 C 
BRANCH  22  23
HETATM   23  N   UNL     1      41.572 -11.062   6.702  1.00  0.00    -0.065 N 
HETATM   24  H   UNL     1      41.474 -11.581   7.595  1.00  0.00     0.280 HD
HETATM   25  C   UNL     1      42.873 -11.502   6.073  1.00  0.00     0.274 C 
HETATM   26  C   UNL     1      44.054 -10.988   6.829  1.00  0.00    -0.019 A 
HETATM   27  C   UNL     1      43.943  -9.991   7.779  1.00  0.00    -0.008 A 
HETATM   28  C   UNL     1      45.412 -11.412   6.688  1.00  0.00     0.017 A 
HETATM   29  S   UNL     1      45.429  -9.580   8.490  1.00  0.00    -0.106 SA
HETATM   30  C   UNL     1      42.659  -9.342   8.182  1.00  0.00     0.074 C 
HETATM   31  C   UNL     1      46.261 -10.727   7.532  1.00  0.00     0.051 A 
HETATM   32  C   UNL     1      41.588  -9.595   7.106  1.00  0.00     0.240 C 
ENDBRANCH  22  23
ENDBRANCH  21  22
ENDBRANCH  18  21
ENDBRANCH   1  17
TORSDOF 7
ENDMDL
MODEL 2
REMARK VINA RESULT:      -7.9      2.335      3.632
REMARK  7 active torsions:
REMARK  status: ('A' for Active; 'I' for Inactive)
REMARK    1  A    between atoms: C_3  and  C_4 
REMARK    2  A    between atoms: C_4  and  N_5 
REMARK    3  A    between atoms: C_4  and  C_9 
REMARK       I    between atoms: N_5  and  C_6 
REMARK       I    between atoms: C_6  and  N_7 
REMARK    4  A    between atoms: C_9  and  C_10 
REMARK       I    between atoms: C_10  and  N_11 
REMARK    5  A    between atoms: N_11  and  C_12 
REMARK    6  A    between atoms: C_12  and  C_13 
REMARK    7  A    between atoms: C_13  and  N_14 
ROOT
HETATM    1  C   UNL     1      44.313 -16.107   6.191  1.00  0.00     0.132 C 
ENDROOT
BRANCH   1   2
HETATM    2  C   UNL     1      43.449 -16.471   4.974  1.00  0.00     0.128 C 
BRANCH   2   3
HETATM    3  C   UNL     1      43.630 -17.917   4.515  1.00  0.00    -0.029 A 
HETATM    4  C   UNL     1      43.547 -18.293   3.154  1.00  0.00    -0.054 A 
HETATM    5  C   UNL     1      43.262 -17.302   2.057  1.00  0.00     0.049 C 
HETATM    6  C   UNL     1      43.722 -19.643   2.799  1.00  0.00     0.007 A 
HETATM    7  C   UNL     1      43.967 -20.615   3.767  1.00  0.00     0.001 A 
HETATM    8  C   UNL     1      44.039 -20.256   5.105  1.00  0.00     0.001 A 
HETATM    9  C   UNL     1      43.871 -18.922   5.475  1.00  0.00     0.010 A 
ENDBRANCH   2   3
BRANCH   2  10
HETATM   10  N   UNL     1      42.031 -16.157   5.126  1.00  0.00    -0.334 N 
HETATM   11  C   UNL     1      41.384 -15.137   4.506  1.00  0.00     0.314 C 
HETATM   12  N   UNL     1      40.091 -15.020   4.895  1.00  0.00    -0.352 N 
HETATM   13  O   UNL     1      41.857 -14.410   3.645  1.00  0.00    -0.248 OA
HETATM   14  H   UNL     1      39.841 -15.229   5.848  1.00  0.00     0.160 HD
HETATM   15  H   UNL     1      39.612 -14.221   4.496  1.00  0.00     0.160 HD
HETATM   16  H   UNL     1      41.553 -16.583   5.906  1.00  0.00     0.165 HD
ENDBRANCH   2  10
ENDBRANCH   1   2
BRANCH   1  17
HETATM   17  C   UNL     1      43.711 -14.949   6.949  1.00  0.00     0.219 C 
HETATM   18  N   UNL     1      44.088 -13.700   6.517  1.00  0.00    -0.359 N 
HETATM   19  H   UNL     1      44.568 -13.675   5.619  1.00  0.00     0.162 HD
HETATM   20  O   UNL     1      42.987 -15.104   7.930  1.00  0.00    -0.274 OA
BRANCH  18  21
HETATM   21  C   UNL     1      43.509 -12.428   6.946  1.00  0.00     0.150 C 
BRANCH  21  22
HETATM   22  C   UNL     1      44.321 -11.498   7.877  1.00  0.00     0.254 C 
BRANCH  22  23
HETATM   23  N   UNL     1      43.471 -10.653   8.791  1.00  0.00    -0.065 N 
HETATM   24  H   UNL     1      42.791 -11.329   9.190  1.00  0.00     0.280 HD
HETATM   25  C   UNL     1      44.207 -10.027   9.953  1.00  0.00     0.274 C 
HETATM   26  C   UNL     1      43.325  -9.111  10.736  1.00  0.00    -0.019 A 
HETATM   27  C   UNL     1      42.105  -8.674  10.256  1.00  0.00    -0.008 A 
HETATM   28  C   UNL     1      43.593  -8.561  12.028  1.00  0.00     0.017 A 
HETATM   29  S   UNL     1      41.298  -7.637  11.332  1.00  0.00    -0.106 SA
HETATM   30  C   UNL     1      41.517  -9.076   8.943  1.00  0.00     0.074 C 
HETATM   31  C   UNL     1      42.573  -7.743  12.468  1.00  0.00     0.051 A 
HETATM   32  C   UNL     1      42.618  -9.648   8.032  1.00  0.00     0.240 C 
ENDBRANCH  22  23
ENDBRANCH  21  22
ENDBRANCH  18  21
ENDBRANCH   1  17
TORSDOF 7
ENDMDL
MODEL 3
REMARK VINA RESULT:      -7.7      3.836      6.504
REMARK  7 active torsions:
REMARK  status: ('A' for Active; 'I' for Inactive)
REMARK    1  A    between atoms: C_3  and  C_4 
REMARK    2  A    between atoms: C_4  and  N_5 
REMARK    3  A    between atoms: C_4  and  C_9 
REMARK       I    between atoms: N_5  and  C_6 
REMARK       I    between atoms: C_6  and  N_7 
REMARK    4  A    between atoms: C_9  and  C_10 
REMARK       I    between atoms: C_10  and  N_11 
REMARK    5  A    between atoms: N_11  and  C_12 
REMARK    6  A    between atoms: C_12  and  C_13 
REMARK    7  A    between atoms: C_13  and  N_14 
ROOT
HETATM    1  C   UNL     1      40.404 -15.836   5.467  1.00  0.00     0.132 C 
ENDROOT
BRANCH   1   2
HETATM    2  C   UNL     1      41.877 -16.021   5.862  1.00  0.00     0.128 C 
BRANCH   2   3
HETATM    3  C   UNL     1      42.658 -16.904   4.889  1.00  0.00    -0.029 A 
HETATM    4  C   UNL     1      43.447 -17.993   5.326  1.00  0.00    -0.054 A 
HETATM    5  C   UNL     1      43.589 -18.357   6.780  1.00  0.00     0.049 C 
HETATM    6  C   UNL     1      44.143 -18.765   4.378  1.00  0.00     0.007 A 
HETATM    7  C   UNL     1      44.073 -18.468   3.019  1.00  0.00     0.001 A 
HETATM    8  C   UNL     1      43.309 -17.395   2.583  1.00  0.00     0.001 A 
HETATM    9  C   UNL     1      42.610 -16.620   3.509  1.00  0.00     0.010 A 
ENDBRANCH   2   3
BRANCH   2  10
HETATM   10  N   UNL     1      42.595 -14.774   6.110  1.00  0.00    -0.334 N 
HETATM   11  C   UNL     1      43.134 -14.404   7.301  1.00  0.00     0.314 C 
HETATM   12  N   UNL     1      43.667 -13.159   7.273  1.00  0.00    -0.352 N 
HETATM   13  O   UNL     1      43.202 -15.103   8.301  1.00  0.00    -0.248 OA
HETATM   14  H   UNL     1      43.231 -12.446   6.709  1.00  0.00     0.160 HD
HETATM   15  H   UNL     1      44.010 -12.837   8.171  1.00  0.00     0.160 HD
HETATM   16  H   UNL     1      42.495 -14.047   5.418  1.00  0.00     0.165 HD
ENDBRANCH   2  10
ENDBRANCH   1   2
BRANCH   1  17
HETATM   17  C   UNL     1      40.025 -14.375   5.477  1.00  0.00     0.219 C 
HETATM   18  N   UNL     1      40.047 -13.751   4.253  1.00  0.00    -0.359 N 
HETATM   19  H   UNL     1      40.119 -14.370   3.448  1.00  0.00     0.162 HD
HETATM   20  O   UNL     1      39.780 -13.761   6.513  1.00  0.00    -0.274 OA
BRANCH  18  21
HETATM   21  C   UNL     1      39.544 -12.410   3.960  1.00  0.00     0.150 C 
BRANCH  21  22
HETATM   22  C   UNL     1      39.882 -11.749   2.604  1.00  0.00     0.254 C 
BRANCH  22  23
HETATM   23  N   UNL     1      39.561 -12.607   1.408  1.00  0.00    -0.065 N 
HETATM   24  H   UNL     1      38.971 -13.366   1.800  1.00  0.00     0.280 HD
HETATM   25  C   UNL     1      38.750 -11.927   0.329  1.00  0.00     0.274 C 
HETATM   26  C   UNL     1      38.580 -12.801  -0.869  1.00  0.00    -0.019 A 
HETATM   27  C   UNL     1      39.337 -13.941  -1.063  1.00  0.00    -0.008 A 
HETATM   28  C   UNL     1      37.670 -12.602  -1.953  1.00  0.00     0.017 A 
HETATM   29  S   UNL     1      38.958 -14.757  -2.503  1.00  0.00    -0.106 SA
HETATM   30  C   UNL     1      40.369 -14.446  -0.107  1.00  0.00     0.074 C 
HETATM   31  C   UNL     1      37.772 -13.592  -2.908  1.00  0.00     0.051 A 
HETATM   32  C   UNL     1      40.786 -13.318   0.853  1.00  0.00     0.240 C 
ENDBRANCH  22  23
ENDBRANCH  21  22
ENDBRANCH  18  21
ENDBRANCH   1  17
TORSDOF 7
ENDMDL
MODEL 4
REMARK VINA RESULT:      -7.7      1.145      1.978
REMARK  7 active torsions:
REMARK  status: ('A' for Active; 'I' for Inactive)
REMARK    1  A    between atoms: C_3  and  C_4 
REMARK    2  A    between atoms: C_4  and  N_5 
REMARK    3  A    between atoms: C_4  and  C_9 
REMARK       I    between atoms: N_5  and  C_6 
REMARK       I    between atoms: C_6  and  N_7 
REMARK    4  A    between atoms: C_9  and  C_10 
REMARK       I    between atoms: C_10  and  N_11 
REMARK    5  A    between atoms: N_11  and  C_12 
REMARK    6  A    between atoms: C_12  and  C_13 
REMARK    7  A    between atoms: C_13  and  N_14 
ROOT
HETATM    1  C   UNL     1      40.757 -15.823   4.118  1.00  0.00     0.132 C 
ENDROOT
BRANCH   1   2
HETATM    2  C   UNL     1      41.908 -15.890   3.102  1.00  0.00     0.128 C 
BRANCH   2   3
HETATM    3  C   UNL     1      42.698 -17.197   3.170  1.00  0.00    -0.029 A 
HETATM    4  C   UNL     1      43.646 -17.454   4.187  1.00  0.00    -0.054 A 
HETATM    5  C   UNL     1      43.959 -16.457   5.272  1.00  0.00     0.049 C 
HETATM    6  C   UNL     1      44.342 -18.676   4.190  1.00  0.00     0.007 A 
HETATM    7  C   UNL     1      44.117 -19.633   3.203  1.00  0.00     0.001 A 
HETATM    8  C   UNL     1      43.196 -19.385   2.196  1.00  0.00     0.001 A 
HETATM    9  C   UNL     1      42.496 -18.179   2.178  1.00  0.00     0.010 A 
ENDBRANCH   2   3
BRANCH   2  10
HETATM   10  N   UNL     1      41.515 -15.602   1.726  1.00  0.00    -0.334 N 
HETATM   11  C   UNL     1      41.551 -14.376   1.142  1.00  0.00     0.314 C 
HETATM   12  N   UNL     1      41.047 -14.377  -0.116  1.00  0.00    -0.352 N 
HETATM   13  O   UNL     1      42.025 -13.364   1.636  1.00  0.00    -0.248 OA
HETATM   14  H   UNL     1      40.274 -14.985  -0.339  1.00  0.00     0.160 HD
HETATM   15  H   UNL     1      41.000 -13.459  -0.542  1.00  0.00     0.160 HD
HETATM   16  H   UNL     1      40.976 -16.310   1.250  1.00  0.00     0.165 HD
ENDBRANCH   2  10
ENDBRANCH   1   2
BRANCH   1  17
HETATM   17  C   UNL     1      40.867 -14.583   4.972  1.00  0.00     0.219 C 
HETATM   18  N   UNL     1      41.747 -13.630   4.517  1.00  0.00    -0.359 N 
HETATM   19  H   UNL     1      42.081 -13.762   3.564  1.00  0.00     0.162 HD
HETATM   20  O   UNL     1      40.267 -14.456   6.037  1.00  0.00    -0.274 OA
BRANCH  18  21
HETATM   21  C   UNL     1      41.896 -12.274   5.044  1.00  0.00     0.150 C 
BRANCH  21  22
HETATM   22  C   UNL     1      43.228 -11.518   4.833  1.00  0.00     0.254 C 
BRANCH  22  23
HETATM   23  N   UNL     1      43.800 -10.923   6.094  1.00  0.00    -0.065 N 
HETATM   24  H   UNL     1      44.230 -10.034   5.773  1.00  0.00     0.280 HD
HETATM   25  C   UNL     1      42.784 -10.568   7.155  1.00  0.00     0.274 C 
HETATM   26  C   UNL     1      43.439 -10.102   8.412  1.00  0.00    -0.019 A 
HETATM   27  C   UNL     1      44.789 -10.282   8.652  1.00  0.00    -0.008 A 
HETATM   28  C   UNL     1      42.808  -9.444   9.514  1.00  0.00     0.017 A 
HETATM   29  S   UNL     1      45.287  -9.669  10.155  1.00  0.00    -0.106 SA
HETATM   30  C   UNL     1      45.742 -10.920   7.694  1.00  0.00     0.074 C 
HETATM   31  C   UNL     1      43.699  -9.154  10.526  1.00  0.00     0.051 A 
HETATM   32  C   UNL     1      44.962 -11.735   6.648  1.00  0.00     0.240 C 
ENDBRANCH  22  23
ENDBRANCH  21  22
ENDBRANCH  18  21
ENDBRANCH   1  17
TORSDOF 7
ENDMDL
MODEL 5
REMARK VINA RESULT:      -7.6      2.785      4.473
REMARK  7 active torsions:
REMARK  status: ('A' for Active; 'I' for Inactive)
REMARK    1  A    between atoms: C_3  and  C_4 
REMARK    2  A    between atoms: C_4  and  N_5 
REMARK    3  A    between atoms: C_4  and  C_9 
REMARK       I    between atoms: N_5  and  C_6 
REMARK       I    between atoms: C_6  and  N_7 
REMARK    4  A    between atoms: C_9  and  C_10 
REMARK       I    between atoms: C_10  and  N_11 
REMARK    5  A    between atoms: N_11  and  C_12 
REMARK    6  A    between atoms: C_12  and  C_13 
REMARK    7  A    between atoms: C_13  and  N_14 
ROOT
HETATM    1  C   UNL     1      43.653 -14.616   5.728  1.00  0.00     0.132 C 
ENDROOT
BRANCH   1   2
HETATM    2  C   UNL     1      42.653 -15.233   4.738  1.00  0.00     0.128 C 
BRANCH   2   3
HETATM    3  C   UNL     1      43.122 -16.565   4.155  1.00  0.00    -0.029 A 
HETATM    4  C   UNL     1      42.721 -17.012   2.875  1.00  0.00    -0.054 A 
HETATM    5  C   UNL     1      41.792 -16.217   1.995  1.00  0.00     0.049 C 
HETATM    6  C   UNL     1      43.188 -18.250   2.398  1.00  0.00     0.007 A 
HETATM    7  C   UNL     1      44.033 -19.045   3.170  1.00  0.00     0.001 A 
HETATM    8  C   UNL     1      44.423 -18.619   4.431  1.00  0.00     0.001 A 
HETATM    9  C   UNL     1      43.971 -17.393   4.919  1.00  0.00     0.010 A 
ENDBRANCH   2   3
BRANCH   2  10
HETATM   10  N   UNL     1      41.291 -15.352   5.253  1.00  0.00    -0.334 N 
HETATM   11  C   UNL     1      40.957 -15.839   6.477  1.00  0.00     0.314 C 
HETATM   12  N   UNL     1      39.617 -15.921   6.662  1.00  0.00    -0.352 N 
HETATM   13  O   UNL     1      41.741 -16.135   7.366  1.00  0.00    -0.248 OA
HETATM   14  H   UNL     1      39.023 -16.153   5.881  1.00  0.00     0.160 HD
HETATM   15  H   UNL     1      39.348 -16.348   7.540  1.00  0.00     0.160 HD
HETATM   16  H   UNL     1      40.543 -15.278   4.580  1.00  0.00     0.165 HD
ENDBRANCH   2  10
ENDBRANCH   1   2
BRANCH   1  17
HETATM   17  C   UNL     1      43.404 -13.136   5.889  1.00  0.00     0.219 C 
HETATM   18  N   UNL     1      43.844 -12.590   7.072  1.00  0.00    -0.359 N 
HETATM   19  H   UNL     1      44.460 -13.183   7.624  1.00  0.00     0.162 HD
HETATM   20  O   UNL     1      42.791 -12.472   5.057  1.00  0.00    -0.274 OA
BRANCH  18  21
HETATM   21  C   UNL     1      43.900 -11.165   7.394  1.00  0.00     0.150 C 
BRANCH  21  22
HETATM   22  C   UNL     1      44.317 -10.722   8.815  1.00  0.00     0.254 C 
BRANCH  22  23
HETATM   23  N   UNL     1      43.158 -10.370   9.711  1.00  0.00    -0.065 N 
HETATM   24  H   UNL     1      42.537 -11.200   9.649  1.00  0.00     0.280 HD
HETATM   25  C   UNL     1      43.508 -10.185  11.170  1.00  0.00     0.274 C 
HETATM   26  C   UNL     1      42.333  -9.720  11.965  1.00  0.00    -0.019 A 
HETATM   27  C   UNL     1      41.186  -9.231  11.369  1.00  0.00    -0.008 A 
HETATM   28  C   UNL     1      42.219  -9.694  13.390  1.00  0.00     0.017 A 
HETATM   29  S   UNL     1      40.000  -8.762  12.490  1.00  0.00    -0.106 SA
HETATM   30  C   UNL     1      40.971  -9.139   9.893  1.00  0.00     0.074 C 
HETATM   31  C   UNL     1      41.002  -9.196  13.806  1.00  0.00     0.051 A 
HETATM   32  C   UNL     1      42.322  -9.221   9.163  1.00  0.00     0.240 C 
ENDBRANCH  22  23
ENDBRANCH  21  22
ENDBRANCH  18  21
ENDBRANCH   1  17
TORSDOF 7
ENDMDL
MODEL 6
REMARK VINA RESULT:      -7.5      2.895      4.207
REMARK  7 active torsions:
REMARK  status: ('A' for Active; 'I' for Inactive)
REMARK    1  A    between atoms: C_3  and  C_4 
REMARK    2  A    between atoms: C_4  and  N_5 
REMARK    3  A    between atoms: C_4  and  C_9 
REMARK       I    between atoms: N_5  and  C_6 
REMARK       I    between atoms: C_6  and  N_7 
REMARK    4  A    between atoms: C_9  and  C_10 
REMARK       I    between atoms: C_10  and  N_11 
REMARK    5  A    between atoms: N_11  and  C_12 
REMARK    6  A    between atoms: C_12  and  C_13 
REMARK    7  A    between atoms: C_13  and  N_14 
ROOT
HETATM    1  C   UNL     1      43.379 -14.222   6.146  1.00  0.00     0.132 C 
ENDROOT
BRANCH   1   2
HETATM    2  C   UNL     1      42.787 -14.577   4.774  1.00  0.00     0.128 C 
BRANCH   2   3
HETATM    3  C   UNL     1      43.163 -15.980   4.298  1.00  0.00    -0.029 A 
HETATM    4  C   UNL     1      43.270 -16.308   2.927  1.00  0.00    -0.054 A 
HETATM    5  C   UNL     1      43.010 -15.306   1.833  1.00  0.00     0.049 C 
HETATM    6  C   UNL     1      43.618 -17.619   2.556  1.00  0.00     0.007 A 
HETATM    7  C   UNL     1      43.850 -18.600   3.518  1.00  0.00     0.001 A 
HETATM    8  C   UNL     1      43.737 -18.289   4.865  1.00  0.00     0.001 A 
HETATM    9  C   UNL     1      43.395 -16.993   5.251  1.00  0.00     0.010 A 
ENDBRANCH   2   3
BRANCH   2  10
HETATM   10  N   UNL     1      41.345 -14.371   4.668  1.00  0.00    -0.334 N 
HETATM   11  C   UNL     1      40.746 -13.376   3.963  1.00  0.00     0.314 C 
HETATM   12  N   UNL     1      39.399 -13.366   4.108  1.00  0.00    -0.352 N 
HETATM   13  O   UNL     1      41.312 -12.586   3.223  1.00  0.00    -0.248 OA
HETATM   14  H   UNL     1      38.995 -13.629   4.994  1.00  0.00     0.160 HD
HETATM   15  H   UNL     1      38.941 -12.589   3.647  1.00  0.00     0.160 HD
HETATM   16  H   UNL     1      40.766 -14.859   5.335  1.00  0.00     0.165 HD
ENDBRANCH   2  10
ENDBRANCH   1   2
BRANCH   1  17
HETATM   17  C   UNL     1      43.630 -12.737   6.254  1.00  0.00     0.219 C 
HETATM   18  N   UNL     1      43.631 -12.230   7.532  1.00  0.00    -0.359 N 
HETATM   19  H   UNL     1      43.663 -12.924   8.277  1.00  0.00     0.162 HD
HETATM   20  O   UNL     1      43.756 -12.013   5.270  1.00  0.00    -0.274 OA
BRANCH  18  21
HETATM   21  C   UNL     1      44.035 -10.881   7.923  1.00  0.00     0.150 C 
BRANCH  21  22
HETATM   22  C   UNL     1      42.957  -9.793   8.129  1.00  0.00     0.254 C 
BRANCH  22  23
HETATM   23  N   UNL     1      42.473  -9.671   9.551  1.00  0.00    -0.065 N 
HETATM   24  H   UNL     1      42.536 -10.641   9.916  1.00  0.00     0.280 HD
HETATM   25  C   UNL     1      43.326  -8.803  10.447  1.00  0.00     0.274 C 
HETATM   26  C   UNL     1      42.715  -8.636  11.798  1.00  0.00    -0.019 A 
HETATM   27  C   UNL     1      41.401  -8.975  12.061  1.00  0.00    -0.008 A 
HETATM   28  C   UNL     1      43.351  -8.113  12.968  1.00  0.00     0.017 A 
HETATM   29  S   UNL     1      40.945  -8.684  13.670  1.00  0.00    -0.106 SA
HETATM   30  C   UNL     1      40.462  -9.567  11.060  1.00  0.00     0.074 C 
HETATM   31  C   UNL     1      42.501  -8.085  14.054  1.00  0.00     0.051 A 
HETATM   32  C   UNL     1      40.995  -9.320   9.638  1.00  0.00     0.240 C 
ENDBRANCH  22  23
ENDBRANCH  21  22
ENDBRANCH  18  21
ENDBRANCH   1  17
TORSDOF 7
ENDMDL
MODEL 7
REMARK VINA RESULT:      -7.5      3.832      6.208
REMARK  7 active torsions:
REMARK  status: ('A' for Active; 'I' for Inactive)
REMARK    1  A    between atoms: C_3  and  C_4 
REMARK    2  A    between atoms: C_4  and  N_5 
REMARK    3  A    between atoms: C_4  and  C_9 
REMARK       I    between atoms: N_5  and  C_6 
REMARK       I    between atoms: C_6  and  N_7 
REMARK    4  A    between atoms: C_9  and  C_10 
REMARK       I    between atoms: C_10  and  N_11 
REMARK    5  A    between atoms: N_11  and  C_12 
REMARK    6  A    between atoms: C_12  and  C_13 
REMARK    7  A    between atoms: C_13  and  N_14 
ROOT
HETATM    1  C   UNL     1      43.198 -14.364   4.078  1.00  0.00     0.132 C 
ENDROOT
BRANCH   1   2
HETATM    2  C   UNL     1      42.781 -15.645   4.815  1.00  0.00     0.128 C 
BRANCH   2   3
HETATM    3  C   UNL     1      43.156 -16.923   4.065  1.00  0.00    -0.029 A 
HETATM    4  C   UNL     1      42.513 -17.311   2.866  1.00  0.00    -0.054 A 
HETATM    5  C   UNL     1      41.404 -16.503   2.246  1.00  0.00     0.049 C 
HETATM    6  C   UNL     1      42.904 -18.501   2.227  1.00  0.00     0.007 A 
HETATM    7  C   UNL     1      43.909 -19.306   2.759  1.00  0.00     0.001 A 
HETATM    8  C   UNL     1      44.537 -18.938   3.940  1.00  0.00     0.001 A 
HETATM    9  C   UNL     1      44.164 -17.760   4.587  1.00  0.00     0.010 A 
ENDBRANCH   2   3
BRANCH   2  10
HETATM   10  N   UNL     1      43.232 -15.717   6.202  1.00  0.00    -0.334 N 
HETATM   11  C   UNL     1      42.420 -15.858   7.283  1.00  0.00     0.314 C 
HETATM   12  N   UNL     1      43.094 -15.806   8.457  1.00  0.00    -0.352 N 
HETATM   13  O   UNL     1      41.217 -16.064   7.249  1.00  0.00    -0.248 OA
HETATM   14  H   UNL     1      43.895 -15.199   8.541  1.00  0.00     0.160 HD
HETATM   15  H   UNL     1      42.499 -15.838   9.276  1.00  0.00     0.160 HD
HETATM   16  H   UNL     1      44.179 -15.422   6.388  1.00  0.00     0.165 HD
ENDBRANCH   2  10
ENDBRANCH   1   2
BRANCH   1  17
HETATM   17  C   UNL     1      42.194 -13.261   4.311  1.00  0.00     0.219 C 
HETATM   18  N   UNL     1      42.320 -12.165   3.491  1.00  0.00    -0.359 N 
HETATM   19  H   UNL     1      42.937 -12.288   2.690  1.00  0.00     0.162 HD
HETATM   20  O   UNL     1      41.362 -13.301   5.215  1.00  0.00    -0.274 OA
BRANCH  18  21
HETATM   21  C   UNL     1      41.371 -11.059   3.379  1.00  0.00     0.150 C 
BRANCH  21  22
HETATM   22  C   UNL     1      39.938 -11.333   2.869  1.00  0.00     0.254 C 
BRANCH  22  23
HETATM   23  N   UNL     1      39.877 -11.819   1.444  1.00  0.00    -0.065 N 
HETATM   24  H   UNL     1      38.908 -11.594   1.148  1.00  0.00     0.280 HD
HETATM   25  C   UNL     1      40.810 -11.115   0.486  1.00  0.00     0.274 C 
HETATM   26  C   UNL     1      40.778 -11.735  -0.872  1.00  0.00    -0.019 A 
HETATM   27  C   UNL     1      40.207 -12.972  -1.104  1.00  0.00    -0.008 A 
HETATM   28  C   UNL     1      41.315 -11.186  -2.078  1.00  0.00     0.017 A 
HETATM   29  S   UNL     1      40.305 -13.458  -2.728  1.00  0.00    -0.106 SA
HETATM   30  C   UNL     1      39.540 -13.808  -0.060  1.00  0.00     0.074 C 
HETATM   31  C   UNL     1      41.125 -12.020  -3.160  1.00  0.00     0.051 A 
HETATM   32  C   UNL     1      39.971 -13.335   1.339  1.00  0.00     0.240 C 
ENDBRANCH  22  23
ENDBRANCH  21  22
ENDBRANCH  18  21
ENDBRANCH   1  17
TORSDOF 7
ENDMDL
MODEL 8
REMARK VINA RESULT:      -7.4      4.069      6.405
REMARK  7 active torsions:
REMARK  status: ('A' for Active; 'I' for Inactive)
REMARK    1  A    between atoms: C_3  and  C_4 
REMARK    2  A    between atoms: C_4  and  N_5 
REMARK    3  A    between atoms: C_4  and  C_9 
REMARK       I    between atoms: N_5  and  C_6 
REMARK       I    between atoms: C_6  and  N_7 
REMARK    4  A    between atoms: C_9  and  C_10 
REMARK       I    between atoms: C_10  and  N_11 
REMARK    5  A    between atoms: N_11  and  C_12 
REMARK    6  A    between atoms: C_12  and  C_13 
REMARK    7  A    between atoms: C_13  and  N_14 
ROOT
HETATM    1  C   UNL     1      40.303 -15.710   3.253  1.00  0.00     0.132 C 
ENDROOT
BRANCH   1   2
HETATM    2  C   UNL     1      41.763 -15.568   3.709  1.00  0.00     0.128 C 
BRANCH   2   3
HETATM    3  C   UNL     1      42.578 -16.848   3.532  1.00  0.00    -0.029 A 
HETATM    4  C   UNL     1      43.531 -17.275   4.486  1.00  0.00    -0.054 A 
HETATM    5  C   UNL     1      43.823 -16.495   5.741  1.00  0.00     0.049 C 
HETATM    6  C   UNL     1      44.250 -18.463   4.262  1.00  0.00     0.007 A 
HETATM    7  C   UNL     1      44.044 -19.220   3.110  1.00  0.00     0.001 A 
HETATM    8  C   UNL     1      43.119 -18.803   2.164  1.00  0.00     0.001 A 
HETATM    9  C   UNL     1      42.395 -17.629   2.372  1.00  0.00     0.010 A 
ENDBRANCH   2   3
BRANCH   2  10
HETATM   10  N   UNL     1      42.468 -14.429   3.127  1.00  0.00    -0.334 N 
HETATM   11  C   UNL     1      42.935 -13.359   3.822  1.00  0.00     0.314 C 
HETATM   12  N   UNL     1      43.471 -12.406   3.022  1.00  0.00    -0.352 N 
HETATM   13  O   UNL     1      42.942 -13.247   5.039  1.00  0.00    -0.248 OA
HETATM   14  H   UNL     1      43.070 -12.241   2.112  1.00  0.00     0.160 HD
HETATM   15  H   UNL     1      43.761 -11.570   3.516  1.00  0.00     0.160 HD
HETATM   16  H   UNL     1      42.410 -14.323   2.125  1.00  0.00     0.165 HD
ENDBRANCH   2  10
ENDBRANCH   1   2
BRANCH   1  17
HETATM   17  C   UNL     1      39.938 -14.621   2.274  1.00  0.00     0.219 C 
HETATM   18  N   UNL     1      39.986 -14.979   0.948  1.00  0.00    -0.359 N 
HETATM   19  H   UNL     1      40.065 -15.979   0.768  1.00  0.00     0.162 HD
HETATM   20  O   UNL     1      39.683 -13.471   2.625  1.00  0.00    -0.274 OA
BRANCH  18  21
HETATM   21  C   UNL     1      39.501 -14.183  -0.178  1.00  0.00     0.150 C 
BRANCH  21  22
HETATM   22  C   UNL     1      40.406 -13.984  -1.415  1.00  0.00     0.254 C 
BRANCH  22  23
HETATM   23  N   UNL     1      40.890 -12.568  -1.598  1.00  0.00    -0.065 N 
HETATM   24  H   UNL     1      41.923 -12.665  -1.636  1.00  0.00     0.280 HD
HETATM   25  C   UNL     1      40.459 -11.904  -2.885  1.00  0.00     0.274 C 
HETATM   26  C   UNL     1      40.874 -10.471  -2.932  1.00  0.00    -0.019 A 
HETATM   27  C   UNL     1      41.310  -9.792  -1.810  1.00  0.00    -0.008 A 
HETATM   28  C   UNL     1      40.874  -9.616  -4.079  1.00  0.00     0.017 A 
HETATM   29  S   UNL     1      41.718  -8.173  -2.126  1.00  0.00    -0.106 SA
HETATM   30  C   UNL     1      41.448 -10.399  -0.452  1.00  0.00     0.074 C 
HETATM   31  C   UNL     1      41.309  -8.342  -3.779  1.00  0.00     0.051 A 
HETATM   32  C   UNL     1      40.628 -11.698  -0.377  1.00  0.00     0.240 C 
ENDBRANCH  22  23
ENDBRANCH  21  22
ENDBRANCH  18  21
ENDBRANCH   1  17
TORSDOF 7
ENDMDL
MODEL 9
REMARK VINA RESULT:      -7.4      1.941      2.932
REMARK  7 active torsions:
REMARK  status: ('A' for Active; 'I' for Inactive)
REMARK    1  A    between atoms: C_3  and  C_4 
REMARK    2  A    between atoms: C_4  and  N_5 
REMARK    3  A    between atoms: C_4  and  C_9 
REMARK       I    between atoms: N_5  and  C_6 
REMARK       I    between atoms: C_6  and  N_7 
REMARK    4  A    between atoms: C_9  and  C_10 
REMARK       I    between atoms: C_10  and  N_11 
REMARK    5  A    between atoms: N_11  and  C_12 
REMARK    6  A    between atoms: C_12  and  C_13 
REMARK    7  A    between atoms: C_13  and  N_14 
ROOT
HETATM    1  C   UNL     1      43.379 -14.589   2.133  1.00  0.00     0.132 C 
ENDROOT
BRANCH   1   2
HETATM    2  C   UNL     1      42.347 -15.611   2.631  1.00  0.00     0.128 C 
BRANCH   2   3
HETATM    3  C   UNL     1      42.843 -16.443   3.813  1.00  0.00    -0.029 A 
HETATM    4  C   UNL     1      43.326 -17.763   3.658  1.00  0.00    -0.054 A 
HETATM    5  C   UNL     1      43.376 -18.453   2.320  1.00  0.00     0.049 C 
HETATM    6  C   UNL     1      43.765 -18.475   4.788  1.00  0.00     0.007 A 
HETATM    7  C   UNL     1      43.725 -17.904   6.058  1.00  0.00     0.001 A 
HETATM    8  C   UNL     1      43.243 -16.613   6.221  1.00  0.00     0.001 A 
HETATM    9  C   UNL     1      42.804 -15.891   5.111  1.00  0.00     0.010 A 
ENDBRANCH   2   3
BRANCH   2  10
HETATM   10  N   UNL     1      41.030 -15.048   2.919  1.00  0.00    -0.334 N 
HETATM   11  C   UNL     1      39.936 -15.167   2.123  1.00  0.00     0.314 C 
HETATM   12  N   UNL     1      38.870 -14.473   2.587  1.00  0.00    -0.352 N 
HETATM   13  O   UNL     1      39.858 -15.856   1.117  1.00  0.00    -0.248 OA
HETATM   14  H   UNL     1      39.018 -13.595   3.060  1.00  0.00     0.160 HD
HETATM   15  H   UNL     1      38.066 -14.492   1.971  1.00  0.00     0.160 HD
HETATM   16  H   UNL     1      40.986 -14.343   3.640  1.00  0.00     0.165 HD
ENDBRANCH   2  10
ENDBRANCH   1   2
BRANCH   1  17
HETATM   17  C   UNL     1      42.957 -13.184   2.491  1.00  0.00     0.219 C 
HETATM   18  N   UNL     1      43.475 -12.694   3.666  1.00  0.00    -0.359 N 
HETATM   19  H   UNL     1      44.234 -13.240   4.070  1.00  0.00     0.162 HD
HETATM   20  O   UNL     1      42.154 -12.541   1.819  1.00  0.00    -0.274 OA
BRANCH  18  21
HETATM   21  C   UNL     1      43.382 -11.314   4.139  1.00  0.00     0.150 C 
BRANCH  21  22
HETATM   22  C   UNL     1      42.159 -10.877   4.977  1.00  0.00     0.254 C 
BRANCH  22  23
HETATM   23  N   UNL     1      42.485 -10.543   6.410  1.00  0.00    -0.065 N 
HETATM   24  H   UNL     1      41.984 -11.273   6.953  1.00  0.00     0.280 HD
HETATM   25  C   UNL     1      43.948 -10.644   6.775  1.00  0.00     0.274 C 
HETATM   26  C   UNL     1      44.202 -10.181   8.172  1.00  0.00    -0.019 A 
HETATM   27  C   UNL     1      43.264  -9.469   8.894  1.00  0.00    -0.008 A 
HETATM   28  C   UNL     1      45.395 -10.377   8.936  1.00  0.00     0.017 A 
HETATM   29  S   UNL     1      43.796  -9.054  10.453  1.00  0.00    -0.106 SA
HETATM   30  C   UNL     1      41.902  -9.110   8.394  1.00  0.00     0.074 C 
HETATM   31  C   UNL     1      45.306  -9.815  10.192  1.00  0.00     0.051 A 
HETATM   32  C   UNL     1      41.862  -9.230   6.861  1.00  0.00     0.240 C 
ENDBRANCH  22  23
ENDBRANCH  21  22
ENDBRANCH  18  21
ENDBRANCH   1  17
TORSDOF 7
ENDMDL
MODEL 10
REMARK VINA RESULT:      -7.4      8.863     12.598
REMARK  7 active torsions:
REMARK  status: ('A' for Active; 'I' for Inactive)
REMARK    1  A    between atoms: C_3  and  C_4 
REMARK    2  A    between atoms: C_4  and  N_5 
REMARK    3  A    between atoms: C_4  and  C_9 
REMARK       I    between atoms: N_5  and  C_6 
REMARK       I    between atoms: C_6  and  N_7 
REMARK    4  A    between atoms: C_9  and  C_10 
REMARK       I    between atoms: C_10  and  N_11 
REMARK    5  A    between atoms: N_11  and  C_12 
REMARK    6  A    between atoms: C_12  and  C_13 
REMARK    7  A    between atoms: C_13  and  N_14 
ROOT
HETATM    1  C   UNL     1      43.206  -7.591  13.740  1.00  0.00     0.132 C 
ENDROOT
BRANCH   1   2
HETATM    2  C   UNL     1      42.412  -8.145  12.547  1.00  0.00     0.128 C 
BRANCH   2   3
HETATM    3  C   UNL     1      43.247  -8.274  11.273  1.00  0.00    -0.029 A 
HETATM    4  C   UNL     1      43.132  -7.361  10.199  1.00  0.00    -0.054 A 
HETATM    5  C   UNL     1      42.170  -6.202  10.223  1.00  0.00     0.049 C 
HETATM    6  C   UNL     1      43.928  -7.538   9.054  1.00  0.00     0.007 A 
HETATM    7  C   UNL     1      44.822  -8.602   8.958  1.00  0.00     0.001 A 
HETATM    8  C   UNL     1      44.934  -9.508  10.003  1.00  0.00     0.001 A 
HETATM    9  C   UNL     1      44.153  -9.347  11.147  1.00  0.00     0.010 A 
ENDBRANCH   2   3
BRANCH   2  10
HETATM   10  N   UNL     1      41.703  -9.392  12.821  1.00  0.00    -0.334 N 
HETATM   11  C   UNL     1      40.437  -9.677  12.420  1.00  0.00     0.314 C 
HETATM   12  N   UNL     1      39.993 -10.868  12.886  1.00  0.00    -0.352 N 
HETATM   13  O   UNL     1      39.752  -8.990  11.676  1.00  0.00    -0.248 OA
HETATM   14  H   UNL     1      40.282 -11.181  13.800  1.00  0.00     0.160 HD
HETATM   15  H   UNL     1      39.026 -11.066  12.656  1.00  0.00     0.160 HD
HETATM   16  H   UNL     1      42.091  -9.987  13.537  1.00  0.00     0.165 HD
ENDBRANCH   2  10
ENDBRANCH   1   2
BRANCH   1  17
HETATM   17  C   UNL     1      42.283  -7.249  14.885  1.00  0.00     0.219 C 
HETATM   18  N   UNL     1      42.250  -5.921  15.238  1.00  0.00    -0.359 N 
HETATM   19  H   UNL     1      42.687  -5.282  14.577  1.00  0.00     0.162 HD
HETATM   20  O   UNL     1      41.655  -8.102  15.508  1.00  0.00    -0.274 OA
BRANCH  18  21
HETATM   21  C   UNL     1      41.310  -5.301  16.172  1.00  0.00     0.150 C 
BRANCH  21  22
HETATM   22  C   UNL     1      41.670  -5.221  17.673  1.00  0.00     0.254 C 
BRANCH  22  23
HETATM   23  N   UNL     1      41.676  -6.555  18.373  1.00  0.00    -0.065 N 
HETATM   24  H   UNL     1      41.906  -7.229  17.618  1.00  0.00     0.280 HD
HETATM   25  C   UNL     1      42.731  -6.712  19.444  1.00  0.00     0.274 C 
HETATM   26  C   UNL     1      42.592  -8.009  20.170  1.00  0.00    -0.019 A 
HETATM   27  C   UNL     1      41.458  -8.792  20.071  1.00  0.00    -0.008 A 
HETATM   28  C   UNL     1      43.550  -8.608  21.047  1.00  0.00     0.017 A 
HETATM   29  S   UNL     1      41.543 -10.212  20.997  1.00  0.00    -0.106 SA
HETATM   30  C   UNL     1      40.273  -8.463  19.221  1.00  0.00     0.074 C 
HETATM   31  C   UNL     1      43.106  -9.807  21.563  1.00  0.00     0.051 A 
HETATM   32  C   UNL     1      40.293  -6.970  18.854  1.00  0.00     0.240 C 
ENDBRANCH  22  23
ENDBRANCH  21  22
ENDBRANCH  18  21
ENDBRANCH   1  17
TORSDOF 7
ENDMDL
