MODEL 1
REMARK VINA RESULT:      -8.3      0.000      0.000
REMARK  5 active torsions:
REMARK  status: ('A' for Active; 'I' for Inactive)
REMARK    1  A    between atoms: C_2  and  C_3 
REMARK    2  A    between atoms: C_3  and  C_4 
REMARK    3  A    between atoms: C_8  and  N_9 
REMARK       I    between atoms: N_9  and  C_10 
REMARK    4  A    between atoms: C_10  and  C_11 
REMARK    5  A    between atoms: N_13  and  C_14 
ROOT
HETATM    1  C   UNL     1      41.751 -12.076   4.320  1.00  0.00     0.106 C 
HETATM    2  C   UNL     1      42.976 -12.976   4.407  1.00  0.00     0.148 C 
HETATM    3  N   UNL     1      42.530 -14.149   5.108  1.00  0.00    -0.299 N 
HETATM    4  C   UNL     1      41.376 -13.874   5.851  1.00  0.00     0.226 C 
HETATM    5  O   UNL     1      40.760 -14.569   6.645  1.00  0.00    -0.273 OA
HETATM    6  C   UNL     1      40.980 -12.443   5.578  1.00  0.00     0.119 C 
ENDROOT
BRANCH   1   7
HETATM    7  C   UNL     1      42.142 -10.610   4.280  1.00  0.00     0.242 C 
HETATM    8  N   UNL     1      41.811  -9.809   3.226  1.00  0.00    -0.156 N 
HETATM    9  H   UNL     1      42.065  -8.838   3.355  1.00  0.00     0.187 HD
HETATM   10  O   UNL     1      42.753 -10.080   5.214  1.00  0.00    -0.272 OA
BRANCH   8  11
HETATM   11  C   UNL     1      41.291 -10.215   2.028  1.00  0.00     0.725 A 
HETATM   12  N   UNL     1      40.015  -9.897   1.642  1.00  0.00    -0.106 N 
HETATM   13  N   UNL     1      39.721 -10.408   0.437  1.00  0.00    -0.144 NA
HETATM   14  H   UNL     1      39.312  -9.368   2.140  1.00  0.00     0.208 HD
HETATM   15  C   UNL     1      40.870 -11.015   0.119  1.00  0.00     0.166 A 
HETATM   16  N   UNL     1      41.852 -10.913   1.071  1.00  0.00    -0.046 NA
BRANCH  15  17
HETATM   17  C   UNL     1      41.073 -11.760  -1.153  1.00  0.00     0.087 C 
BRANCH  17  18
HETATM   18  C   UNL     1      40.155 -12.988  -1.295  1.00  0.00    -0.016 C 
HETATM   19  C   UNL     1      40.402 -14.019  -0.190  1.00  0.00     0.010 C 
HETATM   20  C   UNL     1      40.366 -13.642  -2.662  1.00  0.00     0.010 C 
ENDBRANCH  17  18
ENDBRANCH  15  17
ENDBRANCH   8  11
ENDBRANCH   1   7
BRANCH   3  21
HETATM   21  C   UNL     1      43.189 -15.376   5.149  1.00  0.00     0.165 A 
HETATM   22  N   UNL     1      43.978 -15.732   6.167  1.00  0.00    -0.155 NA
HETATM   23  N   UNL     1      44.403 -16.960   5.872  1.00  0.00    -0.275 N 
HETATM   24  H   UNL     1      45.027 -17.417   6.529  1.00  0.00     0.189 HD
HETATM   25  C   UNL     1      43.928 -17.451   4.692  1.00  0.00     0.065 A 
HETATM   26  C   UNL     1      43.127 -16.434   4.174  1.00  0.00     0.040 A 
HETATM   27  C   UNL     1      44.140 -18.678   4.053  1.00  0.00     0.051 A 
HETATM   28  C   UNL     1      42.514 -16.656   2.921  1.00  0.00     0.019 A 
HETATM   29  C   UNL     1      42.711 -17.878   2.257  1.00  0.00     0.020 A 
HETATM   30  C   UNL     1      43.509 -18.867   2.822  1.00  0.00     0.013 A 
HETATM   31 BR   UNL     1      43.754 -20.504   1.902  1.00  0.00    -0.051 Br
ENDBRANCH   3  21
TORSDOF 5
ENDMDL
MODEL 2
REMARK VINA RESULT:      -8.2      3.244      5.640
REMARK  5 active torsions:
REMARK  status: ('A' for Active; 'I' for Inactive)
REMARK    1  A    between atoms: C_2  and  C_3 
REMARK    2  A    between atoms: C_3  and  C_4 
REMARK    3  A    between atoms: C_8  and  N_9 
REMARK       I    between atoms: N_9  and  C_10 
REMARK    4  A    between atoms: C_10  and  C_11 
REMARK    5  A    between atoms: N_13  and  C_14 
ROOT
HETATM    1  C   UNL     1      41.513 -12.212   5.869  1.00  0.00     0.106 C 
HETATM    2  C   UNL     1      41.605 -13.714   6.092  1.00  0.00     0.148 C 
HETATM    3  N   UNL     1      42.549 -14.182   5.114  1.00  0.00    -0.299 N 
HETATM    4  C   UNL     1      42.661 -13.271   4.057  1.00  0.00     0.226 C 
HETATM    5  O   UNL     1      43.273 -13.351   3.003  1.00  0.00    -0.273 OA
HETATM    6  C   UNL     1      41.789 -12.081   4.379  1.00  0.00     0.119 C 
ENDROOT
BRANCH   1   7
HETATM    7  C   UNL     1      40.149 -11.675   6.261  1.00  0.00     0.242 C 
HETATM    8  N   UNL     1      39.986 -10.400   6.720  1.00  0.00    -0.156 N 
HETATM    9  H   UNL     1      39.021 -10.142   6.876  1.00  0.00     0.187 HD
HETATM   10  O   UNL     1      39.130 -12.366   6.155  1.00  0.00    -0.272 OA
BRANCH   8  11
HETATM   11  C   UNL     1      40.980  -9.528   7.070  1.00  0.00     0.725 A 
HETATM   12  N   UNL     1      41.139  -8.317   6.450  1.00  0.00    -0.106 N 
HETATM   13  N   UNL     1      42.180  -7.637   6.952  1.00  0.00    -0.144 NA
HETATM   14  H   UNL     1      40.601  -7.912   5.695  1.00  0.00     0.208 HD
HETATM   15  C   UNL     1      42.613  -8.476   7.899  1.00  0.00     0.166 A 
HETATM   16  N   UNL     1      41.897  -9.643   7.998  1.00  0.00    -0.046 NA
BRANCH  15  17
HETATM   17  C   UNL     1      43.785  -8.189   8.769  1.00  0.00     0.087 C 
BRANCH  17  18
HETATM   18  C   UNL     1      44.721  -9.399   8.953  1.00  0.00    -0.016 C 
HETATM   19  C   UNL     1      44.954  -9.724  10.431  1.00  0.00     0.010 C 
HETATM   20  C   UNL     1      46.062  -9.129   8.269  1.00  0.00     0.010 C 
ENDBRANCH  17  18
ENDBRANCH  15  17
ENDBRANCH   8  11
ENDBRANCH   1   7
BRANCH   3  21
HETATM   21  C   UNL     1      43.200 -15.415   5.130  1.00  0.00     0.165 A 
HETATM   22  N   UNL     1      44.031 -15.773   6.114  1.00  0.00    -0.155 NA
HETATM   23  N   UNL     1      44.432 -17.006   5.806  1.00  0.00    -0.275 N 
HETATM   24  H   UNL     1      45.080 -17.465   6.436  1.00  0.00     0.189 HD
HETATM   25  C   UNL     1      43.901 -17.497   4.650  1.00  0.00     0.065 A 
HETATM   26  C   UNL     1      43.085 -16.476   4.164  1.00  0.00     0.040 A 
HETATM   27  C   UNL     1      44.074 -18.729   4.008  1.00  0.00     0.051 A 
HETATM   28  C   UNL     1      42.415 -16.698   2.940  1.00  0.00     0.019 A 
HETATM   29  C   UNL     1      42.573 -17.924   2.274  1.00  0.00     0.020 A 
HETATM   30  C   UNL     1      43.387 -18.918   2.807  1.00  0.00     0.013 A 
HETATM   31 BR   UNL     1      43.577 -20.560   1.885  1.00  0.00    -0.051 Br
ENDBRANCH   3  21
TORSDOF 5
ENDMDL
MODEL 3
REMARK VINA RESULT:      -8.2      4.396      7.247
REMARK  5 active torsions:
REMARK  status: ('A' for Active; 'I' for Inactive)
REMARK    1  A    between atoms: C_2  and  C_3 
REMARK    2  A    between atoms: C_3  and  C_4 
REMARK    3  A    between atoms: C_8  and  N_9 
REMARK       I    between atoms: N_9  and  C_10 
REMARK    4  A    between atoms: C_10  and  C_11 
REMARK    5  A    between atoms: N_13  and  C_14 
ROOT
HETATM    1  C   UNL     1      43.789 -12.011   6.535  1.00  0.00     0.106 C 
HETATM    2  C   UNL     1      43.820 -12.758   5.210  1.00  0.00     0.148 C 
HETATM    3  N   UNL     1      43.036 -13.943   5.429  1.00  0.00    -0.299 N 
HETATM    4  C   UNL     1      42.950 -14.236   6.795  1.00  0.00     0.226 C 
HETATM    5  O   UNL     1      42.464 -15.197   7.371  1.00  0.00    -0.273 OA
HETATM    6  C   UNL     1      43.663 -13.138   7.548  1.00  0.00     0.119 C 
ENDROOT
BRANCH   1   7
HETATM    7  C   UNL     1      45.045 -11.183   6.735  1.00  0.00     0.242 C 
HETATM    8  N   UNL     1      45.243 -10.443   7.864  1.00  0.00    -0.156 N 
HETATM    9  H   UNL     1      46.150  -9.997   7.907  1.00  0.00     0.187 HD
HETATM   10  O   UNL     1      45.948 -11.167   5.891  1.00  0.00    -0.272 OA
BRANCH   8  11
HETATM   11  C   UNL     1      44.319 -10.183   8.839  1.00  0.00     0.725 A 
HETATM   12  N   UNL     1      43.199  -9.433   8.600  1.00  0.00    -0.106 N 
HETATM   13  N   UNL     1      42.445  -9.304   9.702  1.00  0.00    -0.144 NA
HETATM   14  H   UNL     1      42.904  -8.982   7.744  1.00  0.00     0.208 HD
HETATM   15  C   UNL     1      43.146 -10.020  10.588  1.00  0.00     0.166 A 
HETATM   16  N   UNL     1      44.298 -10.574  10.090  1.00  0.00    -0.046 NA
BRANCH  15  17
HETATM   17  C   UNL     1      42.731 -10.195  12.006  1.00  0.00     0.087 C 
BRANCH  17  18
HETATM   18  C   UNL     1      42.174  -8.907  12.642  1.00  0.00    -0.016 C 
HETATM   19  C   UNL     1      43.291  -7.954  13.079  1.00  0.00     0.010 C 
HETATM   20  C   UNL     1      41.299  -9.257  13.847  1.00  0.00     0.010 C 
ENDBRANCH  17  18
ENDBRANCH  15  17
ENDBRANCH   8  11
ENDBRANCH   1   7
BRANCH   3  21
HETATM   21  C   UNL     1      42.510 -14.770   4.437  1.00  0.00     0.165 A 
HETATM   22  N   UNL     1      41.481 -14.399   3.668  1.00  0.00    -0.155 NA
HETATM   23  N   UNL     1      41.280 -15.419   2.833  1.00  0.00    -0.275 N 
HETATM   24  H   UNL     1      40.530 -15.337   2.156  1.00  0.00     0.189 HD
HETATM   25  C   UNL     1      42.138 -16.465   3.007  1.00  0.00     0.065 A 
HETATM   26  C   UNL     1      42.964 -16.084   4.063  1.00  0.00     0.040 A 
HETATM   27  C   UNL     1      42.244 -17.689   2.337  1.00  0.00     0.051 A 
HETATM   28  C   UNL     1      43.949 -17.002   4.490  1.00  0.00     0.019 A 
HETATM   29  C   UNL     1      44.077 -18.238   3.837  1.00  0.00     0.020 A 
HETATM   30  C   UNL     1      43.237 -18.566   2.778  1.00  0.00     0.013 A 
HETATM   31 BR   UNL     1      43.436 -20.241   1.917  1.00  0.00    -0.051 Br
ENDBRANCH   3  21
TORSDOF 5
ENDMDL
MODEL 4
REMARK VINA RESULT:      -8.1      2.423      7.096
REMARK  5 active torsions:
REMARK  status: ('A' for Active; 'I' for Inactive)
REMARK    1  A    between atoms: C_2  and  C_3 
REMARK    2  A    between atoms: C_3  and  C_4 
REMARK    3  A    between atoms: C_8  and  N_9 
REMARK       I    between atoms: N_9  and  C_10 
REMARK    4  A    between atoms: C_10  and  C_11 
REMARK    5  A    between atoms: N_13  and  C_14 
ROOT
HETATM    1  C   UNL     1      41.481 -13.874   4.551  1.00  0.00     0.106 C 
HETATM    2  C   UNL     1      40.261 -13.454   3.744  1.00  0.00     0.148 C 
HETATM    3  N   UNL     1      40.771 -12.590   2.714  1.00  0.00    -0.299 N 
HETATM    4  C   UNL     1      42.017 -12.067   3.078  1.00  0.00     0.226 C 
HETATM    5  O   UNL     1      42.718 -11.232   2.527  1.00  0.00    -0.273 OA
HETATM    6  C   UNL     1      42.403 -12.673   4.406  1.00  0.00     0.119 C 
ENDROOT
BRANCH   1   7
HETATM    7  C   UNL     1      41.119 -14.163   5.996  1.00  0.00     0.242 C 
HETATM    8  N   UNL     1      41.793 -15.093   6.732  1.00  0.00    -0.156 N 
HETATM    9  H   UNL     1      41.503 -15.137   7.700  1.00  0.00     0.187 HD
HETATM   10  O   UNL     1      40.214 -13.546   6.569  1.00  0.00    -0.272 OA
BRANCH   8  11
HETATM   11  C   UNL     1      42.705 -15.997   6.261  1.00  0.00     0.725 A 
HETATM   12  N   UNL     1      44.055 -15.793   6.366  1.00  0.00    -0.106 N 
HETATM   13  N   UNL     1      44.752 -16.806   5.829  1.00  0.00    -0.144 NA
HETATM   14  H   UNL     1      44.552 -15.007   6.764  1.00  0.00     0.208 HD
HETATM   15  C   UNL     1      43.770 -17.619   5.427  1.00  0.00     0.166 A 
HETATM   16  N   UNL     1      42.504 -17.154   5.679  1.00  0.00    -0.046 NA
BRANCH  15  17
HETATM   17  C   UNL     1      44.016 -18.918   4.743  1.00  0.00     0.087 C 
BRANCH  17  18
HETATM   18  C   UNL     1      44.155 -18.787   3.215  1.00  0.00    -0.016 C 
HETATM   19  C   UNL     1      43.338 -17.615   2.663  1.00  0.00     0.010 C 
HETATM   20  C   UNL     1      43.711 -20.085   2.538  1.00  0.00     0.010 C 
ENDBRANCH  17  18
ENDBRANCH  15  17
ENDBRANCH   8  11
ENDBRANCH   1   7
BRANCH   3  21
HETATM   21  C   UNL     1      40.097 -12.219   1.552  1.00  0.00     0.165 A 
HETATM   22  N   UNL     1      39.689 -10.966   1.330  1.00  0.00    -0.155 NA
HETATM   23  N   UNL     1      39.119 -10.988   0.125  1.00  0.00    -0.275 N 
HETATM   24  H   UNL     1      38.736 -10.122  -0.235  1.00  0.00     0.189 HD
HETATM   25  C   UNL     1      39.130 -12.211  -0.478  1.00  0.00     0.065 A 
HETATM   26  C   UNL     1      39.760 -13.059   0.432  1.00  0.00     0.040 A 
HETATM   27  C   UNL     1      38.642 -12.628  -1.723  1.00  0.00     0.051 A 
HETATM   28  C   UNL     1      39.890 -14.420   0.079  1.00  0.00     0.019 A 
HETATM   29  C   UNL     1      39.407 -14.866  -1.162  1.00  0.00     0.020 A 
HETATM   30  C   UNL     1      38.798 -13.978  -2.042  1.00  0.00     0.013 A 
HETATM   31 BR   UNL     1      38.159 -14.611  -3.708  1.00  0.00    -0.051 Br
ENDBRANCH   3  21
TORSDOF 5
ENDMDL
MODEL 5
REMARK VINA RESULT:      -7.8      1.898      2.479
REMARK  5 active torsions:
REMARK  status: ('A' for Active; 'I' for Inactive)
REMARK    1  A    between atoms: C_2  and  C_3 
REMARK    2  A    between atoms: C_3  and  C_4 
REMARK    3  A    between atoms: C_8  and  N_9 
REMARK       I    between atoms: N_9  and  C_10 
REMARK    4  A    between atoms: C_10  and  C_11 
REMARK    5  A    between atoms: N_13  and  C_14 
ROOT
HETATM    1  C   UNL     1      40.874 -12.497   5.526  1.00  0.00     0.106 C 
HETATM    2  C   UNL     1      41.060 -14.007   5.491  1.00  0.00     0.148 C 
HETATM    3  N   UNL     1      42.369 -14.211   4.933  1.00  0.00    -0.299 N 
HETATM    4  C   UNL     1      42.778 -13.088   4.205  1.00  0.00     0.226 C 
HETATM    5  O   UNL     1      43.768 -12.911   3.511  1.00  0.00    -0.273 OA
HETATM    6  C   UNL     1      41.706 -12.034   4.341  1.00  0.00     0.119 C 
ENDROOT
BRANCH   1   7
HETATM    7  C   UNL     1      39.411 -12.115   5.399  1.00  0.00     0.242 C 
HETATM    8  N   UNL     1      38.674 -12.457   4.302  1.00  0.00    -0.156 N 
HETATM    9  H   UNL     1      37.697 -12.208   4.373  1.00  0.00     0.187 HD
HETATM   10  O   UNL     1      38.824 -11.501   6.297  1.00  0.00    -0.272 OA
BRANCH   8  11
HETATM   11  C   UNL     1      39.152 -12.982   3.133  1.00  0.00     0.725 A 
HETATM   12  N   UNL     1      39.256 -14.332   2.929  1.00  0.00    -0.106 N 
HETATM   13  N   UNL     1      39.756 -14.612   1.717  1.00  0.00    -0.144 NA
HETATM   14  H   UNL     1      39.027 -15.091   3.557  1.00  0.00     0.208 HD
HETATM   15  C   UNL     1      39.921 -13.387   1.208  1.00  0.00     0.166 A 
HETATM   16  N   UNL     1      39.557 -12.366   2.050  1.00  0.00    -0.046 NA
BRANCH  15  17
HETATM   17  C   UNL     1      40.469 -13.135  -0.153  1.00  0.00     0.087 C 
BRANCH  17  18
HETATM   18  C   UNL     1      39.595 -13.716  -1.280  1.00  0.00    -0.016 C 
HETATM   19  C   UNL     1      40.364 -13.833  -2.599  1.00  0.00     0.010 C 
HETATM   20  C   UNL     1      38.358 -12.840  -1.484  1.00  0.00     0.010 C 
ENDBRANCH  17  18
ENDBRANCH  15  17
ENDBRANCH   8  11
ENDBRANCH   1   7
BRANCH   3  21
HETATM   21  C   UNL     1      43.110 -15.390   4.998  1.00  0.00     0.165 A 
HETATM   22  N   UNL     1      43.957 -15.649   5.998  1.00  0.00    -0.155 NA
HETATM   23  N   UNL     1      44.453 -16.859   5.737  1.00  0.00    -0.275 N 
HETATM   24  H   UNL     1      45.128 -17.245   6.387  1.00  0.00     0.189 HD
HETATM   25  C   UNL     1      43.969 -17.430   4.597  1.00  0.00     0.065 A 
HETATM   26  C   UNL     1      43.083 -16.491   4.070  1.00  0.00     0.040 A 
HETATM   27  C   UNL     1      44.239 -18.667   4.001  1.00  0.00     0.051 A 
HETATM   28  C   UNL     1      42.442 -16.807   2.852  1.00  0.00     0.019 A 
HETATM   29  C   UNL     1      42.696 -18.040   2.231  1.00  0.00     0.020 A 
HETATM   30  C   UNL     1      43.578 -18.950   2.804  1.00  0.00     0.013 A 
HETATM   31 BR   UNL     1      43.898 -20.605   1.943  1.00  0.00    -0.051 Br
ENDBRANCH   3  21
TORSDOF 5
ENDMDL
MODEL 6
REMARK VINA RESULT:      -7.8      7.299      9.938
REMARK  5 active torsions:
REMARK  status: ('A' for Active; 'I' for Inactive)
REMARK    1  A    between atoms: C_2  and  C_3 
REMARK    2  A    between atoms: C_3  and  C_4 
REMARK    3  A    between atoms: C_8  and  N_9 
REMARK       I    between atoms: N_9  and  C_10 
REMARK    4  A    between atoms: C_10  and  C_11 
REMARK    5  A    between atoms: N_13  and  C_14 
ROOT
HETATM    1  C   UNL     1      43.837  -9.832   8.493  1.00  0.00     0.106 C 
HETATM    2  C   UNL     1      43.704 -10.030   9.997  1.00  0.00     0.148 C 
HETATM    3  N   UNL     1      42.622  -9.170  10.394  1.00  0.00    -0.299 N 
HETATM    4  C   UNL     1      42.420  -8.158   9.448  1.00  0.00     0.226 C 
HETATM    5  O   UNL     1      41.675  -7.190   9.470  1.00  0.00    -0.273 OA
HETATM    6  C   UNL     1      43.381  -8.394   8.307  1.00  0.00     0.119 C 
ENDROOT
BRANCH   1   7
HETATM    7  C   UNL     1      45.264 -10.058   8.028  1.00  0.00     0.242 C 
HETATM    8  N   UNL     1      45.566 -10.977   7.067  1.00  0.00    -0.156 N 
HETATM    9  H   UNL     1      46.540 -10.978   6.794  1.00  0.00     0.187 HD
HETATM   10  O   UNL     1      46.203  -9.398   8.486  1.00  0.00    -0.272 OA
BRANCH   8  11
HETATM   11  C   UNL     1      44.722 -11.921   6.549  1.00  0.00     0.725 A 
HETATM   12  N   UNL     1      44.059 -11.735   5.365  1.00  0.00    -0.106 N 
HETATM   13  N   UNL     1      43.284 -12.786   5.062  1.00  0.00    -0.144 NA
HETATM   14  H   UNL     1      44.076 -10.937   4.743  1.00  0.00     0.208 HD
HETATM   15  C   UNL     1      43.530 -13.603   6.091  1.00  0.00     0.166 A 
HETATM   16  N   UNL     1      44.409 -13.103   7.018  1.00  0.00    -0.046 NA
BRANCH  15  17
HETATM   17  C   UNL     1      42.895 -14.941   6.241  1.00  0.00     0.087 C 
BRANCH  17  18
HETATM   18  C   UNL     1      43.156 -15.877   5.046  1.00  0.00    -0.016 C 
HETATM   19  C   UNL     1      41.859 -16.473   4.490  1.00  0.00     0.010 C 
HETATM   20  C   UNL     1      44.100 -17.006   5.465  1.00  0.00     0.010 C 
ENDBRANCH  17  18
ENDBRANCH  15  17
ENDBRANCH   8  11
ENDBRANCH   1   7
BRANCH   3  21
HETATM   21  C   UNL     1      41.922  -9.241  11.597  1.00  0.00     0.165 A 
HETATM   22  N   UNL     1      40.888 -10.069  11.776  1.00  0.00    -0.155 NA
HETATM   23  N   UNL     1      40.498  -9.881  13.036  1.00  0.00    -0.275 N 
HETATM   24  H   UNL     1      39.711 -10.422  13.376  1.00  0.00     0.189 HD
HETATM   25  C   UNL     1      41.233  -8.957  13.719  1.00  0.00     0.065 A 
HETATM   26  C   UNL     1      42.181  -8.501  12.804  1.00  0.00     0.040 A 
HETATM   27  C   UNL     1      41.136  -8.494  15.037  1.00  0.00     0.051 A 
HETATM   28  C   UNL     1      43.079  -7.499  13.234  1.00  0.00     0.019 A 
HETATM   29  C   UNL     1      43.003  -7.015  14.550  1.00  0.00     0.020 A 
HETATM   30  C   UNL     1      42.047  -7.512  15.430  1.00  0.00     0.013 A 
HETATM   31 BR   UNL     1      41.972  -6.840  17.199  1.00  0.00    -0.051 Br
ENDBRANCH   3  21
TORSDOF 5
ENDMDL
MODEL 7
REMARK VINA RESULT:      -7.8      2.497      6.816
REMARK  5 active torsions:
REMARK  status: ('A' for Active; 'I' for Inactive)
REMARK    1  A    between atoms: C_2  and  C_3 
REMARK    2  A    between atoms: C_3  and  C_4 
REMARK    3  A    between atoms: C_8  and  N_9 
REMARK       I    between atoms: N_9  and  C_10 
REMARK    4  A    between atoms: C_10  and  C_11 
REMARK    5  A    between atoms: N_13  and  C_14 
ROOT
HETATM    1  C   UNL     1      41.772 -12.012   4.169  1.00  0.00     0.106 C 
HETATM    2  C   UNL     1      40.350 -11.928   3.632  1.00  0.00     0.148 C 
HETATM    3  N   UNL     1      40.486 -11.443   2.285  1.00  0.00    -0.299 N 
HETATM    4  C   UNL     1      41.711 -10.787   2.116  1.00  0.00     0.226 C 
HETATM    5  O   UNL     1      42.150 -10.162   1.162  1.00  0.00    -0.273 OA
HETATM    6  C   UNL     1      42.478 -10.899   3.411  1.00  0.00     0.119 C 
ENDROOT
BRANCH   1   7
HETATM    7  C   UNL     1      41.809 -11.811   5.673  1.00  0.00     0.242 C 
HETATM    8  N   UNL     1      41.994 -12.856   6.531  1.00  0.00    -0.156 N 
HETATM    9  H   UNL     1      42.073 -12.580   7.501  1.00  0.00     0.187 HD
HETATM   10  O   UNL     1      41.699 -10.688   6.176  1.00  0.00    -0.272 OA
BRANCH   8  11
HETATM   11  C   UNL     1      41.971 -14.186   6.210  1.00  0.00     0.725 A 
HETATM   12  N   UNL     1      40.888 -14.981   6.474  1.00  0.00    -0.106 N 
HETATM   13  N   UNL     1      41.095 -16.246   6.081  1.00  0.00    -0.144 NA
HETATM   14  H   UNL     1      40.011 -14.738   6.918  1.00  0.00     0.208 HD
HETATM   15  C   UNL     1      42.324 -16.163   5.559  1.00  0.00     0.166 A 
HETATM   16  N   UNL     1      42.887 -14.914   5.620  1.00  0.00    -0.046 NA
BRANCH  15  17
HETATM   17  C   UNL     1      43.040 -17.328   4.972  1.00  0.00     0.087 C 
BRANCH  17  18
HETATM   18  C   UNL     1      43.257 -17.209   3.452  1.00  0.00    -0.016 C 
HETATM   19  C   UNL     1      41.958 -16.881   2.711  1.00  0.00     0.010 C 
HETATM   20  C   UNL     1      43.843 -18.513   2.905  1.00  0.00     0.010 C 
ENDBRANCH  17  18
ENDBRANCH  15  17
ENDBRANCH   8  11
ENDBRANCH   1   7
BRANCH   3  21
HETATM   21  C   UNL     1      39.510 -11.506   1.292  1.00  0.00     0.165 A 
HETATM   22  N   UNL     1      38.503 -10.631   1.221  1.00  0.00    -0.155 NA
HETATM   23  N   UNL     1      37.801 -10.986   0.145  1.00  0.00    -0.275 N 
HETATM   24  H   UNL     1      36.980 -10.440  -0.088  1.00  0.00     0.189 HD
HETATM   25  C   UNL     1      38.300 -12.068  -0.518  1.00  0.00     0.065 A 
HETATM   26  C   UNL     1      39.426 -12.451   0.209  1.00  0.00     0.040 A 
HETATM   27  C   UNL     1      37.855 -12.727  -1.671  1.00  0.00     0.051 A 
HETATM   28  C   UNL     1      40.141 -13.585  -0.238  1.00  0.00     0.019 A 
HETATM   29  C   UNL     1      39.716 -14.266  -1.389  1.00  0.00     0.020 A 
HETATM   30  C   UNL     1      38.593 -13.836  -2.089  1.00  0.00     0.013 A 
HETATM   31 BR   UNL     1      38.047 -14.775  -3.640  1.00  0.00    -0.051 Br
ENDBRANCH   3  21
TORSDOF 5
ENDMDL
MODEL 8
REMARK VINA RESULT:      -7.7      4.870      9.062
REMARK  5 active torsions:
REMARK  status: ('A' for Active; 'I' for Inactive)
REMARK    1  A    between atoms: C_2  and  C_3 
REMARK    2  A    between atoms: C_3  and  C_4 
REMARK    3  A    between atoms: C_8  and  N_9 
REMARK       I    between atoms: N_9  and  C_10 
REMARK    4  A    between atoms: C_10  and  C_11 
REMARK    5  A    between atoms: N_13  and  C_14 
ROOT
HETATM    1  C   UNL     1      39.883 -12.633  -0.290  1.00  0.00     0.106 C 
HETATM    2  C   UNL     1      40.808 -11.905  -1.254  1.00  0.00     0.148 C 
HETATM    3  N   UNL     1      40.622 -10.508  -0.970  1.00  0.00    -0.299 N 
HETATM    4  C   UNL     1      39.397 -10.291  -0.329  1.00  0.00     0.226 C 
HETATM    5  O   UNL     1      38.838  -9.251  -0.017  1.00  0.00    -0.273 OA
HETATM    6  C   UNL     1      38.750 -11.637  -0.103  1.00  0.00     0.119 C 
ENDROOT
BRANCH   1   7
HETATM    7  C   UNL     1      39.410 -13.955  -0.866  1.00  0.00     0.242 C 
HETATM    8  N   UNL     1      39.487 -15.115  -0.153  1.00  0.00    -0.156 N 
HETATM    9  H   UNL     1      39.072 -15.911  -0.621  1.00  0.00     0.187 HD
HETATM   10  O   UNL     1      38.915 -14.025  -1.996  1.00  0.00    -0.272 OA
BRANCH   8  11
HETATM   11  C   UNL     1      40.143 -15.299   1.033  1.00  0.00     0.725 A 
HETATM   12  N   UNL     1      39.476 -15.407   2.225  1.00  0.00    -0.106 N 
HETATM   13  N   UNL     1      40.323 -15.574   3.252  1.00  0.00    -0.144 NA
HETATM   14  H   UNL     1      38.482 -15.362   2.406  1.00  0.00     0.208 HD
HETATM   15  C   UNL     1      41.503 -15.583   2.623  1.00  0.00     0.166 A 
HETATM   16  N   UNL     1      41.427 -15.420   1.263  1.00  0.00    -0.046 NA
BRANCH  15  17
HETATM   17  C   UNL     1      42.803 -15.739   3.331  1.00  0.00     0.087 C 
BRANCH  17  18
HETATM   18  C   UNL     1      43.042 -17.165   3.862  1.00  0.00    -0.016 C 
HETATM   19  C   UNL     1      44.114 -17.198   4.955  1.00  0.00     0.010 C 
HETATM   20  C   UNL     1      43.455 -18.087   2.712  1.00  0.00     0.010 C 
ENDBRANCH  17  18
ENDBRANCH  15  17
ENDBRANCH   8  11
ENDBRANCH   1   7
BRANCH   3  21
HETATM   21  C   UNL     1      41.472  -9.474  -1.361  1.00  0.00     0.165 A 
HETATM   22  N   UNL     1      42.450  -9.015  -0.573  1.00  0.00    -0.155 NA
HETATM   23  N   UNL     1      43.057  -8.064  -1.283  1.00  0.00    -0.275 N 
HETATM   24  H   UNL     1      43.839  -7.581  -0.856  1.00  0.00     0.189 HD
HETATM   25  C   UNL     1      42.528  -7.865  -2.523  1.00  0.00     0.065 A 
HETATM   26  C   UNL     1      41.472  -8.770  -2.616  1.00  0.00     0.040 A 
HETATM   27  C   UNL     1      42.885  -6.976  -3.545  1.00  0.00     0.051 A 
HETATM   28  C   UNL     1      40.709  -8.768  -3.806  1.00  0.00     0.019 A 
HETATM   29  C   UNL     1      41.044  -7.887  -4.845  1.00  0.00     0.020 A 
HETATM   30  C   UNL     1      42.117  -7.011  -4.710  1.00  0.00     0.013 A 
HETATM   31 BR   UNL     1      42.543  -5.836  -6.131  1.00  0.00    -0.051 Br
ENDBRANCH   3  21
TORSDOF 5
ENDMDL
MODEL 9
REMARK VINA RESULT:      -7.2      5.229      8.480
REMARK  5 active torsions:
REMARK  status: ('A' for Active; 'I' for Inactive)
REMARK    1  A    between atoms: C_2  and  C_3 
REMARK    2  A    between atoms: C_3  and  C_4 
REMARK    3  A    between atoms: C_8  and  N_9 
REMARK       I    between atoms: N_9  and  C_10 
REMARK    4  A    between atoms: C_10  and  C_11 
REMARK    5  A    between atoms: N_13  and  C_14 
ROOT
HETATM    1  C   UNL     1      44.057 -11.611   6.723  1.00  0.00     0.106 C 
HETATM    2  C   UNL     1      43.942 -11.569   5.206  1.00  0.00     0.148 C 
HETATM    3  N   UNL     1      42.983 -12.588   4.874  1.00  0.00    -0.299 N 
HETATM    4  C   UNL     1      42.879 -13.526   5.907  1.00  0.00     0.226 C 
HETATM    5  O   UNL     1      42.257 -14.576   5.965  1.00  0.00    -0.273 OA
HETATM    6  C   UNL     1      43.773 -13.072   7.036  1.00  0.00     0.119 C 
ENDROOT
BRANCH   1   7
HETATM    7  C   UNL     1      45.433 -11.170   7.187  1.00  0.00     0.242 C 
HETATM    8  N   UNL     1      45.636 -10.646   8.431  1.00  0.00    -0.156 N 
HETATM    9  H   UNL     1      46.607 -10.461   8.643  1.00  0.00     0.187 HD
HETATM   10  O   UNL     1      46.428 -11.294   6.464  1.00  0.00    -0.272 OA
BRANCH   8  11
HETATM   11  C   UNL     1      44.669 -10.269   9.322  1.00  0.00     0.725 A 
HETATM   12  N   UNL     1      43.725  -9.324   9.016  1.00  0.00    -0.106 N 
HETATM   13  N   UNL     1      42.889  -9.111  10.043  1.00  0.00    -0.144 NA
HETATM   14  H   UNL     1      43.606  -8.794   8.163  1.00  0.00     0.208 HD
HETATM   15  C   UNL     1      43.357  -9.975  10.950  1.00  0.00     0.166 A 
HETATM   16  N   UNL     1      44.446 -10.701  10.538  1.00  0.00    -0.046 NA
BRANCH  15  17
HETATM   17  C   UNL     1      42.766 -10.132  12.307  1.00  0.00     0.087 C 
BRANCH  17  18
HETATM   18  C   UNL     1      42.128  -8.839  12.849  1.00  0.00    -0.016 C 
HETATM   19  C   UNL     1      43.178  -7.858  13.375  1.00  0.00     0.010 C 
HETATM   20  C   UNL     1      41.136  -9.176  13.964  1.00  0.00     0.010 C 
ENDBRANCH  17  18
ENDBRANCH  15  17
ENDBRANCH   8  11
ENDBRANCH   1   7
BRANCH   3  21
HETATM   21  C   UNL     1      42.312 -12.713   3.659  1.00  0.00     0.165 A 
HETATM   22  N   UNL     1      42.812 -13.410   2.634  1.00  0.00    -0.155 NA
HETATM   23  N   UNL     1      41.893 -13.329   1.671  1.00  0.00    -0.275 N 
HETATM   24  H   UNL     1      42.084 -13.797   0.792  1.00  0.00     0.189 HD
HETATM   25  C   UNL     1      40.788 -12.605   2.009  1.00  0.00     0.065 A 
HETATM   26  C   UNL     1      41.024 -12.171   3.312  1.00  0.00     0.040 A 
HETATM   27  C   UNL     1      39.629 -12.301   1.284  1.00  0.00     0.051 A 
HETATM   28  C   UNL     1      40.041 -11.360   3.922  1.00  0.00     0.019 A 
HETATM   29  C   UNL     1      38.870 -11.038   3.217  1.00  0.00     0.020 A 
HETATM   30  C   UNL     1      38.675 -11.507   1.923  1.00  0.00     0.013 A 
HETATM   31 BR   UNL     1      37.084 -11.057   1.000  1.00  0.00    -0.051 Br
ENDBRANCH   3  21
TORSDOF 5
ENDMDL
MODEL 10
REMARK VINA RESULT:      -7.1      4.462      6.629
REMARK  5 active torsions:
REMARK  status: ('A' for Active; 'I' for Inactive)
REMARK    1  A    between atoms: C_2  and  C_3 
REMARK    2  A    between atoms: C_3  and  C_4 
REMARK    3  A    between atoms: C_8  and  N_9 
REMARK       I    between atoms: N_9  and  C_10 
REMARK    4  A    between atoms: C_10  and  C_11 
REMARK    5  A    between atoms: N_13  and  C_14 
ROOT
HETATM    1  C   UNL     1      41.810 -13.306   4.762  1.00  0.00     0.106 C 
HETATM    2  C   UNL     1      42.332 -13.045   6.168  1.00  0.00     0.148 C 
HETATM    3  N   UNL     1      43.315 -12.007   6.017  1.00  0.00    -0.299 N 
HETATM    4  C   UNL     1      43.783 -11.955   4.699  1.00  0.00     0.226 C 
HETATM    5  O   UNL     1      44.678 -11.288   4.201  1.00  0.00    -0.273 OA
HETATM    6  C   UNL     1      43.016 -12.977   3.895  1.00  0.00     0.119 C 
ENDROOT
BRANCH   1   7
HETATM    7  C   UNL     1      41.346 -14.741   4.599  1.00  0.00     0.242 C 
HETATM    8  N   UNL     1      40.666 -15.153   3.490  1.00  0.00    -0.156 N 
HETATM    9  H   UNL     1      40.479 -16.146   3.471  1.00  0.00     0.187 HD
HETATM   10  O   UNL     1      41.590 -15.599   5.455  1.00  0.00    -0.272 OA
BRANCH   8  11
HETATM   11  C   UNL     1      40.149 -14.352   2.509  1.00  0.00     0.725 A 
HETATM   12  N   UNL     1      39.085 -13.518   2.734  1.00  0.00    -0.106 N 
HETATM   13  N   UNL     1      38.748 -12.838   1.628  1.00  0.00    -0.144 NA
HETATM   14  H   UNL     1      38.552 -13.379   3.583  1.00  0.00     0.208 HD
HETATM   15  C   UNL     1      39.659 -13.281   0.756  1.00  0.00     0.166 A 
HETATM   16  N   UNL     1      40.533 -14.208   1.265  1.00  0.00    -0.046 NA
BRANCH  15  17
HETATM   17  C   UNL     1      39.719 -12.829  -0.661  1.00  0.00     0.087 C 
BRANCH  17  18
HETATM   18  C   UNL     1      38.737 -13.576  -1.583  1.00  0.00    -0.016 C 
HETATM   19  C   UNL     1      39.448 -14.219  -2.777  1.00  0.00     0.010 C 
HETATM   20  C   UNL     1      37.659 -12.614  -2.086  1.00  0.00     0.010 C 
ENDBRANCH  17  18
ENDBRANCH  15  17
ENDBRANCH   8  11
ENDBRANCH   1   7
BRANCH   3  21
HETATM   21  C   UNL     1      43.831 -11.215   7.042  1.00  0.00     0.165 A 
HETATM   22  N   UNL     1      44.909 -11.569   7.747  1.00  0.00    -0.155 NA
HETATM   23  N   UNL     1      45.115 -10.569   8.603  1.00  0.00    -0.275 N 
HETATM   24  H   UNL     1      45.899 -10.645   9.242  1.00  0.00     0.189 HD
HETATM   25  C   UNL     1      44.217  -9.549   8.501  1.00  0.00     0.065 A 
HETATM   26  C   UNL     1      43.343  -9.936   7.486  1.00  0.00     0.040 A 
HETATM   27  C   UNL     1      44.105  -8.346   9.209  1.00  0.00     0.051 A 
HETATM   28  C   UNL     1      42.272  -9.068   7.176  1.00  0.00     0.019 A 
HETATM   29  C   UNL     1      42.135  -7.856   7.872  1.00  0.00     0.020 A 
HETATM   30  C   UNL     1      43.041  -7.508   8.868  1.00  0.00     0.013 A 
HETATM   31 BR   UNL     1      42.829  -5.866   9.786  1.00  0.00    -0.051 Br
ENDBRANCH   3  21
TORSDOF 5
ENDMDL
