MODEL 1
REMARK VINA RESULT:      -8.7      0.000      0.000
REMARK  6 active torsions:
REMARK  status: ('A' for Active; 'I' for Inactive)
REMARK    1  A    between atoms: O_2  and  C_3 
REMARK    2  A    between atoms: C_6  and  C_7 
REMARK    3  A    between atoms: C_7  and  C_8 
REMARK       I    between atoms: C_8  and  N_9 
REMARK    4  A    between atoms: N_9  and  C_10 
REMARK    5  A    between atoms: C_10  and  C_11 
REMARK       I    between atoms: C_11  and  N_12 
REMARK    6  A    between atoms: N_12  and  N_13 
ROOT
HETATM    1  C   UNL     1      42.071 -13.329   5.430  1.00  0.00     0.255 C 
HETATM    2  N   UNL     1      43.232 -14.077   5.481  1.00  0.00    -0.245 N 
HETATM    3  O   UNL     1      41.033 -13.680   4.866  1.00  0.00    -0.270 OA
HETATM    4  H   UNL     1      44.075 -13.658   5.877  1.00  0.00     0.192 HD
ENDROOT
BRANCH   1   5
HETATM    5  C   UNL     1      42.173 -11.946   6.088  1.00  0.00     0.227 C 
BRANCH   5   6
HETATM    6  N   UNL     1      43.227 -11.746   7.079  1.00  0.00    -0.352 N 
HETATM    7  C   UNL     1      44.447 -11.223   6.707  1.00  0.00     0.222 C 
HETATM    8  O   UNL     1      44.787 -11.128   5.532  1.00  0.00    -0.273 OA
HETATM    9  H   UNL     1      42.933 -11.605   8.038  1.00  0.00     0.162 HD
BRANCH   7  10
HETATM   10  C   UNL     1      45.330 -10.777   7.860  1.00  0.00     0.141 C 
BRANCH  10  11
HETATM   11  C   UNL     1      44.635  -9.870   8.852  1.00  0.00    -0.049 A 
HETATM   12  C   UNL     1      44.121  -8.620   8.482  1.00  0.00     0.010 A 
HETATM   13  C   UNL     1      43.516  -7.779   9.424  1.00  0.00     0.037 A 
HETATM   14  C   UNL     1      43.436  -8.166  10.760  1.00  0.00     0.068 A 
HETATM   15  C   UNL     1      43.971  -9.397  11.142  1.00  0.00     0.037 A 
HETATM   16  C   UNL     1      44.568 -10.242  10.202  1.00  0.00     0.010 A 
BRANCH  14  17
HETATM   17  O   UNL     1      42.880  -7.440  11.777  1.00  0.00    -0.356 OA
HETATM   18  C   UNL     1      43.146  -7.885  13.102  1.00  0.00     0.210 C 
ENDBRANCH  14  17
ENDBRANCH  10  11
ENDBRANCH   7  10
ENDBRANCH   5   6
ENDBRANCH   1   5
BRANCH   2  19
HETATM   19  N   UNL     1      43.315 -15.277   4.838  1.00  0.00    -0.166 NA
HETATM   20  C   UNL     1      43.368 -16.330   5.585  1.00  0.00     0.157 A 
HETATM   21  C   UNL     1      43.301 -16.431   7.114  1.00  0.00     0.277 A 
HETATM   22  C   UNL     1      43.504 -17.699   5.100  1.00  0.00     0.028 A 
HETATM   23  O   UNL     1      43.161 -15.494   7.872  1.00  0.00    -0.266 OA
HETATM   24  N   UNL     1      43.408 -17.777   7.399  1.00  0.00    -0.321 N 
HETATM   25  C   UNL     1      43.525 -18.521   6.227  1.00  0.00     0.048 A 
HETATM   26  H   UNL     1      43.395 -18.146   8.338  1.00  0.00     0.169 HD
HETATM   27  C   UNL     1      43.651 -19.888   6.113  1.00  0.00     0.032 A 
HETATM   28  C   UNL     1      43.758 -20.417   4.820  1.00  0.00     0.021 A 
HETATM   29  C   UNL     1      43.738 -19.574   3.688  1.00  0.00     0.012 A 
HETATM   30 BR   UNL     1      43.890 -20.338   1.964  1.00  0.00    -0.051 Br
HETATM   31  C   UNL     1      43.610 -18.191   3.816  1.00  0.00     0.035 A 
ENDBRANCH   2  19
TORSDOF 6
ENDMDL
MODEL 2
REMARK VINA RESULT:      -8.5      4.024      8.865
REMARK  6 active torsions:
REMARK  status: ('A' for Active; 'I' for Inactive)
REMARK    1  A    between atoms: O_2  and  C_3 
REMARK    2  A    between atoms: C_6  and  C_7 
REMARK    3  A    between atoms: C_7  and  C_8 
REMARK       I    between atoms: C_8  and  N_9 
REMARK    4  A    between atoms: N_9  and  C_10 
REMARK    5  A    between atoms: C_10  and  C_11 
REMARK       I    between atoms: C_11  and  N_12 
REMARK    6  A    between atoms: N_12  and  N_13 
ROOT
HETATM    1  C   UNL     1      39.730 -11.952   4.770  1.00  0.00     0.255 C 
HETATM    2  N   UNL     1      40.570 -10.855   4.797  1.00  0.00    -0.245 N 
HETATM    3  O   UNL     1      39.509 -12.693   5.729  1.00  0.00    -0.270 OA
HETATM    4  H   UNL     1      40.775 -10.365   3.926  1.00  0.00     0.192 HD
ENDROOT
BRANCH   1   5
HETATM    5  C   UNL     1      39.109 -12.247   3.397  1.00  0.00     0.227 C 
BRANCH   5   6
HETATM    6  N   UNL     1      39.050 -13.641   2.967  1.00  0.00    -0.352 N 
HETATM    7  C   UNL     1      40.088 -14.196   2.249  1.00  0.00     0.222 C 
HETATM    8  O   UNL     1      40.972 -13.512   1.742  1.00  0.00    -0.273 OA
HETATM    9  H   UNL     1      38.481 -14.268   3.523  1.00  0.00     0.162 HD
BRANCH   7  10
HETATM   10  C   UNL     1      40.050 -15.711   2.137  1.00  0.00     0.141 C 
BRANCH  10  11
HETATM   11  C   UNL     1      41.193 -16.408   2.840  1.00  0.00    -0.049 A 
HETATM   12  C   UNL     1      41.451 -16.220   4.205  1.00  0.00     0.010 A 
HETATM   13  C   UNL     1      42.538 -16.845   4.828  1.00  0.00     0.037 A 
HETATM   14  C   UNL     1      43.400 -17.654   4.090  1.00  0.00     0.068 A 
HETATM   15  C   UNL     1      43.166 -17.824   2.725  1.00  0.00     0.037 A 
HETATM   16  C   UNL     1      42.077 -17.208   2.102  1.00  0.00     0.010 A 
BRANCH  14  17
HETATM   17  O   UNL     1      44.496 -18.314   4.573  1.00  0.00    -0.356 OA
HETATM   18  C   UNL     1      44.328 -19.690   4.890  1.00  0.00     0.210 C 
ENDBRANCH  14  17
ENDBRANCH  10  11
ENDBRANCH   7  10
ENDBRANCH   5   6
ENDBRANCH   1   5
BRANCH   2  19
HETATM   19  N   UNL     1      41.274 -10.548   5.924  1.00  0.00    -0.166 NA
HETATM   20  C   UNL     1      42.542 -10.801   5.900  1.00  0.00     0.157 A 
HETATM   21  C   UNL     1      43.390 -11.359   4.750  1.00  0.00     0.277 A 
HETATM   22  C   UNL     1      43.463 -10.591   7.011  1.00  0.00     0.028 A 
HETATM   23  O   UNL     1      42.976 -11.636   3.645  1.00  0.00    -0.266 OA
HETATM   24  N   UNL     1      44.674 -11.442   5.248  1.00  0.00    -0.321 N 
HETATM   25  C   UNL     1      44.723 -10.994   6.566  1.00  0.00     0.048 A 
HETATM   26  H   UNL     1      45.457 -11.781   4.707  1.00  0.00     0.169 HD
HETATM   27  C   UNL     1      45.826 -10.927   7.388  1.00  0.00     0.032 A 
HETATM   28  C   UNL     1      45.630 -10.441   8.688  1.00  0.00     0.021 A 
HETATM   29  C   UNL     1      44.350 -10.039   9.126  1.00  0.00     0.012 A 
HETATM   30 BR   UNL     1      44.138  -9.393  10.891  1.00  0.00    -0.051 Br
HETATM   31  C   UNL     1      43.240 -10.111   8.284  1.00  0.00     0.035 A 
ENDBRANCH   2  19
TORSDOF 6
ENDMDL
MODEL 3
REMARK VINA RESULT:      -8.3      1.879      3.058
REMARK  6 active torsions:
REMARK  status: ('A' for Active; 'I' for Inactive)
REMARK    1  A    between atoms: O_2  and  C_3 
REMARK    2  A    between atoms: C_6  and  C_7 
REMARK    3  A    between atoms: C_7  and  C_8 
REMARK       I    between atoms: C_8  and  N_9 
REMARK    4  A    between atoms: N_9  and  C_10 
REMARK    5  A    between atoms: C_10  and  C_11 
REMARK       I    between atoms: C_11  and  N_12 
REMARK    6  A    between atoms: N_12  and  N_13 
ROOT
HETATM    1  C   UNL     1      43.905 -12.476   6.901  1.00  0.00     0.255 C 
HETATM    2  N   UNL     1      42.910 -13.429   6.786  1.00  0.00    -0.245 N 
HETATM    3  O   UNL     1      45.089 -12.658   6.613  1.00  0.00    -0.270 OA
HETATM    4  H   UNL     1      41.980 -13.221   7.150  1.00  0.00     0.192 HD
ENDROOT
BRANCH   1   5
HETATM    5  C   UNL     1      43.442 -11.139   7.494  1.00  0.00     0.227 C 
BRANCH   5   6
HETATM    6  N   UNL     1      43.816 -10.846   8.874  1.00  0.00    -0.352 N 
HETATM    7  C   UNL     1      44.951 -10.115   9.152  1.00  0.00     0.222 C 
HETATM    8  O   UNL     1      45.806  -9.886   8.302  1.00  0.00    -0.273 OA
HETATM    9  H   UNL     1      43.068 -10.821   9.557  1.00  0.00     0.162 HD
BRANCH   7  10
HETATM   10  C   UNL     1      45.058  -9.618  10.584  1.00  0.00     0.141 C 
BRANCH  10  11
HETATM   11  C   UNL     1      43.730  -9.252  11.209  1.00  0.00    -0.049 A 
HETATM   12  C   UNL     1      43.108  -8.020  10.965  1.00  0.00     0.010 A 
HETATM   13  C   UNL     1      41.898  -7.686  11.585  1.00  0.00     0.037 A 
HETATM   14  C   UNL     1      41.299  -8.572  12.478  1.00  0.00     0.068 A 
HETATM   15  C   UNL     1      41.926  -9.789  12.747  1.00  0.00     0.037 A 
HETATM   16  C   UNL     1      43.130 -10.128  12.124  1.00  0.00     0.010 A 
BRANCH  14  17
HETATM   17  O   UNL     1      40.127  -8.366  13.153  1.00  0.00    -0.356 OA
HETATM   18  C   UNL     1      40.052  -7.199  13.963  1.00  0.00     0.210 C 
ENDBRANCH  14  17
ENDBRANCH  10  11
ENDBRANCH   7  10
ENDBRANCH   5   6
ENDBRANCH   1   5
BRANCH   2  19
HETATM   19  N   UNL     1      43.207 -14.697   6.380  1.00  0.00    -0.166 NA
HETATM   20  C   UNL     1      43.073 -14.946   5.119  1.00  0.00     0.157 A 
HETATM   21  C   UNL     1      42.672 -13.992   3.987  1.00  0.00     0.277 A 
HETATM   22  C   UNL     1      43.294 -16.243   4.489  1.00  0.00     0.028 A 
HETATM   23  O   UNL     1      42.430 -12.811   4.119  1.00  0.00    -0.266 OA
HETATM   24  N   UNL     1      42.675 -14.760   2.841  1.00  0.00    -0.321 N 
HETATM   25  C   UNL     1      43.038 -16.074   3.128  1.00  0.00     0.048 A 
HETATM   26  H   UNL     1      42.445 -14.393   1.929  1.00  0.00     0.169 HD
HETATM   27  C   UNL     1      43.153 -17.124   2.243  1.00  0.00     0.032 A 
HETATM   28  C   UNL     1      43.533 -18.366   2.767  1.00  0.00     0.021 A 
HETATM   29  C   UNL     1      43.786 -18.524   4.147  1.00  0.00     0.012 A 
HETATM   30 BR   UNL     1      44.294 -20.224   4.804  1.00  0.00    -0.051 Br
HETATM   31  C   UNL     1      43.668 -17.453   5.033  1.00  0.00     0.035 A 
ENDBRANCH   2  19
TORSDOF 6
ENDMDL
MODEL 4
REMARK VINA RESULT:      -8.3      3.920      9.415
REMARK  6 active torsions:
REMARK  status: ('A' for Active; 'I' for Inactive)
REMARK    1  A    between atoms: O_2  and  C_3 
REMARK    2  A    between atoms: C_6  and  C_7 
REMARK    3  A    between atoms: C_7  and  C_8 
REMARK       I    between atoms: C_8  and  N_9 
REMARK    4  A    between atoms: N_9  and  C_10 
REMARK    5  A    between atoms: C_10  and  C_11 
REMARK       I    between atoms: C_11  and  N_12 
REMARK    6  A    between atoms: N_12  and  N_13 
ROOT
HETATM    1  C   UNL     1      40.364 -12.680   5.432  1.00  0.00     0.255 C 
HETATM    2  N   UNL     1      41.301 -11.674   5.288  1.00  0.00    -0.245 N 
HETATM    3  O   UNL     1      39.716 -12.896   6.458  1.00  0.00    -0.270 OA
HETATM    4  H   UNL     1      41.866 -11.640   4.438  1.00  0.00     0.192 HD
ENDROOT
BRANCH   1   5
HETATM    5  C   UNL     1      40.216 -13.594   4.209  1.00  0.00     0.227 C 
BRANCH   5   6
HETATM    6  N   UNL     1      41.401 -14.318   3.759  1.00  0.00    -0.352 N 
HETATM    7  C   UNL     1      41.316 -15.231   2.729  1.00  0.00     0.222 C 
HETATM    8  O   UNL     1      40.239 -15.647   2.312  1.00  0.00    -0.273 OA
HETATM    9  H   UNL     1      42.297 -13.870   3.909  1.00  0.00     0.162 HD
BRANCH   7  10
HETATM   10  C   UNL     1      42.650 -15.675   2.155  1.00  0.00     0.141 C 
BRANCH  10  11
HETATM   11  C   UNL     1      43.132 -17.009   2.680  1.00  0.00    -0.049 A 
HETATM   12  C   UNL     1      43.017 -18.189   1.932  1.00  0.00     0.010 A 
HETATM   13  C   UNL     1      43.434 -19.419   2.454  1.00  0.00     0.037 A 
HETATM   14  C   UNL     1      43.955 -19.494   3.744  1.00  0.00     0.068 A 
HETATM   15  C   UNL     1      44.046 -18.329   4.506  1.00  0.00     0.037 A 
HETATM   16  C   UNL     1      43.638 -17.098   3.985  1.00  0.00     0.010 A 
BRANCH  14  17
HETATM   17  O   UNL     1      44.389 -20.629   4.372  1.00  0.00    -0.356 OA
HETATM   18  C   UNL     1      43.971 -20.815   5.719  1.00  0.00     0.210 C 
ENDBRANCH  14  17
ENDBRANCH  10  11
ENDBRANCH   7  10
ENDBRANCH   5   6
ENDBRANCH   1   5
BRANCH   2  19
HETATM   19  N   UNL     1      41.614 -10.861   6.337  1.00  0.00    -0.166 NA
HETATM   20  C   UNL     1      42.790 -11.009   6.853  1.00  0.00     0.157 A 
HETATM   21  C   UNL     1      43.921 -11.949   6.417  1.00  0.00     0.277 A 
HETATM   22  C   UNL     1      43.302 -10.274   8.004  1.00  0.00     0.028 A 
HETATM   23  O   UNL     1      43.876 -12.706   5.471  1.00  0.00    -0.266 OA
HETATM   24  N   UNL     1      44.953 -11.717   7.302  1.00  0.00    -0.321 N 
HETATM   25  C   UNL     1      44.598 -10.740   8.230  1.00  0.00     0.048 A 
HETATM   26  H   UNL     1      45.838 -12.201   7.259  1.00  0.00     0.169 HD
HETATM   27  C   UNL     1      45.366 -10.246   9.261  1.00  0.00     0.032 A 
HETATM   28  C   UNL     1      44.791  -9.260  10.074  1.00  0.00     0.021 A 
HETATM   29  C   UNL     1      43.478  -8.799   9.836  1.00  0.00     0.012 A 
HETATM   30 BR   UNL     1      42.747  -7.468  10.965  1.00  0.00    -0.051 Br
HETATM   31  C   UNL     1      42.710  -9.306   8.788  1.00  0.00     0.035 A 
ENDBRANCH   2  19
TORSDOF 6
ENDMDL
MODEL 5
REMARK VINA RESULT:      -8.2      2.032      3.776
REMARK  6 active torsions:
REMARK  status: ('A' for Active; 'I' for Inactive)
REMARK    1  A    between atoms: O_2  and  C_3 
REMARK    2  A    between atoms: C_6  and  C_7 
REMARK    3  A    between atoms: C_7  and  C_8 
REMARK       I    between atoms: C_8  and  N_9 
REMARK    4  A    between atoms: N_9  and  C_10 
REMARK    5  A    between atoms: C_10  and  C_11 
REMARK       I    between atoms: C_11  and  N_12 
REMARK    6  A    between atoms: N_12  and  N_13 
ROOT
HETATM    1  C   UNL     1      44.322 -11.795   7.173  1.00  0.00     0.255 C 
HETATM    2  N   UNL     1      43.299 -12.723   7.134  1.00  0.00    -0.245 N 
HETATM    3  O   UNL     1      45.451 -11.973   6.714  1.00  0.00    -0.270 OA
HETATM    4  H   UNL     1      42.432 -12.528   7.636  1.00  0.00     0.192 HD
ENDROOT
BRANCH   1   5
HETATM    5  C   UNL     1      43.977 -10.495   7.913  1.00  0.00     0.227 C 
BRANCH   5   6
HETATM    6  N   UNL     1      43.508 -10.607   9.291  1.00  0.00    -0.352 N 
HETATM    7  C   UNL     1      44.231 -10.047  10.324  1.00  0.00     0.222 C 
HETATM    8  O   UNL     1      45.383  -9.650  10.175  1.00  0.00    -0.273 OA
HETATM    9  H   UNL     1      42.511 -10.719   9.429  1.00  0.00     0.162 HD
BRANCH   7  10
HETATM   10  C   UNL     1      43.492  -9.959  11.648  1.00  0.00     0.141 C 
BRANCH  10  11
HETATM   11  C   UNL     1      43.104  -8.551  12.044  1.00  0.00    -0.049 A 
HETATM   12  C   UNL     1      43.168  -8.108  13.372  1.00  0.00     0.010 A 
HETATM   13  C   UNL     1      42.766  -6.813  13.722  1.00  0.00     0.037 A 
HETATM   14  C   UNL     1      42.273  -5.945  12.750  1.00  0.00     0.068 A 
HETATM   15  C   UNL     1      42.180  -6.388  11.430  1.00  0.00     0.037 A 
HETATM   16  C   UNL     1      42.587  -7.677  11.077  1.00  0.00     0.010 A 
BRANCH  14  17
HETATM   17  O   UNL     1      41.843  -4.663  12.959  1.00  0.00    -0.356 OA
HETATM   18  C   UNL     1      42.711  -3.619  12.535  1.00  0.00     0.210 C 
ENDBRANCH  14  17
ENDBRANCH  10  11
ENDBRANCH   7  10
ENDBRANCH   5   6
ENDBRANCH   1   5
BRANCH   2  19
HETATM   19  N   UNL     1      43.507 -13.964   6.607  1.00  0.00    -0.166 NA
HETATM   20  C   UNL     1      43.016 -14.181   5.430  1.00  0.00     0.157 A 
HETATM   21  C   UNL     1      42.266 -13.213   4.506  1.00  0.00     0.277 A 
HETATM   22  C   UNL     1      43.087 -15.447   4.710  1.00  0.00     0.028 A 
HETATM   23  O   UNL     1      42.034 -12.049   4.752  1.00  0.00    -0.266 OA
HETATM   24  N   UNL     1      41.959 -13.947   3.379  1.00  0.00    -0.321 N 
HETATM   25  C   UNL     1      42.436 -15.250   3.492  1.00  0.00     0.048 A 
HETATM   26  H   UNL     1      41.458 -13.564   2.590  1.00  0.00     0.169 HD
HETATM   27  C   UNL     1      42.322 -16.268   2.570  1.00  0.00     0.032 A 
HETATM   28  C   UNL     1      42.883 -17.506   2.908  1.00  0.00     0.021 A 
HETATM   29  C   UNL     1      43.536 -17.693   4.145  1.00  0.00     0.012 A 
HETATM   30 BR   UNL     1      44.274 -19.386   4.554  1.00  0.00    -0.051 Br
HETATM   31  C   UNL     1      43.647 -16.655   5.071  1.00  0.00     0.035 A 
ENDBRANCH   2  19
TORSDOF 6
ENDMDL
MODEL 6
REMARK VINA RESULT:      -8.0      2.569      3.938
REMARK  6 active torsions:
REMARK  status: ('A' for Active; 'I' for Inactive)
REMARK    1  A    between atoms: O_2  and  C_3 
REMARK    2  A    between atoms: C_6  and  C_7 
REMARK    3  A    between atoms: C_7  and  C_8 
REMARK       I    between atoms: C_8  and  N_9 
REMARK    4  A    between atoms: N_9  and  C_10 
REMARK    5  A    between atoms: C_10  and  C_11 
REMARK       I    between atoms: C_11  and  N_12 
REMARK    6  A    between atoms: N_12  and  N_13 
ROOT
HETATM    1  C   UNL     1      39.683 -13.503   1.970  1.00  0.00     0.255 C 
HETATM    2  N   UNL     1      39.857 -14.402   3.005  1.00  0.00    -0.245 N 
HETATM    3  O   UNL     1      40.098 -13.664   0.821  1.00  0.00    -0.270 OA
HETATM    4  H   UNL     1      39.573 -14.134   3.948  1.00  0.00     0.192 HD
ENDROOT
BRANCH   1   5
HETATM    5  C   UNL     1      38.968 -12.204   2.366  1.00  0.00     0.227 C 
BRANCH   5   6
HETATM    6  N   UNL     1      39.798 -11.059   2.727  1.00  0.00    -0.352 N 
HETATM    7  C   UNL     1      40.080 -10.787   4.049  1.00  0.00     0.222 C 
HETATM    8  O   UNL     1      39.475 -11.327   4.971  1.00  0.00    -0.273 OA
HETATM    9  H   UNL     1      40.465 -10.739   2.035  1.00  0.00     0.162 HD
BRANCH   7  10
HETATM   10  C   UNL     1      41.191  -9.776   4.272  1.00  0.00     0.141 C 
BRANCH  10  11
HETATM   11  C   UNL     1      42.148 -10.148   5.383  1.00  0.00    -0.049 A 
HETATM   12  C   UNL     1      42.069  -9.569   6.657  1.00  0.00     0.010 A 
HETATM   13  C   UNL     1      42.990  -9.899   7.659  1.00  0.00     0.037 A 
HETATM   14  C   UNL     1      44.021 -10.799   7.396  1.00  0.00     0.068 A 
HETATM   15  C   UNL     1      44.123 -11.358   6.122  1.00  0.00     0.037 A 
HETATM   16  C   UNL     1      43.200 -11.036   5.122  1.00  0.00     0.010 A 
BRANCH  14  17
HETATM   17  O   UNL     1      44.985 -11.199   8.279  1.00  0.00    -0.356 OA
HETATM   18  C   UNL     1      45.368 -10.261   9.279  1.00  0.00     0.210 C 
ENDBRANCH  14  17
ENDBRANCH  10  11
ENDBRANCH   7  10
ENDBRANCH   5   6
ENDBRANCH   1   5
BRANCH   2  19
HETATM   19  N   UNL     1      40.576 -15.546   2.818  1.00  0.00    -0.166 NA
HETATM   20  C   UNL     1      41.547 -15.760   3.645  1.00  0.00     0.157 A 
HETATM   21  C   UNL     1      41.982 -14.925   4.856  1.00  0.00     0.277 A 
HETATM   22  C   UNL     1      42.461 -16.895   3.593  1.00  0.00     0.028 A 
HETATM   23  O   UNL     1      41.440 -13.910   5.238  1.00  0.00    -0.266 OA
HETATM   24  N   UNL     1      43.068 -15.589   5.388  1.00  0.00    -0.321 N 
HETATM   25  C   UNL     1      43.351 -16.740   4.656  1.00  0.00     0.048 A 
HETATM   26  H   UNL     1      43.569 -15.266   6.203  1.00  0.00     0.169 HD
HETATM   27  C   UNL     1      44.357 -17.653   4.886  1.00  0.00     0.032 A 
HETATM   28  C   UNL     1      44.450 -18.740   4.007  1.00  0.00     0.021 A 
HETATM   29  C   UNL     1      43.544 -18.884   2.933  1.00  0.00     0.012 A 
HETATM   30 BR   UNL     1      43.716 -20.369   1.774  1.00  0.00    -0.051 Br
HETATM   31  C   UNL     1      42.530 -17.954   2.711  1.00  0.00     0.035 A 
ENDBRANCH   2  19
TORSDOF 6
ENDMDL
MODEL 7
REMARK VINA RESULT:      -7.9      3.993      9.901
REMARK  6 active torsions:
REMARK  status: ('A' for Active; 'I' for Inactive)
REMARK    1  A    between atoms: O_2  and  C_3 
REMARK    2  A    between atoms: C_6  and  C_7 
REMARK    3  A    between atoms: C_7  and  C_8 
REMARK       I    between atoms: C_8  and  N_9 
REMARK    4  A    between atoms: N_9  and  C_10 
REMARK    5  A    between atoms: C_10  and  C_11 
REMARK       I    between atoms: C_11  and  N_12 
REMARK    6  A    between atoms: N_12  and  N_13 
ROOT
HETATM    1  C   UNL     1      42.519 -10.550   5.676  1.00  0.00     0.255 C 
HETATM    2  N   UNL     1      43.136 -10.405   6.904  1.00  0.00    -0.245 N 
HETATM    3  O   UNL     1      41.481  -9.978   5.338  1.00  0.00    -0.270 OA
HETATM    4  H   UNL     1      43.931 -11.002   7.133  1.00  0.00     0.192 HD
ENDROOT
BRANCH   1   5
HETATM    5  C   UNL     1      43.194 -11.560   4.738  1.00  0.00     0.227 C 
BRANCH   5   6
HETATM    6  N   UNL     1      42.784 -12.957   4.841  1.00  0.00    -0.352 N 
HETATM    7  C   UNL     1      43.247 -13.748   5.871  1.00  0.00     0.222 C 
HETATM    8  O   UNL     1      44.181 -13.405   6.590  1.00  0.00    -0.273 OA
HETATM    9  H   UNL     1      41.893 -13.205   4.429  1.00  0.00     0.162 HD
BRANCH   7  10
HETATM   10  C   UNL     1      42.513 -15.067   6.045  1.00  0.00     0.141 C 
BRANCH  10  11
HETATM   11  C   UNL     1      42.950 -16.146   5.079  1.00  0.00    -0.049 A 
HETATM   12  C   UNL     1      42.322 -16.333   3.840  1.00  0.00     0.010 A 
HETATM   13  C   UNL     1      42.717 -17.363   2.978  1.00  0.00     0.037 A 
HETATM   14  C   UNL     1      43.735 -18.239   3.350  1.00  0.00     0.068 A 
HETATM   15  C   UNL     1      44.346 -18.076   4.594  1.00  0.00     0.037 A 
HETATM   16  C   UNL     1      43.959 -17.044   5.453  1.00  0.00     0.010 A 
BRANCH  14  17
HETATM   17  O   UNL     1      44.208 -19.286   2.608  1.00  0.00    -0.356 OA
HETATM   18  C   UNL     1      43.238 -20.125   1.993  1.00  0.00     0.210 C 
ENDBRANCH  14  17
ENDBRANCH  10  11
ENDBRANCH   7  10
ENDBRANCH   5   6
ENDBRANCH   1   5
BRANCH   2  19
HETATM   19  N   UNL     1      42.577  -9.626   7.874  1.00  0.00    -0.166 NA
HETATM   20  C   UNL     1      43.206  -9.568   9.002  1.00  0.00     0.157 A 
HETATM   21  C   UNL     1      44.538 -10.220   9.396  1.00  0.00     0.277 A 
HETATM   22  C   UNL     1      42.758  -8.832  10.179  1.00  0.00     0.028 A 
HETATM   23  O   UNL     1      45.230 -10.897   8.666  1.00  0.00    -0.266 OA
HETATM   24  N   UNL     1      44.754  -9.848  10.707  1.00  0.00    -0.321 N 
HETATM   25  C   UNL     1      43.720  -9.037  11.168  1.00  0.00     0.048 A 
HETATM   26  H   UNL     1      45.565 -10.135  11.237  1.00  0.00     0.169 HD
HETATM   27  C   UNL     1      43.590  -8.475  12.419  1.00  0.00     0.032 A 
HETATM   28  C   UNL     1      42.452  -7.692  12.656  1.00  0.00     0.021 A 
HETATM   29  C   UNL     1      41.485  -7.494  11.647  1.00  0.00     0.012 A 
HETATM   30 BR   UNL     1      39.966  -6.431  12.019  1.00  0.00    -0.051 Br
HETATM   31  C   UNL     1      41.628  -8.068  10.384  1.00  0.00     0.035 A 
ENDBRANCH   2  19
TORSDOF 6
ENDMDL
MODEL 8
REMARK VINA RESULT:      -7.6      7.332     11.246
REMARK  6 active torsions:
REMARK  status: ('A' for Active; 'I' for Inactive)
REMARK    1  A    between atoms: O_2  and  C_3 
REMARK    2  A    between atoms: C_6  and  C_7 
REMARK    3  A    between atoms: C_7  and  C_8 
REMARK       I    between atoms: C_8  and  N_9 
REMARK    4  A    between atoms: N_9  and  C_10 
REMARK    5  A    between atoms: C_10  and  C_11 
REMARK       I    between atoms: C_11  and  N_12 
REMARK    6  A    between atoms: N_12  and  N_13 
ROOT
HETATM    1  C   UNL     1      39.910 -13.359  -1.268  1.00  0.00     0.255 C 
HETATM    2  N   UNL     1      40.993 -12.555  -1.570  1.00  0.00    -0.245 N 
HETATM    3  O   UNL     1      38.826 -13.328  -1.853  1.00  0.00    -0.270 OA
HETATM    4  H   UNL     1      41.812 -12.576  -0.961  1.00  0.00     0.192 HD
ENDROOT
BRANCH   1   5
HETATM    5  C   UNL     1      40.123 -14.291  -0.067  1.00  0.00     0.227 C 
BRANCH   5   6
HETATM    6  N   UNL     1      41.469 -14.377   0.491  1.00  0.00    -0.352 N 
HETATM    7  C   UNL     1      41.717 -15.152   1.604  1.00  0.00     0.222 C 
HETATM    8  O   UNL     1      40.813 -15.600   2.303  1.00  0.00    -0.273 OA
HETATM    9  H   UNL     1      42.241 -14.217  -0.146  1.00  0.00     0.162 HD
BRANCH   7  10
HETATM   10  C   UNL     1      43.187 -15.405   1.893  1.00  0.00     0.141 C 
BRANCH  10  11
HETATM   11  C   UNL     1      43.437 -16.554   2.844  1.00  0.00    -0.049 A 
HETATM   12  C   UNL     1      43.523 -17.881   2.400  1.00  0.00     0.010 A 
HETATM   13  C   UNL     1      43.716 -18.934   3.302  1.00  0.00     0.037 A 
HETATM   14  C   UNL     1      43.806 -18.679   4.670  1.00  0.00     0.068 A 
HETATM   15  C   UNL     1      43.694 -17.364   5.122  1.00  0.00     0.037 A 
HETATM   16  C   UNL     1      43.509 -16.310   4.222  1.00  0.00     0.010 A 
BRANCH  14  17
HETATM   17  O   UNL     1      43.986 -19.613   5.652  1.00  0.00    -0.356 OA
HETATM   18  C   UNL     1      44.059 -20.972   5.239  1.00  0.00     0.210 C 
ENDBRANCH  14  17
ENDBRANCH  10  11
ENDBRANCH   7  10
ENDBRANCH   5   6
ENDBRANCH   1   5
BRANCH   2  19
HETATM   19  N   UNL     1      40.900 -11.601  -2.541  1.00  0.00    -0.166 NA
HETATM   20  C   UNL     1      41.181 -10.389  -2.189  1.00  0.00     0.157 A 
HETATM   21  C   UNL     1      41.659  -9.868  -0.828  1.00  0.00     0.277 A 
HETATM   22  C   UNL     1      41.101  -9.221  -3.059  1.00  0.00     0.028 A 
HETATM   23  O   UNL     1      41.870 -10.554   0.150  1.00  0.00    -0.266 OA
HETATM   24  N   UNL     1      41.805  -8.505  -0.988  1.00  0.00    -0.321 N 
HETATM   25  C   UNL     1      41.482  -8.123  -2.287  1.00  0.00     0.048 A 
HETATM   26  H   UNL     1      42.111  -7.892  -0.247  1.00  0.00     0.169 HD
HETATM   27  C   UNL     1      41.509  -6.851  -2.818  1.00  0.00     0.032 A 
HETATM   28  C   UNL     1      41.136  -6.708  -4.161  1.00  0.00     0.021 A 
HETATM   29  C   UNL     1      40.750  -7.828  -4.929  1.00  0.00     0.012 A 
HETATM   30 BR   UNL     1      40.252  -7.579  -6.737  1.00  0.00    -0.051 Br
HETATM   31  C   UNL     1      40.727  -9.110  -4.382  1.00  0.00     0.035 A 
ENDBRANCH   2  19
TORSDOF 6
ENDMDL
MODEL 9
REMARK VINA RESULT:      -7.5      6.505      8.383
REMARK  6 active torsions:
REMARK  status: ('A' for Active; 'I' for Inactive)
REMARK    1  A    between atoms: O_2  and  C_3 
REMARK    2  A    between atoms: C_6  and  C_7 
REMARK    3  A    between atoms: C_7  and  C_8 
REMARK       I    between atoms: C_8  and  N_9 
REMARK    4  A    between atoms: N_9  and  C_10 
REMARK    5  A    between atoms: C_10  and  C_11 
REMARK       I    between atoms: C_11  and  N_12 
REMARK    6  A    between atoms: N_12  and  N_13 
ROOT
HETATM    1  C   UNL     1      40.592 -13.492   0.179  1.00  0.00     0.255 C 
HETATM    2  N   UNL     1      41.668 -13.766   1.001  1.00  0.00    -0.245 N 
HETATM    3  O   UNL     1      39.870 -14.344  -0.343  1.00  0.00    -0.270 OA
HETATM    4  H   UNL     1      42.273 -13.000   1.299  1.00  0.00     0.192 HD
ENDROOT
BRANCH   1   5
HETATM    5  C   UNL     1      40.376 -12.001  -0.114  1.00  0.00     0.227 C 
BRANCH   5   6
HETATM    6  N   UNL     1      40.861 -11.486  -1.391  1.00  0.00    -0.352 N 
HETATM    7  C   UNL     1      40.253 -10.401  -1.985  1.00  0.00     0.222 C 
HETATM    8  O   UNL     1      39.164  -9.975  -1.610  1.00  0.00    -0.273 OA
HETATM    9  H   UNL     1      41.836 -11.651  -1.612  1.00  0.00     0.162 HD
BRANCH   7  10
HETATM   10  C   UNL     1      41.032  -9.777  -3.130  1.00  0.00     0.141 C 
BRANCH  10  11
HETATM   11  C   UNL     1      41.824  -8.549  -2.739  1.00  0.00    -0.049 A 
HETATM   12  C   UNL     1      42.385  -8.402  -1.463  1.00  0.00     0.010 A 
HETATM   13  C   UNL     1      43.081  -7.240  -1.110  1.00  0.00     0.037 A 
HETATM   14  C   UNL     1      43.209  -6.193  -2.021  1.00  0.00     0.068 A 
HETATM   15  C   UNL     1      42.628  -6.320  -3.283  1.00  0.00     0.037 A 
HETATM   16  C   UNL     1      41.940  -7.483  -3.642  1.00  0.00     0.010 A 
BRANCH  14  17
HETATM   17  O   UNL     1      43.854  -5.008  -1.800  1.00  0.00    -0.356 OA
HETATM   18  C   UNL     1      44.373  -4.795  -0.493  1.00  0.00     0.210 C 
ENDBRANCH  14  17
ENDBRANCH  10  11
ENDBRANCH   7  10
ENDBRANCH   5   6
ENDBRANCH   1   5
BRANCH   2  19
HETATM   19  N   UNL     1      42.041 -15.054   1.251  1.00  0.00    -0.166 NA
HETATM   20  C   UNL     1      42.526 -15.298   2.424  1.00  0.00     0.157 A 
HETATM   21  C   UNL     1      42.700 -14.342   3.612  1.00  0.00     0.277 A 
HETATM   22  C   UNL     1      43.024 -16.592   2.877  1.00  0.00     0.028 A 
HETATM   23  O   UNL     1      42.373 -13.175   3.625  1.00  0.00    -0.266 OA
HETATM   24  N   UNL     1      43.267 -15.102   4.614  1.00  0.00    -0.321 N 
HETATM   25  C   UNL     1      43.457 -16.415   4.191  1.00  0.00     0.048 A 
HETATM   26  H   UNL     1      43.498 -14.732   5.525  1.00  0.00     0.169 HD
HETATM   27  C   UNL     1      43.994 -17.459   4.913  1.00  0.00     0.032 A 
HETATM   28  C   UNL     1      44.089 -18.701   4.272  1.00  0.00     0.021 A 
HETATM   29  C   UNL     1      43.650 -18.865   2.940  1.00  0.00     0.012 A 
HETATM   30 BR   UNL     1      43.805 -20.563   2.120  1.00  0.00    -0.051 Br
HETATM   31  C   UNL     1      43.108 -17.802   2.219  1.00  0.00     0.035 A 
ENDBRANCH   2  19
TORSDOF 6
ENDMDL
MODEL 10
REMARK VINA RESULT:      -7.4     17.456     19.016
REMARK  6 active torsions:
REMARK  status: ('A' for Active; 'I' for Inactive)
REMARK    1  A    between atoms: O_2  and  C_3 
REMARK    2  A    between atoms: C_6  and  C_7 
REMARK    3  A    between atoms: C_7  and  C_8 
REMARK       I    between atoms: C_8  and  N_9 
REMARK    4  A    between atoms: N_9  and  C_10 
REMARK    5  A    between atoms: C_10  and  C_11 
REMARK       I    between atoms: C_11  and  N_12 
REMARK    6  A    between atoms: N_12  and  N_13 
ROOT
HETATM    1  C   UNL     1      43.751 -31.693   2.110  1.00  0.00     0.255 C 
HETATM    2  N   UNL     1      44.886 -31.563   1.333  1.00  0.00    -0.245 N 
HETATM    3  O   UNL     1      42.599 -31.718   1.673  1.00  0.00    -0.270 OA
HETATM    4  H   UNL     1      45.790 -31.443   1.791  1.00  0.00     0.192 HD
ENDROOT
BRANCH   1   5
HETATM    5  C   UNL     1      44.014 -31.741   3.621  1.00  0.00     0.227 C 
BRANCH   5   6
HETATM    6  N   UNL     1      45.069 -30.882   4.150  1.00  0.00    -0.352 N 
HETATM    7  C   UNL     1      46.262 -31.423   4.582  1.00  0.00     0.222 C 
HETATM    8  O   UNL     1      46.405 -32.628   4.764  1.00  0.00    -0.273 OA
HETATM    9  H   UNL     1      45.084 -29.922   3.828  1.00  0.00     0.162 HD
BRANCH   7  10
HETATM   10  C   UNL     1      47.376 -30.416   4.811  1.00  0.00     0.141 C 
BRANCH  10  11
HETATM   11  C   UNL     1      48.428 -30.405   3.724  1.00  0.00    -0.049 A 
HETATM   12  C   UNL     1      49.740 -29.974   3.964  1.00  0.00     0.010 A 
HETATM   13  C   UNL     1      50.687 -29.935   2.934  1.00  0.00     0.037 A 
HETATM   14  C   UNL     1      50.332 -30.307   1.639  1.00  0.00     0.068 A 
HETATM   15  C   UNL     1      49.021 -30.710   1.386  1.00  0.00     0.037 A 
HETATM   16  C   UNL     1      48.075 -30.758   2.414  1.00  0.00     0.010 A 
BRANCH  14  17
HETATM   17  O   UNL     1      51.156 -30.307   0.547  1.00  0.00    -0.356 OA
HETATM   18  C   UNL     1      50.572 -30.682  -0.695  1.00  0.00     0.210 C 
ENDBRANCH  14  17
ENDBRANCH  10  11
ENDBRANCH   7  10
ENDBRANCH   5   6
ENDBRANCH   1   5
BRANCH   2  19
HETATM   19  N   UNL     1      44.788 -31.395  -0.018  1.00  0.00    -0.166 NA
HETATM   20  C   UNL     1      45.011 -30.204  -0.469  1.00  0.00     0.157 A 
HETATM   21  C   UNL     1      45.425 -28.944   0.301  1.00  0.00     0.277 A 
HETATM   22  C   UNL     1      44.914 -29.804  -1.868  1.00  0.00     0.028 A 
HETATM   23  O   UNL     1      45.630 -28.889   1.495  1.00  0.00    -0.266 OA
HETATM   24  N   UNL     1      45.523 -27.949  -0.649  1.00  0.00    -0.321 N 
HETATM   25  C   UNL     1      45.227 -28.445  -1.917  1.00  0.00     0.048 A 
HETATM   26  H   UNL     1      45.781 -26.998  -0.429  1.00  0.00     0.169 HD
HETATM   27  C   UNL     1      45.222 -27.752  -3.108  1.00  0.00     0.032 A 
HETATM   28  C   UNL     1      44.887 -28.468  -4.265  1.00  0.00     0.021 A 
HETATM   29  C   UNL     1      44.570 -29.842  -4.202  1.00  0.00     0.012 A 
HETATM   30 BR   UNL     1      44.121 -30.760  -5.793  1.00  0.00    -0.051 Br
HETATM   31  C   UNL     1      44.579 -30.533  -2.990  1.00  0.00     0.035 A 
ENDBRANCH   2  19
TORSDOF 6
ENDMDL
