MODEL 1
REMARK VINA RESULT:      -8.1      0.000      0.000
REMARK  8 active torsions:
REMARK  status: ('A' for Active; 'I' for Inactive)
REMARK    1  A    between atoms: C_8  and  C_9 
REMARK       I    between atoms: C_9  and  N_10 
REMARK    2  A    between atoms: N_10  and  N_11 
REMARK    3  A    between atoms: N_11  and  C_12 
REMARK    4  A    between atoms: C_12  and  N_13 
REMARK    5  A    between atoms: N_13  and  C_14 
REMARK    6  A    between atoms: C_15  and  O_16 
REMARK    7  A    between atoms: C_19  and  O_20 
REMARK    8  A    between atoms: C_26  and  C_27 
ROOT
HETATM    1  C   UNL     1      43.696 -11.512   4.544  1.00  0.00     0.275 C 
HETATM    2  N   UNL     1      42.463 -12.098   4.333  1.00  0.00    -0.263 N 
HETATM    3  O   UNL     1      44.471 -11.250   3.626  1.00  0.00    -0.266 OA
HETATM    4  H   UNL     1      42.037 -12.600   5.111  1.00  0.00     0.190 HD
ENDROOT
BRANCH   2   5
HETATM    5  N   UNL     1      42.163 -12.600   3.051  1.00  0.00    -0.273 N 
HETATM    6  H   UNL     1      42.984 -12.804   2.478  1.00  0.00     0.189 HD
BRANCH   5   7
HETATM    7  C   UNL     1      41.011 -13.365   2.859  1.00  0.00     0.191 C 
HETATM    8  S   UNL     1      39.804 -12.911   1.780  1.00  0.00    -0.039 SA
BRANCH   7   9
HETATM    9  N   UNL     1      41.084 -14.534   3.596  1.00  0.00    -0.330 N 
HETATM   10  H   UNL     1      40.678 -14.476   4.526  1.00  0.00     0.168 HD
BRANCH   9  11
HETATM   11  C   UNL     1      41.886 -15.688   3.425  1.00  0.00     0.068 A 
HETATM   12  C   UNL     1      42.958 -15.867   4.326  1.00  0.00     0.097 A 
HETATM   13  C   UNL     1      43.781 -16.996   4.222  1.00  0.00     0.075 A 
HETATM   14  C   UNL     1      43.537 -17.953   3.235  1.00  0.00     0.070 A 
HETATM   15  C   UNL     1      42.452 -17.791   2.374  1.00  0.00     0.039 A 
HETATM   16  C   UNL     1      41.626 -16.669   2.470  1.00  0.00     0.035 A 
BRANCH  12  17
HETATM   17  O   UNL     1      43.105 -14.870   5.265  1.00  0.00    -0.354 OA
HETATM   18  C   UNL     1      43.206 -15.270   6.627  1.00  0.00     0.210 C 
ENDBRANCH  12  17
BRANCH  14  19
HETATM   19  O   UNL     1      44.261 -19.094   3.022  1.00  0.00    -0.356 OA
HETATM   20  C   UNL     1      43.608 -20.155   2.335  1.00  0.00     0.210 C 
ENDBRANCH  14  19
ENDBRANCH   9  11
ENDBRANCH   7   9
ENDBRANCH   5   7
ENDBRANCH   2   5
BRANCH   1  21
HETATM   21  C   UNL     1      44.021 -11.295   5.939  1.00  0.00     0.098 A 
HETATM   22  C   UNL     1      43.354 -10.549   6.894  1.00  0.00     0.138 A 
HETATM   23  N   UNL     1      42.254  -9.757   6.868  1.00  0.00    -0.370 N 
HETATM   24  N   UNL     1      44.069 -10.703   8.061  1.00  0.00    -0.240 N 
HETATM   25  C   UNL     1      41.610  -9.353   8.114  1.00  0.00     0.081 C 
HETATM   26  H   UNL     1      41.796  -9.467   6.004  1.00  0.00     0.161 HD
HETATM   27  C   UNL     1      40.662  -8.190   7.846  1.00  0.00     0.032 C 
HETATM   28  C   UNL     1      42.690  -8.965   9.126  1.00  0.00     0.061 C 
HETATM   29  C   UNL     1      43.683 -10.126   9.338  1.00  0.00     0.221 C 
HETATM   30  N   UNL     1      45.114 -11.536   7.944  1.00  0.00    -0.181 NA
HETATM   31  C   UNL     1      45.113 -11.854   6.646  1.00  0.00     0.160 A 
BRANCH  29  32
HETATM   32  C   UNL     1      44.874  -9.634  10.133  1.00  0.00     0.409 C 
HETATM   33  F   UNL     1      45.741  -8.920   9.380  1.00  0.00    -0.169 F 
HETATM   34  F   UNL     1      44.443  -8.797  11.118  1.00  0.00    -0.169 F 
HETATM   35  F   UNL     1      45.554 -10.618  10.756  1.00  0.00    -0.169 F 
ENDBRANCH  29  32
ENDBRANCH   1  21
TORSDOF 8
ENDMDL
MODEL 2
REMARK VINA RESULT:      -7.8      4.998      8.414
REMARK  8 active torsions:
REMARK  status: ('A' for Active; 'I' for Inactive)
REMARK    1  A    between atoms: C_8  and  C_9 
REMARK       I    between atoms: C_9  and  N_10 
REMARK    2  A    between atoms: N_10  and  N_11 
REMARK    3  A    between atoms: N_11  and  C_12 
REMARK    4  A    between atoms: C_12  and  N_13 
REMARK    5  A    between atoms: N_13  and  C_14 
REMARK    6  A    between atoms: C_15  and  O_16 
REMARK    7  A    between atoms: C_19  and  O_20 
REMARK    8  A    between atoms: C_26  and  C_27 
ROOT
HETATM    1  C   UNL     1      40.315 -15.401   1.312  1.00  0.00     0.275 C 
HETATM    2  N   UNL     1      40.264 -14.146   0.736  1.00  0.00    -0.263 N 
HETATM    3  O   UNL     1      39.659 -16.351   0.888  1.00  0.00    -0.266 OA
HETATM    4  H   UNL     1      40.529 -13.348   1.313  1.00  0.00     0.190 HD
ENDROOT
BRANCH   2   5
HETATM    5  N   UNL     1      39.281 -13.888  -0.240  1.00  0.00    -0.273 N 
HETATM    6  H   UNL     1      38.534 -13.265   0.072  1.00  0.00     0.189 HD
BRANCH   5   7
HETATM    7  C   UNL     1      39.631 -13.883  -1.591  1.00  0.00     0.191 C 
HETATM    8  S   UNL     1      38.699 -14.648  -2.762  1.00  0.00    -0.039 SA
BRANCH   7   9
HETATM    9  N   UNL     1      40.757 -13.102  -1.790  1.00  0.00    -0.330 N 
HETATM   10  H   UNL     1      41.624 -13.514  -1.456  1.00  0.00     0.168 HD
BRANCH   9  11
HETATM   11  C   UNL     1      40.889 -11.723  -2.080  1.00  0.00     0.068 A 
HETATM   12  C   UNL     1      41.188 -10.863  -1.001  1.00  0.00     0.097 A 
HETATM   13  C   UNL     1      41.346  -9.489  -1.222  1.00  0.00     0.075 A 
HETATM   14  C   UNL     1      41.221  -8.967  -2.511  1.00  0.00     0.070 A 
HETATM   15  C   UNL     1      40.967  -9.827  -3.579  1.00  0.00     0.039 A 
HETATM   16  C   UNL     1      40.806 -11.198  -3.369  1.00  0.00     0.035 A 
BRANCH  12  17
HETATM   17  O   UNL     1      41.297 -11.481   0.225  1.00  0.00    -0.354 OA
HETATM   18  C   UNL     1      41.617 -10.657   1.341  1.00  0.00     0.210 C 
ENDBRANCH  12  17
BRANCH  14  19
HETATM   19  O   UNL     1      41.348  -7.651  -2.864  1.00  0.00    -0.356 OA
HETATM   20  C   UNL     1      42.570  -7.263  -3.479  1.00  0.00     0.210 C 
ENDBRANCH  14  19
ENDBRANCH   9  11
ENDBRANCH   7   9
ENDBRANCH   5   7
ENDBRANCH   2   5
BRANCH   1  21
HETATM   21  C   UNL     1      41.151 -15.481   2.492  1.00  0.00     0.098 A 
HETATM   22  C   UNL     1      42.043 -16.467   2.875  1.00  0.00     0.138 A 
HETATM   23  N   UNL     1      42.401 -17.665   2.350  1.00  0.00    -0.370 N 
HETATM   24  N   UNL     1      42.595 -16.038   4.061  1.00  0.00    -0.240 N 
HETATM   25  C   UNL     1      43.606 -18.341   2.819  1.00  0.00     0.081 C 
HETATM   26  H   UNL     1      41.900 -18.109   1.581  1.00  0.00     0.161 HD
HETATM   27  C   UNL     1      43.583 -19.798   2.372  1.00  0.00     0.032 C 
HETATM   28  C   UNL     1      43.675 -18.231   4.344  1.00  0.00     0.061 C 
HETATM   29  C   UNL     1      43.630 -16.755   4.788  1.00  0.00     0.221 C 
HETATM   30  N   UNL     1      42.168 -14.824   4.443  1.00  0.00    -0.181 NA
HETATM   31  C   UNL     1      41.257 -14.512   3.518  1.00  0.00     0.160 A 
BRANCH  29  32
HETATM   32  C   UNL     1      43.436 -16.683   6.287  1.00  0.00     0.409 C 
HETATM   33  F   UNL     1      42.132 -16.693   6.644  1.00  0.00    -0.169 F 
HETATM   34  F   UNL     1      44.000 -17.781   6.867  1.00  0.00    -0.169 F 
HETATM   35  F   UNL     1      44.031 -15.617   6.862  1.00  0.00    -0.169 F 
ENDBRANCH  29  32
ENDBRANCH   1  21
TORSDOF 8
ENDMDL
MODEL 3
REMARK VINA RESULT:      -7.8      5.338      7.949
REMARK  8 active torsions:
REMARK  status: ('A' for Active; 'I' for Inactive)
REMARK    1  A    between atoms: C_8  and  C_9 
REMARK       I    between atoms: C_9  and  N_10 
REMARK    2  A    between atoms: N_10  and  N_11 
REMARK    3  A    between atoms: N_11  and  C_12 
REMARK    4  A    between atoms: C_12  and  N_13 
REMARK    5  A    between atoms: N_13  and  C_14 
REMARK    6  A    between atoms: C_15  and  O_16 
REMARK    7  A    between atoms: C_19  and  O_20 
REMARK    8  A    between atoms: C_26  and  C_27 
ROOT
HETATM    1  C   UNL     1      42.288 -15.693   6.724  1.00  0.00     0.275 C 
HETATM    2  N   UNL     1      41.211 -15.044   6.150  1.00  0.00    -0.263 N 
HETATM    3  O   UNL     1      42.788 -15.331   7.788  1.00  0.00    -0.266 OA
HETATM    4  H   UNL     1      41.074 -15.152   5.146  1.00  0.00     0.190 HD
ENDROOT
BRANCH   2   5
HETATM    5  N   UNL     1      40.799 -13.810   6.690  1.00  0.00    -0.273 N 
HETATM    6  H   UNL     1      41.473 -13.386   7.330  1.00  0.00     0.189 HD
BRANCH   5   7
HETATM    7  C   UNL     1      39.971 -12.970   5.943  1.00  0.00     0.191 C 
HETATM    8  S   UNL     1      39.400 -11.508   6.545  1.00  0.00    -0.039 SA
BRANCH   7   9
HETATM    9  N   UNL     1      39.798 -13.480   4.667  1.00  0.00    -0.330 N 
HETATM   10  H   UNL     1      39.700 -14.490   4.624  1.00  0.00     0.168 HD
BRANCH   9  11
HETATM   11  C   UNL     1      40.043 -12.903   3.398  1.00  0.00     0.068 A 
HETATM   12  C   UNL     1      41.390 -12.672   3.045  1.00  0.00     0.097 A 
HETATM   13  C   UNL     1      41.703 -12.117   1.797  1.00  0.00     0.075 A 
HETATM   14  C   UNL     1      40.685 -11.804   0.894  1.00  0.00     0.070 A 
HETATM   15  C   UNL     1      39.359 -12.073   1.233  1.00  0.00     0.039 A 
HETATM   16  C   UNL     1      39.037 -12.624   2.474  1.00  0.00     0.035 A 
BRANCH  12  17
HETATM   17  O   UNL     1      42.314 -13.025   4.003  1.00  0.00    -0.354 OA
HETATM   18  C   UNL     1      43.458 -12.189   4.141  1.00  0.00     0.210 C 
ENDBRANCH  12  17
BRANCH  14  19
HETATM   19  O   UNL     1      40.850 -11.259  -0.350  1.00  0.00    -0.356 OA
HETATM   20  C   UNL     1      40.821 -12.152  -1.456  1.00  0.00     0.210 C 
ENDBRANCH  14  19
ENDBRANCH   9  11
ENDBRANCH   7   9
ENDBRANCH   5   7
ENDBRANCH   2   5
BRANCH   1  21
HETATM   21  C   UNL     1      42.814 -16.788   5.935  1.00  0.00     0.098 A 
HETATM   22  C   UNL     1      43.006 -16.876   4.568  1.00  0.00     0.138 A 
HETATM   23  N   UNL     1      42.743 -16.049   3.527  1.00  0.00    -0.370 N 
HETATM   24  N   UNL     1      43.559 -18.117   4.343  1.00  0.00    -0.240 N 
HETATM   25  C   UNL     1      43.351 -16.292   2.223  1.00  0.00     0.081 C 
HETATM   26  H   UNL     1      42.177 -15.204   3.615  1.00  0.00     0.161 HD
HETATM   27  C   UNL     1      42.620 -15.482   1.158  1.00  0.00     0.032 C 
HETATM   28  C   UNL     1      43.288 -17.790   1.919  1.00  0.00     0.061 C 
HETATM   29  C   UNL     1      43.972 -18.603   3.037  1.00  0.00     0.221 C 
HETATM   30  N   UNL     1      43.789 -18.813   5.467  1.00  0.00    -0.181 NA
HETATM   31  C   UNL     1      43.292 -18.026   6.425  1.00  0.00     0.160 A 
BRANCH  29  32
HETATM   32  C   UNL     1      43.671 -20.075   2.848  1.00  0.00     0.409 C 
HETATM   33  F   UNL     1      42.401 -20.298   2.441  1.00  0.00    -0.169 F 
HETATM   34  F   UNL     1      44.479 -20.577   1.872  1.00  0.00    -0.169 F 
HETATM   35  F   UNL     1      43.909 -20.823   3.945  1.00  0.00    -0.169 F 
ENDBRANCH  29  32
ENDBRANCH   1  21
TORSDOF 8
ENDMDL
MODEL 4
REMARK VINA RESULT:      -7.6      4.275      7.658
REMARK  8 active torsions:
REMARK  status: ('A' for Active; 'I' for Inactive)
REMARK    1  A    between atoms: C_8  and  C_9 
REMARK       I    between atoms: C_9  and  N_10 
REMARK    2  A    between atoms: N_10  and  N_11 
REMARK    3  A    between atoms: N_11  and  C_12 
REMARK    4  A    between atoms: C_12  and  N_13 
REMARK    5  A    between atoms: N_13  and  C_14 
REMARK    6  A    between atoms: C_15  and  O_16 
REMARK    7  A    between atoms: C_19  and  O_20 
REMARK    8  A    between atoms: C_26  and  C_27 
ROOT
HETATM    1  C   UNL     1      40.949 -15.392   1.402  1.00  0.00     0.275 C 
HETATM    2  N   UNL     1      41.599 -14.545   0.525  1.00  0.00    -0.263 N 
HETATM    3  O   UNL     1      39.809 -15.806   1.200  1.00  0.00    -0.266 OA
HETATM    4  H   UNL     1      42.357 -13.972   0.895  1.00  0.00     0.190 HD
ENDROOT
BRANCH   2   5
HETATM    5  N   UNL     1      40.865 -13.972  -0.532  1.00  0.00    -0.273 N 
HETATM    6  H   UNL     1      40.109 -14.563  -0.885  1.00  0.00     0.189 HD
BRANCH   5   7
HETATM    7  C   UNL     1      40.712 -12.586  -0.598  1.00  0.00     0.191 C 
HETATM    8  S   UNL     1      39.888 -11.834  -1.854  1.00  0.00    -0.039 SA
BRANCH   7   9
HETATM    9  N   UNL     1      41.243 -11.992   0.535  1.00  0.00    -0.330 N 
HETATM   10  H   UNL     1      42.254 -12.061   0.615  1.00  0.00     0.168 HD
BRANCH   9  11
HETATM   11  C   UNL     1      40.629 -11.589   1.744  1.00  0.00     0.068 A 
HETATM   12  C   UNL     1      41.480 -11.189   2.797  1.00  0.00     0.097 A 
HETATM   13  C   UNL     1      40.936 -10.764   4.016  1.00  0.00     0.075 A 
HETATM   14  C   UNL     1      39.551 -10.722   4.190  1.00  0.00     0.070 A 
HETATM   15  C   UNL     1      38.715 -11.079   3.132  1.00  0.00     0.039 A 
HETATM   16  C   UNL     1      39.248 -11.505   1.913  1.00  0.00     0.035 A 
BRANCH  12  17
HETATM   17  O   UNL     1      42.827 -11.260   2.519  1.00  0.00    -0.354 OA
HETATM   18  C   UNL     1      43.693 -11.623   3.588  1.00  0.00     0.210 C 
ENDBRANCH  12  17
BRANCH  14  19
HETATM   19  O   UNL     1      38.891 -10.331   5.323  1.00  0.00    -0.356 OA
HETATM   20  C   UNL     1      39.236 -10.996   6.532  1.00  0.00     0.210 C 
ENDBRANCH  14  19
ENDBRANCH   9  11
ENDBRANCH   7   9
ENDBRANCH   5   7
ENDBRANCH   2   5
BRANCH   1  21
HETATM   21  C   UNL     1      41.698 -15.694   2.605  1.00  0.00     0.098 A 
HETATM   22  C   UNL     1      42.445 -16.815   2.920  1.00  0.00     0.138 A 
HETATM   23  N   UNL     1      42.694 -17.987   2.285  1.00  0.00    -0.370 N 
HETATM   24  N   UNL     1      42.972 -16.580   4.170  1.00  0.00    -0.240 N 
HETATM   25  C   UNL     1      43.783 -18.850   2.734  1.00  0.00     0.081 C 
HETATM   26  H   UNL     1      42.192 -18.286   1.449  1.00  0.00     0.161 HD
HETATM   27  C   UNL     1      43.618 -20.240   2.130  1.00  0.00     0.032 C 
HETATM   28  C   UNL     1      43.772 -18.906   4.263  1.00  0.00     0.061 C 
HETATM   29  C   UNL     1      43.872 -17.488   4.862  1.00  0.00     0.221 C 
HETATM   30  N   UNL     1      42.666 -15.369   4.661  1.00  0.00    -0.181 NA
HETATM   31  C   UNL     1      41.854 -14.855   3.734  1.00  0.00     0.160 A 
BRANCH  29  32
HETATM   32  C   UNL     1      43.599 -17.548   6.350  1.00  0.00     0.409 C 
HETATM   33  F   UNL     1      44.428 -16.753   7.063  1.00  0.00    -0.169 F 
HETATM   34  F   UNL     1      42.335 -17.099   6.594  1.00  0.00    -0.169 F 
HETATM   35  F   UNL     1      43.652 -18.794   6.863  1.00  0.00    -0.169 F 
ENDBRANCH  29  32
ENDBRANCH   1  21
TORSDOF 8
ENDMDL
MODEL 5
REMARK VINA RESULT:      -7.4      4.112      6.328
REMARK  8 active torsions:
REMARK  status: ('A' for Active; 'I' for Inactive)
REMARK    1  A    between atoms: C_8  and  C_9 
REMARK       I    between atoms: C_9  and  N_10 
REMARK    2  A    between atoms: N_10  and  N_11 
REMARK    3  A    between atoms: N_11  and  C_12 
REMARK    4  A    between atoms: C_12  and  N_13 
REMARK    5  A    between atoms: N_13  and  C_14 
REMARK    6  A    between atoms: C_15  and  O_16 
REMARK    7  A    between atoms: C_19  and  O_20 
REMARK    8  A    between atoms: C_26  and  C_27 
ROOT
HETATM    1  C   UNL     1      42.426 -11.696   3.620  1.00  0.00     0.275 C 
HETATM    2  N   UNL     1      41.145 -11.186   3.711  1.00  0.00    -0.263 N 
HETATM    3  O   UNL     1      43.226 -11.326   2.763  1.00  0.00    -0.266 OA
HETATM    4  H   UNL     1      40.441 -11.755   4.180  1.00  0.00     0.190 HD
ENDROOT
BRANCH   2   5
HETATM    5  N   UNL     1      40.668 -10.366   2.670  1.00  0.00    -0.273 N 
HETATM    6  H   UNL     1      41.389 -10.057   2.016  1.00  0.00     0.189 HD
BRANCH   5   7
HETATM    7  C   UNL     1      39.367 -10.538   2.194  1.00  0.00     0.191 C 
HETATM    8  S   UNL     1      38.307  -9.249   1.995  1.00  0.00    -0.039 SA
BRANCH   7   9
HETATM    9  N   UNL     1      39.156 -11.862   1.847  1.00  0.00    -0.330 N 
HETATM   10  H   UNL     1      39.175 -12.513   2.627  1.00  0.00     0.168 HD
BRANCH   9  11
HETATM   11  C   UNL     1      39.231 -12.515   0.594  1.00  0.00     0.068 A 
HETATM   12  C   UNL     1      39.849 -13.783   0.564  1.00  0.00     0.097 A 
HETATM   13  C   UNL     1      39.944 -14.490  -0.642  1.00  0.00     0.075 A 
HETATM   14  C   UNL     1      39.416 -13.947  -1.816  1.00  0.00     0.070 A 
HETATM   15  C   UNL     1      38.771 -12.712  -1.772  1.00  0.00     0.039 A 
HETATM   16  C   UNL     1      38.672 -12.000  -0.575  1.00  0.00     0.035 A 
BRANCH  12  17
HETATM   17  O   UNL     1      40.328 -14.229   1.776  1.00  0.00    -0.354 OA
HETATM   18  C   UNL     1      39.735 -15.405   2.316  1.00  0.00     0.210 C 
ENDBRANCH  12  17
BRANCH  14  19
HETATM   19  O   UNL     1      39.442 -14.527  -3.055  1.00  0.00    -0.356 OA
HETATM   20  C   UNL     1      38.194 -14.701  -3.713  1.00  0.00     0.210 C 
ENDBRANCH  14  19
ENDBRANCH   9  11
ENDBRANCH   7   9
ENDBRANCH   5   7
ENDBRANCH   2   5
BRANCH   1  21
HETATM   21  C   UNL     1      42.719 -12.746   4.574  1.00  0.00     0.098 A 
HETATM   22  C   UNL     1      42.941 -14.095   4.360  1.00  0.00     0.138 A 
HETATM   23  N   UNL     1      42.918 -14.887   3.260  1.00  0.00    -0.370 N 
HETATM   24  N   UNL     1      43.203 -14.636   5.598  1.00  0.00    -0.240 N 
HETATM   25  C   UNL     1      43.507 -16.222   3.304  1.00  0.00     0.081 C 
HETATM   26  H   UNL     1      42.558 -14.578   2.357  1.00  0.00     0.161 HD
HETATM   27  C   UNL     1      43.027 -17.034   2.106  1.00  0.00     0.032 C 
HETATM   28  C   UNL     1      43.115 -16.893   4.621  1.00  0.00     0.061 C 
HETATM   29  C   UNL     1      43.547 -16.030   5.824  1.00  0.00     0.221 C 
HETATM   30  N   UNL     1      43.221 -13.729   6.587  1.00  0.00    -0.181 NA
HETATM   31  C   UNL     1      42.879 -12.594   5.972  1.00  0.00     0.160 A 
BRANCH  29  32
HETATM   32  C   UNL     1      42.925 -16.580   7.090  1.00  0.00     0.409 C 
HETATM   33  F   UNL     1      41.629 -16.220   7.231  1.00  0.00    -0.169 F 
HETATM   34  F   UNL     1      42.942 -17.942   7.046  1.00  0.00    -0.169 F 
HETATM   35  F   UNL     1      43.589 -16.239   8.214  1.00  0.00    -0.169 F 
ENDBRANCH  29  32
ENDBRANCH   1  21
TORSDOF 8
ENDMDL
MODEL 6
REMARK VINA RESULT:      -7.4      4.599      7.532
REMARK  8 active torsions:
REMARK  status: ('A' for Active; 'I' for Inactive)
REMARK    1  A    between atoms: C_8  and  C_9 
REMARK       I    between atoms: C_9  and  N_10 
REMARK    2  A    between atoms: N_10  and  N_11 
REMARK    3  A    between atoms: N_11  and  C_12 
REMARK    4  A    between atoms: C_12  and  N_13 
REMARK    5  A    between atoms: N_13  and  C_14 
REMARK    6  A    between atoms: C_15  and  O_16 
REMARK    7  A    between atoms: C_19  and  O_20 
REMARK    8  A    between atoms: C_26  and  C_27 
ROOT
HETATM    1  C   UNL     1      39.723 -12.991   3.581  1.00  0.00     0.275 C 
HETATM    2  N   UNL     1      39.522 -12.182   2.479  1.00  0.00    -0.263 N 
HETATM    3  O   UNL     1      39.443 -12.634   4.724  1.00  0.00    -0.266 OA
HETATM    4  H   UNL     1      40.077 -12.371   1.645  1.00  0.00     0.190 HD
ENDROOT
BRANCH   2   5
HETATM    5  N   UNL     1      39.176 -10.832   2.684  1.00  0.00    -0.273 N 
HETATM    6  H   UNL     1      38.389 -10.694   3.321  1.00  0.00     0.189 HD
BRANCH   5   7
HETATM    7  C   UNL     1      40.163  -9.847   2.622  1.00  0.00     0.191 C 
HETATM    8  S   UNL     1      40.514  -9.020   1.202  1.00  0.00    -0.039 SA
BRANCH   7   9
HETATM    9  N   UNL     1      40.695  -9.623   3.880  1.00  0.00    -0.330 N 
HETATM   10  H   UNL     1      40.366  -8.777   4.335  1.00  0.00     0.168 HD
BRANCH   9  11
HETATM   11  C   UNL     1      41.833 -10.174   4.516  1.00  0.00     0.068 A 
HETATM   12  C   UNL     1      41.957  -9.968   5.907  1.00  0.00     0.097 A 
HETATM   13  C   UNL     1      43.052 -10.498   6.601  1.00  0.00     0.075 A 
HETATM   14  C   UNL     1      44.018 -11.244   5.922  1.00  0.00     0.070 A 
HETATM   15  C   UNL     1      43.869 -11.479   4.555  1.00  0.00     0.039 A 
HETATM   16  C   UNL     1      42.781 -10.953   3.855  1.00  0.00     0.035 A 
BRANCH  12  17
HETATM   17  O   UNL     1      40.947  -9.227   6.480  1.00  0.00    -0.354 OA
HETATM   18  C   UNL     1      40.122  -9.883   7.435  1.00  0.00     0.210 C 
ENDBRANCH  12  17
BRANCH  14  19
HETATM   19  O   UNL     1      45.132 -11.815   6.474  1.00  0.00    -0.356 OA
HETATM   20  C   UNL     1      45.987 -10.964   7.228  1.00  0.00     0.210 C 
ENDBRANCH  14  19
ENDBRANCH   9  11
ENDBRANCH   7   9
ENDBRANCH   5   7
ENDBRANCH   2   5
BRANCH   1  21
HETATM   21  C   UNL     1      40.352 -14.262   3.282  1.00  0.00     0.098 A 
HETATM   22  C   UNL     1      41.356 -14.930   3.959  1.00  0.00     0.138 A 
HETATM   23  N   UNL     1      42.109 -14.639   5.048  1.00  0.00    -0.370 N 
HETATM   24  N   UNL     1      41.560 -16.104   3.270  1.00  0.00    -0.240 N 
HETATM   25  C   UNL     1      42.876 -15.688   5.712  1.00  0.00     0.081 C 
HETATM   26  H   UNL     1      42.126 -13.717   5.485  1.00  0.00     0.161 HD
HETATM   27  C   UNL     1      43.908 -15.058   6.641  1.00  0.00     0.032 C 
HETATM   28  C   UNL     1      43.547 -16.560   4.649  1.00  0.00     0.061 C 
HETATM   29  C   UNL     1      42.500 -17.137   3.675  1.00  0.00     0.221 C 
HETATM   30  N   UNL     1      40.724 -16.270   2.233  1.00  0.00    -0.181 NA
HETATM   31  C   UNL     1      40.028 -15.130   2.212  1.00  0.00     0.160 A 
BRANCH  29  32
HETATM   32  C   UNL     1      43.203 -17.772   2.494  1.00  0.00     0.409 C 
HETATM   33  F   UNL     1      44.386 -18.331   2.833  1.00  0.00    -0.169 F 
HETATM   34  F   UNL     1      42.430 -18.781   2.001  1.00  0.00    -0.169 F 
HETATM   35  F   UNL     1      43.407 -16.926   1.464  1.00  0.00    -0.169 F 
ENDBRANCH  29  32
ENDBRANCH   1  21
TORSDOF 8
ENDMDL
MODEL 7
REMARK VINA RESULT:      -7.4      4.866      9.329
REMARK  8 active torsions:
REMARK  status: ('A' for Active; 'I' for Inactive)
REMARK    1  A    between atoms: C_8  and  C_9 
REMARK       I    between atoms: C_9  and  N_10 
REMARK    2  A    between atoms: N_10  and  N_11 
REMARK    3  A    between atoms: N_11  and  C_12 
REMARK    4  A    between atoms: C_12  and  N_13 
REMARK    5  A    between atoms: N_13  and  C_14 
REMARK    6  A    between atoms: C_15  and  O_16 
REMARK    7  A    between atoms: C_19  and  O_20 
REMARK    8  A    between atoms: C_26  and  C_27 
ROOT
HETATM    1  C   UNL     1      42.917 -13.512   6.394  1.00  0.00     0.275 C 
HETATM    2  N   UNL     1      43.805 -12.824   7.200  1.00  0.00    -0.263 N 
HETATM    3  O   UNL     1      41.795 -13.084   6.130  1.00  0.00    -0.266 OA
HETATM    4  H   UNL     1      44.540 -13.360   7.659  1.00  0.00     0.190 HD
ENDROOT
BRANCH   2   5
HETATM    5  N   UNL     1      43.342 -11.698   7.908  1.00  0.00    -0.273 N 
HETATM    6  H   UNL     1      42.586 -11.898   8.565  1.00  0.00     0.189 HD
BRANCH   5   7
HETATM    7  C   UNL     1      44.223 -10.656   8.204  1.00  0.00     0.191 C 
HETATM    8  S   UNL     1      45.823 -10.662   7.690  1.00  0.00    -0.039 SA
BRANCH   7   9
HETATM    9  N   UNL     1      43.557  -9.641   8.869  1.00  0.00    -0.330 N 
HETATM   10  H   UNL     1      43.768  -8.705   8.535  1.00  0.00     0.168 HD
BRANCH   9  11
HETATM   11  C   UNL     1      42.887  -9.634  10.116  1.00  0.00     0.068 A 
HETATM   12  C   UNL     1      41.509  -9.325  10.105  1.00  0.00     0.097 A 
HETATM   13  C   UNL     1      40.782  -9.315  11.303  1.00  0.00     0.075 A 
HETATM   14  C   UNL     1      41.415  -9.623  12.509  1.00  0.00     0.070 A 
HETATM   15  C   UNL     1      42.766  -9.967  12.508  1.00  0.00     0.039 A 
HETATM   16  C   UNL     1      43.499  -9.979  11.319  1.00  0.00     0.035 A 
BRANCH  12  17
HETATM   17  O   UNL     1      40.983  -9.046   8.863  1.00  0.00    -0.354 OA
HETATM   18  C   UNL     1      40.418  -7.754   8.673  1.00  0.00     0.210 C 
ENDBRANCH  12  17
BRANCH  14  19
HETATM   19  O   UNL     1      40.827  -9.647  13.744  1.00  0.00    -0.356 OA
HETATM   20  C   UNL     1      41.244  -8.659  14.678  1.00  0.00     0.210 C 
ENDBRANCH  14  19
ENDBRANCH   9  11
ENDBRANCH   7   9
ENDBRANCH   5   7
ENDBRANCH   2   5
BRANCH   1  21
HETATM   21  C   UNL     1      43.397 -14.803   5.945  1.00  0.00     0.098 A 
HETATM   22  C   UNL     1      43.103 -15.498   4.785  1.00  0.00     0.138 A 
HETATM   23  N   UNL     1      42.276 -15.268   3.736  1.00  0.00    -0.370 N 
HETATM   24  N   UNL     1      43.848 -16.654   4.839  1.00  0.00    -0.240 N 
HETATM   25  C   UNL     1      42.419 -16.038   2.505  1.00  0.00     0.081 C 
HETATM   26  H   UNL     1      41.576 -14.525   3.730  1.00  0.00     0.161 HD
HETATM   27  C   UNL     1      41.169 -15.871   1.648  1.00  0.00     0.032 C 
HETATM   28  C   UNL     1      42.653 -17.506   2.863  1.00  0.00     0.061 C 
HETATM   29  C   UNL     1      43.880 -17.655   3.785  1.00  0.00     0.221 C 
HETATM   30  N   UNL     1      44.641 -16.732   5.919  1.00  0.00    -0.181 NA
HETATM   31  C   UNL     1      44.329 -15.633   6.611  1.00  0.00     0.160 A 
BRANCH  29  32
HETATM   32  C   UNL     1      43.935 -19.066   4.331  1.00  0.00     0.409 C 
HETATM   33  F   UNL     1      43.218 -19.211   5.468  1.00  0.00    -0.169 F 
HETATM   34  F   UNL     1      43.388 -19.922   3.422  1.00  0.00    -0.169 F 
HETATM   35  F   UNL     1      45.187 -19.515   4.553  1.00  0.00    -0.169 F 
ENDBRANCH  29  32
ENDBRANCH   1  21
TORSDOF 8
ENDMDL
MODEL 8
REMARK VINA RESULT:      -7.4      5.516      8.927
REMARK  8 active torsions:
REMARK  status: ('A' for Active; 'I' for Inactive)
REMARK    1  A    between atoms: C_8  and  C_9 
REMARK       I    between atoms: C_9  and  N_10 
REMARK    2  A    between atoms: N_10  and  N_11 
REMARK    3  A    between atoms: N_11  and  C_12 
REMARK    4  A    between atoms: C_12  and  N_13 
REMARK    5  A    between atoms: N_13  and  C_14 
REMARK    6  A    between atoms: C_15  and  O_16 
REMARK    7  A    between atoms: C_19  and  O_20 
REMARK    8  A    between atoms: C_26  and  C_27 
ROOT
HETATM    1  C   UNL     1      41.153 -15.270   1.499  1.00  0.00     0.275 C 
HETATM    2  N   UNL     1      41.817 -14.334   0.729  1.00  0.00    -0.263 N 
HETATM    3  O   UNL     1      40.041 -15.702   1.203  1.00  0.00    -0.266 OA
HETATM    4  H   UNL     1      42.533 -13.769   1.184  1.00  0.00     0.190 HD
ENDROOT
BRANCH   2   5
HETATM    5  N   UNL     1      41.118 -13.701  -0.317  1.00  0.00    -0.273 N 
HETATM    6  H   UNL     1      40.441 -14.301  -0.792  1.00  0.00     0.189 HD
BRANCH   5   7
HETATM    7  C   UNL     1      40.860 -12.330  -0.248  1.00  0.00     0.191 C 
HETATM    8  S   UNL     1      41.229 -11.417   1.113  1.00  0.00    -0.039 SA
BRANCH   7   9
HETATM    9  N   UNL     1      40.369 -11.875  -1.460  1.00  0.00    -0.330 N 
HETATM   10  H   UNL     1      41.077 -11.526  -2.100  1.00  0.00     0.168 HD
BRANCH   9  11
HETATM   11  C   UNL     1      39.058 -11.515  -1.852  1.00  0.00     0.068 A 
HETATM   12  C   UNL     1      38.272 -12.513  -2.467  1.00  0.00     0.097 A 
HETATM   13  C   UNL     1      36.960 -12.227  -2.866  1.00  0.00     0.075 A 
HETATM   14  C   UNL     1      36.421 -10.958  -2.646  1.00  0.00     0.070 A 
HETATM   15  C   UNL     1      37.189  -9.988  -2.001  1.00  0.00     0.039 A 
HETATM   16  C   UNL     1      38.498 -10.264  -1.600  1.00  0.00     0.035 A 
BRANCH  12  17
HETATM   17  O   UNL     1      38.896 -13.730  -2.629  1.00  0.00    -0.354 OA
HETATM   18  C   UNL     1      38.242 -14.691  -3.451  1.00  0.00     0.210 C 
ENDBRANCH  12  17
BRANCH  14  19
HETATM   19  O   UNL     1      35.161 -10.546  -2.986  1.00  0.00    -0.356 OA
HETATM   20  C   UNL     1      34.546  -9.583  -2.140  1.00  0.00     0.210 C 
ENDBRANCH  14  19
ENDBRANCH   9  11
ENDBRANCH   7   9
ENDBRANCH   5   7
ENDBRANCH   2   5
BRANCH   1  21
HETATM   21  C   UNL     1      41.849 -15.645   2.713  1.00  0.00     0.098 A 
HETATM   22  C   UNL     1      42.543 -16.805   3.010  1.00  0.00     0.138 A 
HETATM   23  N   UNL     1      42.769 -17.961   2.339  1.00  0.00    -0.370 N 
HETATM   24  N   UNL     1      43.035 -16.636   4.284  1.00  0.00    -0.240 N 
HETATM   25  C   UNL     1      43.808 -18.881   2.790  1.00  0.00     0.081 C 
HETATM   26  H   UNL     1      42.284 -18.210   1.477  1.00  0.00     0.161 HD
HETATM   27  C   UNL     1      43.612 -20.240   2.129  1.00  0.00     0.032 C 
HETATM   28  C   UNL     1      43.744 -18.992   4.315  1.00  0.00     0.061 C 
HETATM   29  C   UNL     1      43.876 -17.603   4.970  1.00  0.00     0.221 C 
HETATM   30  N   UNL     1      42.758 -15.433   4.811  1.00  0.00    -0.181 NA
HETATM   31  C   UNL     1      41.998 -14.854   3.878  1.00  0.00     0.160 A 
BRANCH  29  32
HETATM   32  C   UNL     1      43.551 -17.706   6.445  1.00  0.00     0.409 C 
HETATM   33  F   UNL     1      43.607 -18.978   6.902  1.00  0.00    -0.169 F 
HETATM   34  F   UNL     1      44.473 -17.001   7.160  1.00  0.00    -0.169 F 
HETATM   35  F   UNL     1      42.351 -17.185   6.775  1.00  0.00    -0.169 F 
ENDBRANCH  29  32
ENDBRANCH   1  21
TORSDOF 8
ENDMDL
MODEL 9
REMARK VINA RESULT:      -7.4      5.026      9.506
REMARK  8 active torsions:
REMARK  status: ('A' for Active; 'I' for Inactive)
REMARK    1  A    between atoms: C_8  and  C_9 
REMARK       I    between atoms: C_9  and  N_10 
REMARK    2  A    between atoms: N_10  and  N_11 
REMARK    3  A    between atoms: N_11  and  C_12 
REMARK    4  A    between atoms: C_12  and  N_13 
REMARK    5  A    between atoms: N_13  and  C_14 
REMARK    6  A    between atoms: C_15  and  O_16 
REMARK    7  A    between atoms: C_19  and  O_20 
REMARK    8  A    between atoms: C_26  and  C_27 
ROOT
HETATM    1  C   UNL     1      43.402 -11.802   5.506  1.00  0.00     0.275 C 
HETATM    2  N   UNL     1      42.772 -11.590   6.718  1.00  0.00    -0.263 N 
HETATM    3  O   UNL     1      44.335 -11.104   5.114  1.00  0.00    -0.266 OA
HETATM    4  H   UNL     1      41.822 -11.943   6.826  1.00  0.00     0.190 HD
ENDROOT
BRANCH   2   5
HETATM    5  N   UNL     1      43.069 -10.417   7.438  1.00  0.00    -0.273 N 
HETATM    6  H   UNL     1      42.326  -9.715   7.422  1.00  0.00     0.189 HD
BRANCH   5   7
HETATM    7  C   UNL     1      43.897 -10.484   8.561  1.00  0.00     0.191 C 
HETATM    8  S   UNL     1      45.572 -10.407   8.445  1.00  0.00    -0.039 SA
BRANCH   7   9
HETATM    9  N   UNL     1      43.134 -10.524   9.715  1.00  0.00    -0.330 N 
HETATM   10  H   UNL     1      42.525 -11.334   9.793  1.00  0.00     0.168 HD
BRANCH   9  11
HETATM   11  C   UNL     1      42.810  -9.509  10.647  1.00  0.00     0.068 A 
HETATM   12  C   UNL     1      41.560  -8.872  10.497  1.00  0.00     0.097 A 
HETATM   13  C   UNL     1      41.171  -7.869  11.395  1.00  0.00     0.075 A 
HETATM   14  C   UNL     1      42.013  -7.505  12.448  1.00  0.00     0.070 A 
HETATM   15  C   UNL     1      43.228  -8.168  12.615  1.00  0.00     0.039 A 
HETATM   16  C   UNL     1      43.625  -9.168  11.725  1.00  0.00     0.035 A 
BRANCH  12  17
HETATM   17  O   UNL     1      40.804  -9.311   9.432  1.00  0.00    -0.354 OA
HETATM   18  C   UNL     1      39.432  -9.593   9.682  1.00  0.00     0.210 C 
ENDBRANCH  12  17
BRANCH  14  19
HETATM   19  O   UNL     1      41.758  -6.546  13.390  1.00  0.00    -0.356 OA
HETATM   20  C   UNL     1      40.493  -6.595  14.036  1.00  0.00     0.210 C 
ENDBRANCH  14  19
ENDBRANCH   9  11
ENDBRANCH   7   9
ENDBRANCH   5   7
ENDBRANCH   2   5
BRANCH   1  21
HETATM   21  C   UNL     1      42.825 -12.869   4.713  1.00  0.00     0.098 A 
HETATM   22  C   UNL     1      42.811 -14.232   4.948  1.00  0.00     0.138 A 
HETATM   23  N   UNL     1      43.340 -15.025   5.912  1.00  0.00    -0.370 N 
HETATM   24  N   UNL     1      42.108 -14.788   3.903  1.00  0.00    -0.240 N 
HETATM   25  C   UNL     1      42.885 -16.404   6.060  1.00  0.00     0.081 C 
HETATM   26  H   UNL     1      44.012 -14.691   6.602  1.00  0.00     0.161 HD
HETATM   27  C   UNL     1      43.872 -17.178   6.927  1.00  0.00     0.032 C 
HETATM   28  C   UNL     1      42.755 -17.035   4.672  1.00  0.00     0.061 C 
HETATM   29  C   UNL     1      41.807 -16.206   3.782  1.00  0.00     0.221 C 
HETATM   30  N   UNL     1      41.621 -13.882   3.042  1.00  0.00    -0.181 NA
HETATM   31  C   UNL     1      42.098 -12.725   3.508  1.00  0.00     0.160 A 
BRANCH  29  32
HETATM   32  C   UNL     1      41.898 -16.695   2.352  1.00  0.00     0.409 C 
HETATM   33  F   UNL     1      42.950 -16.165   1.688  1.00  0.00    -0.169 F 
HETATM   34  F   UNL     1      42.085 -18.045   2.350  1.00  0.00    -0.169 F 
HETATM   35  F   UNL     1      40.780 -16.476   1.631  1.00  0.00    -0.169 F 
ENDBRANCH  29  32
ENDBRANCH   1  21
TORSDOF 8
ENDMDL
MODEL 10
REMARK VINA RESULT:      -7.2      4.501      8.909
REMARK  8 active torsions:
REMARK  status: ('A' for Active; 'I' for Inactive)
REMARK    1  A    between atoms: C_8  and  C_9 
REMARK       I    between atoms: C_9  and  N_10 
REMARK    2  A    between atoms: N_10  and  N_11 
REMARK    3  A    between atoms: N_11  and  C_12 
REMARK    4  A    between atoms: C_12  and  N_13 
REMARK    5  A    between atoms: N_13  and  C_14 
REMARK    6  A    between atoms: C_15  and  O_16 
REMARK    7  A    between atoms: C_19  and  O_20 
REMARK    8  A    between atoms: C_26  and  C_27 
ROOT
HETATM    1  C   UNL     1      40.538 -12.776   6.174  1.00  0.00     0.275 C 
HETATM    2  N   UNL     1      41.112 -11.650   6.733  1.00  0.00    -0.263 N 
HETATM    3  O   UNL     1      39.322 -12.906   6.048  1.00  0.00    -0.266 OA
HETATM    4  H   UNL     1      42.048 -11.741   7.127  1.00  0.00     0.190 HD
ENDROOT
BRANCH   2   5
HETATM    5  N   UNL     1      40.277 -10.708   7.366  1.00  0.00    -0.273 N 
HETATM    6  H   UNL     1      39.667 -11.104   8.084  1.00  0.00     0.189 HD
BRANCH   5   7
HETATM    7  C   UNL     1      40.708  -9.388   7.512  1.00  0.00     0.191 C 
HETATM    8  S   UNL     1      39.861  -8.092   6.860  1.00  0.00    -0.039 SA
BRANCH   7   9
HETATM    9  N   UNL     1      41.830  -9.340   8.321  1.00  0.00    -0.330 N 
HETATM   10  H   UNL     1      42.695  -9.613   7.863  1.00  0.00     0.168 HD
BRANCH   9  11
HETATM   11  C   UNL     1      41.956  -9.285   9.730  1.00  0.00     0.068 A 
HETATM   12  C   UNL     1      43.257  -9.134  10.255  1.00  0.00     0.097 A 
HETATM   13  C   UNL     1      43.450  -9.059  11.641  1.00  0.00     0.075 A 
HETATM   14  C   UNL     1      42.356  -9.118  12.506  1.00  0.00     0.070 A 
HETATM   15  C   UNL     1      41.069  -9.225  11.978  1.00  0.00     0.039 A 
HETATM   16  C   UNL     1      40.867  -9.303  10.599  1.00  0.00     0.035 A 
BRANCH  12  17
HETATM   17  O   UNL     1      44.264  -9.078   9.316  1.00  0.00    -0.354 OA
HETATM   18  C   UNL     1      45.247 -10.106   9.355  1.00  0.00     0.210 C 
ENDBRANCH  12  17
BRANCH  14  19
HETATM   19  O   UNL     1      42.403  -9.059  13.872  1.00  0.00    -0.356 OA
HETATM   20  C   UNL     1      41.186  -8.769  14.548  1.00  0.00     0.210 C 
ENDBRANCH  14  19
ENDBRANCH   9  11
ENDBRANCH   7   9
ENDBRANCH   5   7
ENDBRANCH   2   5
BRANCH   1  21
HETATM   21  C   UNL     1      41.486 -13.811   5.813  1.00  0.00     0.098 A 
HETATM   22  C   UNL     1      41.522 -14.621   4.692  1.00  0.00     0.138 A 
HETATM   23  N   UNL     1      40.711 -14.771   3.616  1.00  0.00    -0.370 N 
HETATM   24  N   UNL     1      42.643 -15.407   4.830  1.00  0.00    -0.240 N 
HETATM   25  C   UNL     1      41.183 -15.489   2.435  1.00  0.00     0.081 C 
HETATM   26  H   UNL     1      39.785 -14.349   3.551  1.00  0.00     0.161 HD
HETATM   27  C   UNL     1      39.998 -15.849   1.547  1.00  0.00     0.032 C 
HETATM   28  C   UNL     1      41.937 -16.742   2.887  1.00  0.00     0.061 C 
HETATM   29  C   UNL     1      43.092 -16.372   3.839  1.00  0.00     0.221 C 
HETATM   30  N   UNL     1      43.363 -15.127   5.927  1.00  0.00    -0.181 NA
HETATM   31  C   UNL     1      42.634 -14.195   6.546  1.00  0.00     0.160 A 
BRANCH  29  32
HETATM   32  C   UNL     1      43.650 -17.629   4.470  1.00  0.00     0.409 C 
HETATM   33  F   UNL     1      43.748 -18.652   3.591  1.00  0.00    -0.169 F 
HETATM   34  F   UNL     1      44.915 -17.385   4.916  1.00  0.00    -0.169 F 
HETATM   35  F   UNL     1      42.955 -18.052   5.545  1.00  0.00    -0.169 F 
ENDBRANCH  29  32
ENDBRANCH   1  21
TORSDOF 8
ENDMDL
