MODEL 1
REMARK VINA RESULT:     -10.2      0.000      0.000
REMARK  9 active torsions:
REMARK  status: ('A' for Active; 'I' for Inactive)
REMARK    1  A    between atoms: C_3  and  N_4 
REMARK       I    between atoms: N_4  and  C_5 
REMARK    2  A    between atoms: C_5  and  C_6 
REMARK    3  A    between atoms: C_6  and  S_7 
REMARK    4  A    between atoms: S_7  and  C_8 
REMARK    5  A    between atoms: N_9  and  C_10 
REMARK    6  A    between atoms: C_10  and  C_11 
REMARK       I    between atoms: C_11  and  N_12 
REMARK    7  A    between atoms: N_12  and  C_13 
REMARK    8  A    between atoms: C_15  and  O_16 
REMARK    9  A    between atoms: C_21  and  C_22 
ROOT
HETATM    1  C   UNL     1      40.060 -12.950   5.353  1.00  0.00     0.169 A 
HETATM    2  N   UNL     1      40.865 -13.596   4.447  1.00  0.00    -0.315 N 
HETATM    3  C   UNL     1      41.160 -14.841   4.978  1.00  0.00     0.065 A 
HETATM    4  C   UNL     1      40.459 -14.873   6.171  1.00  0.00     0.150 A 
HETATM    5  N   UNL     1      39.791 -13.702   6.389  1.00  0.00    -0.234 NA
ENDROOT
BRANCH   1   6
HETATM    6  S   UNL     1      39.447 -11.347   5.146  1.00  0.00    -0.083 SA
BRANCH   6   7
HETATM    7  C   UNL     1      40.146 -10.516   6.612  1.00  0.00     0.185 C 
BRANCH   7   8
HETATM    8  C   UNL     1      41.620 -10.153   6.469  1.00  0.00     0.231 C 
HETATM    9  N   UNL     1      42.398 -10.424   7.579  1.00  0.00    -0.326 N 
HETATM   10  H   UNL     1      41.879 -10.518   8.444  1.00  0.00     0.169 HD
HETATM   11  O   UNL     1      42.036  -9.688   5.409  1.00  0.00    -0.272 OA
BRANCH   9  12
HETATM   12  C   UNL     1      43.783 -10.179   7.696  1.00  0.00     0.046 A 
HETATM   13  C   UNL     1      44.188  -8.988   8.342  1.00  0.00    -0.035 A 
HETATM   14  C   UNL     1      43.196  -7.963   8.828  1.00  0.00     0.050 C 
HETATM   15  C   UNL     1      45.557  -8.715   8.498  1.00  0.00     0.009 A 
HETATM   16  C   UNL     1      46.514  -9.607   8.028  1.00  0.00     0.001 A 
HETATM   17  C   UNL     1      46.116 -10.792   7.417  1.00  0.00     0.009 A 
HETATM   18  C   UNL     1      44.753 -11.108   7.266  1.00  0.00    -0.035 A 
HETATM   19  C   UNL     1      44.424 -12.461   6.696  1.00  0.00     0.050 C 
ENDBRANCH   9  12
ENDBRANCH   7   8
ENDBRANCH   6   7
ENDBRANCH   1   6
BRANCH   2  20
HETATM   20  C   UNL     1      41.291 -13.085   3.155  1.00  0.00     0.234 C 
BRANCH  20  21
HETATM   21  C   UNL     1      40.350 -13.361   1.991  1.00  0.00     0.240 C 
HETATM   22  N   UNL     1      40.925 -13.442   0.734  1.00  0.00    -0.326 N 
HETATM   23  H   UNL     1      41.913 -13.242   0.648  1.00  0.00     0.169 HD
HETATM   24  O   UNL     1      39.158 -13.555   2.237  1.00  0.00    -0.271 OA
BRANCH  22  25
HETATM   25  C   UNL     1      40.283 -13.745  -0.488  1.00  0.00     0.037 A 
HETATM   26  C   UNL     1      39.610 -14.943  -0.747  1.00  0.00     0.066 A 
HETATM   27  C   UNL     1      39.017 -15.151  -1.992  1.00  0.00     0.067 A 
HETATM   28  C   UNL     1      39.082 -14.187  -2.989  1.00  0.00     0.036 A 
HETATM   29  C   UNL     1      39.749 -12.991  -2.741  1.00  0.00     0.005 A 
HETATM   30  C   UNL     1      40.346 -12.772  -1.497  1.00  0.00     0.029 A 
BRANCH  27  31
HETATM   31  O   UNL     1      38.353 -16.309  -2.273  1.00  0.00    -0.361 OA
HETATM   32  H   UNL     1      38.987 -17.045  -2.238  1.00  0.00     0.217 HD
ENDBRANCH  27  31
ENDBRANCH  22  25
ENDBRANCH  20  21
ENDBRANCH   2  20
BRANCH   3  33
HETATM   33  C   UNL     1      41.979 -15.882   4.368  1.00  0.00    -0.008 A 
HETATM   34  C   UNL     1      41.627 -16.456   3.139  1.00  0.00     0.017 A 
HETATM   35  C   UNL     1      42.441 -17.433   2.559  1.00  0.00     0.043 A 
HETATM   36  C   UNL     1      43.608 -17.827   3.203  1.00  0.00     0.116 A 
HETATM   37  F   UNL     1      44.390 -18.757   2.643  1.00  0.00    -0.206 F 
HETATM   38  C   UNL     1      43.978 -17.262   4.417  1.00  0.00     0.043 A 
HETATM   39  C   UNL     1      43.164 -16.287   4.998  1.00  0.00     0.017 A 
ENDBRANCH   3  33
TORSDOF 9
ENDMDL
MODEL 2
REMARK VINA RESULT:     -10.1      0.099      1.663
REMARK  9 active torsions:
REMARK  status: ('A' for Active; 'I' for Inactive)
REMARK    1  A    between atoms: C_3  and  N_4 
REMARK       I    between atoms: N_4  and  C_5 
REMARK    2  A    between atoms: C_5  and  C_6 
REMARK    3  A    between atoms: C_6  and  S_7 
REMARK    4  A    between atoms: S_7  and  C_8 
REMARK    5  A    between atoms: N_9  and  C_10 
REMARK    6  A    between atoms: C_10  and  C_11 
REMARK       I    between atoms: C_11  and  N_12 
REMARK    7  A    between atoms: N_12  and  C_13 
REMARK    8  A    between atoms: C_15  and  O_16 
REMARK    9  A    between atoms: C_21  and  C_22 
ROOT
HETATM    1  C   UNL     1      40.073 -12.931   5.355  1.00  0.00     0.169 A 
HETATM    2  N   UNL     1      40.890 -13.564   4.449  1.00  0.00    -0.315 N 
HETATM    3  C   UNL     1      41.211 -14.801   4.985  1.00  0.00     0.065 A 
HETATM    4  C   UNL     1      40.514 -14.842   6.179  1.00  0.00     0.150 A 
HETATM    5  N   UNL     1      39.822 -13.684   6.395  1.00  0.00    -0.234 NA
ENDROOT
BRANCH   1   6
HETATM    6  S   UNL     1      39.427 -11.342   5.143  1.00  0.00    -0.083 SA
BRANCH   6   7
HETATM    7  C   UNL     1      40.068 -10.506   6.632  1.00  0.00     0.185 C 
BRANCH   7   8
HETATM    8  C   UNL     1      41.535 -10.105   6.529  1.00  0.00     0.231 C 
HETATM    9  N   UNL     1      42.305 -10.422   7.633  1.00  0.00    -0.326 N 
HETATM   10  H   UNL     1      41.778 -10.575   8.484  1.00  0.00     0.169 HD
HETATM   11  O   UNL     1      41.955  -9.573   5.502  1.00  0.00    -0.272 OA
BRANCH   9  12
HETATM   12  C   UNL     1      43.683 -10.157   7.781  1.00  0.00     0.046 A 
HETATM   13  C   UNL     1      44.595 -11.121   7.291  1.00  0.00    -0.035 A 
HETATM   14  C   UNL     1      44.137 -12.428   6.698  1.00  0.00     0.050 C 
HETATM   15  C   UNL     1      45.976 -10.887   7.401  1.00  0.00     0.009 A 
HETATM   16  C   UNL     1      46.451  -9.717   7.980  1.00  0.00     0.001 A 
HETATM   17  C   UNL     1      45.555  -8.756   8.437  1.00  0.00     0.009 A 
HETATM   18  C   UNL     1      44.166  -8.947   8.322  1.00  0.00    -0.035 A 
HETATM   19  C   UNL     1      43.281  -7.804   8.741  1.00  0.00     0.050 C 
ENDBRANCH   9  12
ENDBRANCH   7   8
ENDBRANCH   6   7
ENDBRANCH   1   6
BRANCH   2  20
HETATM   20  C   UNL     1      41.301 -13.049   3.154  1.00  0.00     0.234 C 
BRANCH  20  21
HETATM   21  C   UNL     1      40.362 -13.348   1.994  1.00  0.00     0.240 C 
HETATM   22  N   UNL     1      40.927 -13.375   0.730  1.00  0.00    -0.326 N 
HETATM   23  H   UNL     1      41.904 -13.127   0.639  1.00  0.00     0.169 HD
HETATM   24  O   UNL     1      39.184 -13.604   2.247  1.00  0.00    -0.271 OA
BRANCH  22  25
HETATM   25  C   UNL     1      40.288 -13.685  -0.492  1.00  0.00     0.037 A 
HETATM   26  C   UNL     1      39.615 -14.884  -0.745  1.00  0.00     0.066 A 
HETATM   27  C   UNL     1      39.025 -15.098  -1.990  1.00  0.00     0.067 A 
HETATM   28  C   UNL     1      39.091 -14.139  -2.993  1.00  0.00     0.036 A 
HETATM   29  C   UNL     1      39.757 -12.942  -2.750  1.00  0.00     0.005 A 
HETATM   30  C   UNL     1      40.353 -12.717  -1.505  1.00  0.00     0.029 A 
BRANCH  27  31
HETATM   31  O   UNL     1      38.361 -16.258  -2.267  1.00  0.00    -0.361 OA
HETATM   32  H   UNL     1      37.673 -16.388  -1.593  1.00  0.00     0.217 HD
ENDBRANCH  27  31
ENDBRANCH  22  25
ENDBRANCH  20  21
ENDBRANCH   2  20
BRANCH   3  33
HETATM   33  C   UNL     1      42.050 -15.827   4.377  1.00  0.00    -0.008 A 
HETATM   34  C   UNL     1      43.240 -16.248   4.986  1.00  0.00     0.017 A 
HETATM   35  C   UNL     1      44.015 -17.252   4.399  1.00  0.00     0.043 A 
HETATM   36  C   UNL     1      43.595 -17.840   3.213  1.00  0.00     0.116 A 
HETATM   37  F   UNL     1      44.335 -18.807   2.657  1.00  0.00    -0.206 F 
HETATM   38  C   UNL     1      42.413 -17.444   2.600  1.00  0.00     0.043 A 
HETATM   39  C   UNL     1      41.639 -16.439   3.183  1.00  0.00     0.017 A 
ENDBRANCH   3  33
TORSDOF 9
ENDMDL
MODEL 3
REMARK VINA RESULT:      -9.8      1.505      1.918
REMARK  9 active torsions:
REMARK  status: ('A' for Active; 'I' for Inactive)
REMARK    1  A    between atoms: C_3  and  N_4 
REMARK       I    between atoms: N_4  and  C_5 
REMARK    2  A    between atoms: C_5  and  C_6 
REMARK    3  A    between atoms: C_6  and  S_7 
REMARK    4  A    between atoms: S_7  and  C_8 
REMARK    5  A    between atoms: N_9  and  C_10 
REMARK    6  A    between atoms: C_10  and  C_11 
REMARK       I    between atoms: C_11  and  N_12 
REMARK    7  A    between atoms: N_12  and  C_13 
REMARK    8  A    between atoms: C_15  and  O_16 
REMARK    9  A    between atoms: C_21  and  C_22 
ROOT
HETATM    1  C   UNL     1      41.811 -14.135   4.456  1.00  0.00     0.169 A 
HETATM    2  N   UNL     1      41.770 -15.352   3.820  1.00  0.00    -0.315 N 
HETATM    3  C   UNL     1      42.812 -16.112   4.328  1.00  0.00     0.065 A 
HETATM    4  C   UNL     1      43.389 -15.296   5.285  1.00  0.00     0.150 A 
HETATM    5  N   UNL     1      42.765 -14.083   5.349  1.00  0.00    -0.234 NA
ENDROOT
BRANCH   1   6
HETATM    6  S   UNL     1      40.720 -12.832   4.140  1.00  0.00    -0.083 SA
BRANCH   6   7
HETATM    7  C   UNL     1      40.664 -12.023   5.774  1.00  0.00     0.185 C 
BRANCH   7   8
HETATM    8  C   UNL     1      41.796 -11.029   6.007  1.00  0.00     0.231 C 
HETATM    9  N   UNL     1      42.481 -11.194   7.197  1.00  0.00    -0.326 N 
HETATM   10  H   UNL     1      41.975 -11.713   7.905  1.00  0.00     0.169 HD
HETATM   11  O   UNL     1      42.059 -10.187   5.151  1.00  0.00    -0.272 OA
BRANCH   9  12
HETATM   12  C   UNL     1      43.563 -10.406   7.643  1.00  0.00     0.046 A 
HETATM   13  C   UNL     1      43.275  -9.323   8.507  1.00  0.00    -0.035 A 
HETATM   14  C   UNL     1      41.865  -8.956   8.889  1.00  0.00     0.050 C 
HETATM   15  C   UNL     1      44.325  -8.525   8.990  1.00  0.00     0.009 A 
HETATM   16  C   UNL     1      45.641  -8.793   8.632  1.00  0.00     0.001 A 
HETATM   17  C   UNL     1      45.927  -9.875   7.805  1.00  0.00     0.009 A 
HETATM   18  C   UNL     1      44.902 -10.709   7.321  1.00  0.00    -0.035 A 
HETATM   19  C   UNL     1      45.320 -11.918   6.528  1.00  0.00     0.050 C 
ENDBRANCH   9  12
ENDBRANCH   7   8
ENDBRANCH   6   7
ENDBRANCH   1   6
BRANCH   2  20
HETATM   20  C   UNL     1      40.791 -15.777   2.834  1.00  0.00     0.234 C 
BRANCH  20  21
HETATM   21  C   UNL     1      41.004 -15.252   1.421  1.00  0.00     0.240 C 
HETATM   22  N   UNL     1      39.910 -14.668   0.805  1.00  0.00    -0.326 N 
HETATM   23  H   UNL     1      39.023 -14.687   1.291  1.00  0.00     0.169 HD
HETATM   24  O   UNL     1      42.134 -15.321   0.937  1.00  0.00    -0.271 OA
BRANCH  22  25
HETATM   25  C   UNL     1      39.865 -14.057  -0.469  1.00  0.00     0.037 A 
HETATM   26  C   UNL     1      39.194 -14.589  -1.573  1.00  0.00     0.066 A 
HETATM   27  C   UNL     1      39.217 -13.912  -2.792  1.00  0.00     0.067 A 
HETATM   28  C   UNL     1      39.898 -12.711  -2.934  1.00  0.00     0.036 A 
HETATM   29  C   UNL     1      40.569 -12.172  -1.841  1.00  0.00     0.005 A 
HETATM   30  C   UNL     1      40.552 -12.842  -0.614  1.00  0.00     0.029 A 
BRANCH  27  31
HETATM   31  O   UNL     1      38.570 -14.407  -3.887  1.00  0.00    -0.361 OA
HETATM   32  H   UNL     1      38.975 -14.024  -4.684  1.00  0.00     0.217 HD
ENDBRANCH  27  31
ENDBRANCH  22  25
ENDBRANCH  20  21
ENDBRANCH   2  20
BRANCH   3  33
HETATM   33  C   UNL     1      43.159 -17.479   3.958  1.00  0.00    -0.008 A 
HETATM   34  C   UNL     1      43.017 -17.934   2.640  1.00  0.00     0.017 A 
HETATM   35  C   UNL     1      43.382 -19.240   2.303  1.00  0.00     0.043 A 
HETATM   36  C   UNL     1      43.896 -20.085   3.279  1.00  0.00     0.116 A 
HETATM   37  F   UNL     1      44.252 -21.332   2.951  1.00  0.00    -0.206 F 
HETATM   38  C   UNL     1      44.054 -19.648   4.588  1.00  0.00     0.043 A 
HETATM   39  C   UNL     1      43.688 -18.344   4.928  1.00  0.00     0.017 A 
ENDBRANCH   3  33
TORSDOF 9
ENDMDL
MODEL 4
REMARK VINA RESULT:      -9.6      1.513      2.169
REMARK  9 active torsions:
REMARK  status: ('A' for Active; 'I' for Inactive)
REMARK    1  A    between atoms: C_3  and  N_4 
REMARK       I    between atoms: N_4  and  C_5 
REMARK    2  A    between atoms: C_5  and  C_6 
REMARK    3  A    between atoms: C_6  and  S_7 
REMARK    4  A    between atoms: S_7  and  C_8 
REMARK    5  A    between atoms: N_9  and  C_10 
REMARK    6  A    between atoms: C_10  and  C_11 
REMARK       I    between atoms: C_11  and  N_12 
REMARK    7  A    between atoms: N_12  and  C_13 
REMARK    8  A    between atoms: C_15  and  O_16 
REMARK    9  A    between atoms: C_21  and  C_22 
ROOT
HETATM    1  C   UNL     1      42.417 -13.188   4.396  1.00  0.00     0.169 A 
HETATM    2  N   UNL     1      42.657 -14.222   3.524  1.00  0.00    -0.315 N 
HETATM    3  C   UNL     1      42.873 -15.358   4.289  1.00  0.00     0.065 A 
HETATM    4  C   UNL     1      42.700 -14.925   5.592  1.00  0.00     0.150 A 
HETATM    5  N   UNL     1      42.424 -13.588   5.642  1.00  0.00    -0.234 NA
ENDROOT
BRANCH   1   6
HETATM    6  S   UNL     1      42.113 -11.556   3.915  1.00  0.00    -0.083 SA
BRANCH   6   7
HETATM    7  C   UNL     1      41.165 -10.942   5.347  1.00  0.00     0.185 C 
BRANCH   7   8
HETATM    8  C   UNL     1      41.995 -10.127   6.331  1.00  0.00     0.231 C 
HETATM    9  N   UNL     1      42.561 -10.855   7.361  1.00  0.00    -0.326 N 
HETATM   10  H   UNL     1      42.117 -11.748   7.539  1.00  0.00     0.169 HD
HETATM   11  O   UNL     1      42.146  -8.919   6.153  1.00  0.00    -0.272 OA
BRANCH   9  12
HETATM   12  C   UNL     1      43.368 -10.334   8.394  1.00  0.00     0.046 A 
HETATM   13  C   UNL     1      44.767 -10.517   8.292  1.00  0.00    -0.035 A 
HETATM   14  C   UNL     1      45.392 -11.305   7.170  1.00  0.00     0.050 C 
HETATM   15  C   UNL     1      45.609  -9.996   9.289  1.00  0.00     0.009 A 
HETATM   16  C   UNL     1      45.080  -9.299  10.368  1.00  0.00     0.001 A 
HETATM   17  C   UNL     1      43.706  -9.095  10.455  1.00  0.00     0.009 A 
HETATM   18  C   UNL     1      42.836  -9.582   9.463  1.00  0.00    -0.035 A 
HETATM   19  C   UNL     1      41.382  -9.214   9.586  1.00  0.00     0.050 C 
ENDBRANCH   9  12
ENDBRANCH   7   8
ENDBRANCH   6   7
ENDBRANCH   1   6
BRANCH   2  20
HETATM   20  C   UNL     1      42.642 -14.147   2.073  1.00  0.00     0.234 C 
BRANCH  20  21
HETATM   21  C   UNL     1      41.265 -14.133   1.425  1.00  0.00     0.240 C 
HETATM   22  N   UNL     1      41.197 -13.666   0.124  1.00  0.00    -0.326 N 
HETATM   23  H   UNL     1      42.041 -13.294  -0.295  1.00  0.00     0.169 HD
HETATM   24  O   UNL     1      40.315 -14.589   2.062  1.00  0.00    -0.271 OA
BRANCH  22  25
HETATM   25  C   UNL     1      40.059 -13.609  -0.712  1.00  0.00     0.037 A 
HETATM   26  C   UNL     1      39.755 -14.558  -1.692  1.00  0.00     0.066 A 
HETATM   27  C   UNL     1      38.610 -14.406  -2.474  1.00  0.00     0.067 A 
HETATM   28  C   UNL     1      37.759 -13.323  -2.300  1.00  0.00     0.036 A 
HETATM   29  C   UNL     1      38.053 -12.373  -1.326  1.00  0.00     0.005 A 
HETATM   30  C   UNL     1      39.198 -12.516  -0.537  1.00  0.00     0.029 A 
BRANCH  27  31
HETATM   31  O   UNL     1      38.287 -15.317  -3.437  1.00  0.00    -0.361 OA
HETATM   32  H   UNL     1      38.420 -14.906  -4.308  1.00  0.00     0.217 HD
ENDBRANCH  27  31
ENDBRANCH  22  25
ENDBRANCH  20  21
ENDBRANCH   2  20
BRANCH   3  33
HETATM   33  C   UNL     1      43.160 -16.701   3.799  1.00  0.00    -0.008 A 
HETATM   34  C   UNL     1      42.549 -17.198   2.639  1.00  0.00     0.017 A 
HETATM   35  C   UNL     1      42.859 -18.478   2.174  1.00  0.00     0.043 A 
HETATM   36  C   UNL     1      43.784 -19.255   2.860  1.00  0.00     0.116 A 
HETATM   37  F   UNL     1      44.085 -20.478   2.407  1.00  0.00    -0.206 F 
HETATM   38  C   UNL     1      44.408 -18.775   4.005  1.00  0.00     0.043 A 
HETATM   39  C   UNL     1      44.097 -17.497   4.474  1.00  0.00     0.017 A 
ENDBRANCH   3  33
TORSDOF 9
ENDMDL
MODEL 5
REMARK VINA RESULT:      -9.4      1.818      2.619
REMARK  9 active torsions:
REMARK  status: ('A' for Active; 'I' for Inactive)
REMARK    1  A    between atoms: C_3  and  N_4 
REMARK       I    between atoms: N_4  and  C_5 
REMARK    2  A    between atoms: C_5  and  C_6 
REMARK    3  A    between atoms: C_6  and  S_7 
REMARK    4  A    between atoms: S_7  and  C_8 
REMARK    5  A    between atoms: N_9  and  C_10 
REMARK    6  A    between atoms: C_10  and  C_11 
REMARK       I    between atoms: C_11  and  N_12 
REMARK    7  A    between atoms: N_12  and  C_13 
REMARK    8  A    between atoms: C_15  and  O_16 
REMARK    9  A    between atoms: C_21  and  C_22 
ROOT
HETATM    1  C   UNL     1      41.937 -10.990   3.768  1.00  0.00     0.169 A 
HETATM    2  N   UNL     1      41.609 -12.301   3.524  1.00  0.00    -0.315 N 
HETATM    3  C   UNL     1      42.795 -12.984   3.304  1.00  0.00     0.065 A 
HETATM    4  C   UNL     1      43.775 -12.022   3.479  1.00  0.00     0.150 A 
HETATM    5  N   UNL     1      43.231 -10.801   3.760  1.00  0.00    -0.234 NA
ENDROOT
BRANCH   1   6
HETATM    6  S   UNL     1      40.786  -9.737   4.077  1.00  0.00    -0.083 SA
BRANCH   6   7
HETATM    7  C   UNL     1      40.512  -9.952   5.867  1.00  0.00     0.185 C 
BRANCH   7   8
HETATM    8  C   UNL     1      41.656  -9.434   6.731  1.00  0.00     0.231 C 
HETATM    9  N   UNL     1      42.111 -10.321   7.689  1.00  0.00    -0.326 N 
HETATM   10  H   UNL     1      41.455 -11.054   7.930  1.00  0.00     0.169 HD
HETATM   11  O   UNL     1      42.124  -8.316   6.523  1.00  0.00    -0.272 OA
BRANCH   9  12
HETATM   12  C   UNL     1      43.155 -10.080   8.608  1.00  0.00     0.046 A 
HETATM   13  C   UNL     1      44.445 -10.560   8.279  1.00  0.00    -0.035 A 
HETATM   14  C   UNL     1      44.704 -11.371   7.037  1.00  0.00     0.050 C 
HETATM   15  C   UNL     1      45.516 -10.324   9.156  1.00  0.00     0.009 A 
HETATM   16  C   UNL     1      45.321  -9.619  10.338  1.00  0.00     0.001 A 
HETATM   17  C   UNL     1      44.058  -9.123  10.648  1.00  0.00     0.009 A 
HETATM   18  C   UNL     1      42.968  -9.321   9.782  1.00  0.00    -0.035 A 
HETATM   19  C   UNL     1      41.672  -8.650  10.148  1.00  0.00     0.050 C 
ENDBRANCH   9  12
ENDBRANCH   7   8
ENDBRANCH   6   7
ENDBRANCH   1   6
BRANCH   2  20
HETATM   20  C   UNL     1      40.274 -12.873   3.539  1.00  0.00     0.234 C 
BRANCH  20  21
HETATM   21  C   UNL     1      39.792 -13.467   2.223  1.00  0.00     0.240 C 
HETATM   22  N   UNL     1      39.762 -12.615   1.133  1.00  0.00    -0.326 N 
HETATM   23  H   UNL     1      39.988 -11.640   1.282  1.00  0.00     0.169 HD
HETATM   24  O   UNL     1      39.519 -14.668   2.190  1.00  0.00    -0.271 OA
BRANCH  22  25
HETATM   25  C   UNL     1      39.416 -12.934  -0.200  1.00  0.00     0.037 A 
HETATM   26  C   UNL     1      38.386 -12.317  -0.914  1.00  0.00     0.066 A 
HETATM   27  C   UNL     1      38.116 -12.712  -2.225  1.00  0.00     0.067 A 
HETATM   28  C   UNL     1      38.854 -13.714  -2.840  1.00  0.00     0.036 A 
HETATM   29  C   UNL     1      39.883 -14.335  -2.137  1.00  0.00     0.005 A 
HETATM   30  C   UNL     1      40.161 -13.946  -0.824  1.00  0.00     0.029 A 
BRANCH  27  31
HETATM   31  O   UNL     1      37.117 -12.127  -2.947  1.00  0.00    -0.361 OA
HETATM   32  H   UNL     1      37.177 -11.164  -2.834  1.00  0.00     0.217 HD
ENDBRANCH  27  31
ENDBRANCH  22  25
ENDBRANCH  20  21
ENDBRANCH   2  20
BRANCH   3  33
HETATM   33  C   UNL     1      42.947 -14.404   3.013  1.00  0.00    -0.008 A 
HETATM   34  C   UNL     1      43.111 -14.863   1.698  1.00  0.00     0.017 A 
HETATM   35  C   UNL     1      43.282 -16.227   1.445  1.00  0.00     0.043 A 
HETATM   36  C   UNL     1      43.299 -17.126   2.504  1.00  0.00     0.116 A 
HETATM   37  F   UNL     1      43.471 -18.431   2.259  1.00  0.00    -0.206 F 
HETATM   38  C   UNL     1      43.149 -16.689   3.814  1.00  0.00     0.043 A 
HETATM   39  C   UNL     1      42.976 -15.327   4.069  1.00  0.00     0.017 A 
ENDBRANCH   3  33
TORSDOF 9
ENDMDL
MODEL 6
REMARK VINA RESULT:      -9.3      3.550      6.502
REMARK  9 active torsions:
REMARK  status: ('A' for Active; 'I' for Inactive)
REMARK    1  A    between atoms: C_3  and  N_4 
REMARK       I    between atoms: N_4  and  C_5 
REMARK    2  A    between atoms: C_5  and  C_6 
REMARK    3  A    between atoms: C_6  and  S_7 
REMARK    4  A    between atoms: S_7  and  C_8 
REMARK    5  A    between atoms: N_9  and  C_10 
REMARK    6  A    between atoms: C_10  and  C_11 
REMARK       I    between atoms: C_11  and  N_12 
REMARK    7  A    between atoms: N_12  and  C_13 
REMARK    8  A    between atoms: C_15  and  O_16 
REMARK    9  A    between atoms: C_21  and  C_22 
ROOT
HETATM    1  C   UNL     1      42.017 -11.283   4.338  1.00  0.00     0.169 A 
HETATM    2  N   UNL     1      41.747 -11.379   2.995  1.00  0.00    -0.315 N 
HETATM    3  C   UNL     1      41.213 -10.163   2.599  1.00  0.00     0.065 A 
HETATM    4  C   UNL     1      41.242  -9.392   3.748  1.00  0.00     0.150 A 
HETATM    5  N   UNL     1      41.735 -10.096   4.809  1.00  0.00    -0.234 NA
ENDROOT
BRANCH   1   6
HETATM    6  S   UNL     1      42.676 -12.563   5.296  1.00  0.00    -0.083 SA
BRANCH   6   7
HETATM    7  C   UNL     1      41.207 -13.623   5.515  1.00  0.00     0.185 C 
BRANCH   7   8
HETATM    8  C   UNL     1      41.433 -15.076   5.116  1.00  0.00     0.231 C 
HETATM    9  N   UNL     1      42.605 -15.316   4.422  1.00  0.00    -0.326 N 
HETATM   10  H   UNL     1      43.008 -14.497   3.982  1.00  0.00     0.169 HD
HETATM   11  O   UNL     1      40.616 -15.936   5.443  1.00  0.00    -0.272 OA
BRANCH   9  12
HETATM   12  C   UNL     1      43.040 -16.570   3.944  1.00  0.00     0.046 A 
HETATM   13  C   UNL     1      43.965 -17.291   4.735  1.00  0.00    -0.035 A 
HETATM   14  C   UNL     1      44.541 -16.727   6.008  1.00  0.00     0.050 C 
HETATM   15  C   UNL     1      44.409 -18.552   4.306  1.00  0.00     0.009 A 
HETATM   16  C   UNL     1      43.942 -19.099   3.116  1.00  0.00     0.001 A 
HETATM   17  C   UNL     1      43.011 -18.403   2.352  1.00  0.00     0.009 A 
HETATM   18  C   UNL     1      42.528 -17.147   2.763  1.00  0.00    -0.035 A 
HETATM   19  C   UNL     1      41.441 -16.525   1.929  1.00  0.00     0.050 C 
ENDBRANCH   9  12
ENDBRANCH   7   8
ENDBRANCH   6   7
ENDBRANCH   1   6
BRANCH   2  20
HETATM   20  C   UNL     1      42.014 -12.525   2.142  1.00  0.00     0.234 C 
BRANCH  20  21
HETATM   21  C   UNL     1      40.853 -12.989   1.275  1.00  0.00     0.240 C 
HETATM   22  N   UNL     1      41.102 -13.111  -0.082  1.00  0.00    -0.326 N 
HETATM   23  H   UNL     1      42.006 -12.818  -0.429  1.00  0.00     0.169 HD
HETATM   24  O   UNL     1      39.793 -13.285   1.828  1.00  0.00    -0.271 OA
BRANCH  22  25
HETATM   25  C   UNL     1      40.217 -13.576  -1.081  1.00  0.00     0.037 A 
HETATM   26  C   UNL     1      39.702 -14.874  -1.132  1.00  0.00     0.066 A 
HETATM   27  C   UNL     1      38.842 -15.239  -2.168  1.00  0.00     0.067 A 
HETATM   28  C   UNL     1      38.484 -14.334  -3.158  1.00  0.00     0.036 A 
HETATM   29  C   UNL     1      38.992 -13.039  -3.116  1.00  0.00     0.005 A 
HETATM   30  C   UNL     1      39.854 -12.663  -2.082  1.00  0.00     0.029 A 
BRANCH  27  31
HETATM   31  O   UNL     1      38.322 -16.499  -2.244  1.00  0.00    -0.361 OA
HETATM   32  H   UNL     1      37.353 -16.435  -2.218  1.00  0.00     0.217 HD
ENDBRANCH  27  31
ENDBRANCH  22  25
ENDBRANCH  20  21
ENDBRANCH   2  20
BRANCH   3  33
HETATM   33  C   UNL     1      40.781  -9.792   1.256  1.00  0.00    -0.008 A 
HETATM   34  C   UNL     1      41.710  -9.543   0.237  1.00  0.00     0.017 A 
HETATM   35  C   UNL     1      41.273  -9.216  -1.050  1.00  0.00     0.043 A 
HETATM   36  C   UNL     1      39.912  -9.147  -1.317  1.00  0.00     0.116 A 
HETATM   37  F   UNL     1      39.496  -8.841  -2.551  1.00  0.00    -0.206 F 
HETATM   38  C   UNL     1      38.976  -9.401  -0.322  1.00  0.00     0.043 A 
HETATM   39  C   UNL     1      39.411  -9.726   0.965  1.00  0.00     0.017 A 
ENDBRANCH   3  33
TORSDOF 9
ENDMDL
MODEL 7
REMARK VINA RESULT:      -9.3      3.705      6.374
REMARK  9 active torsions:
REMARK  status: ('A' for Active; 'I' for Inactive)
REMARK    1  A    between atoms: C_3  and  N_4 
REMARK       I    between atoms: N_4  and  C_5 
REMARK    2  A    between atoms: C_5  and  C_6 
REMARK    3  A    between atoms: C_6  and  S_7 
REMARK    4  A    between atoms: S_7  and  C_8 
REMARK    5  A    between atoms: N_9  and  C_10 
REMARK    6  A    between atoms: C_10  and  C_11 
REMARK       I    between atoms: C_11  and  N_12 
REMARK    7  A    between atoms: N_12  and  C_13 
REMARK    8  A    between atoms: C_15  and  O_16 
REMARK    9  A    between atoms: C_21  and  C_22 
ROOT
HETATM    1  C   UNL     1      40.408 -12.817   5.784  1.00  0.00     0.169 A 
HETATM    2  N   UNL     1      41.509 -13.433   5.242  1.00  0.00    -0.315 N 
HETATM    3  C   UNL     1      41.447 -14.770   5.604  1.00  0.00     0.065 A 
HETATM    4  C   UNL     1      40.265 -14.872   6.316  1.00  0.00     0.150 A 
HETATM    5  N   UNL     1      39.639 -13.663   6.422  1.00  0.00    -0.234 NA
ENDROOT
BRANCH   1   6
HETATM    6  S   UNL     1      40.055 -11.132   5.626  1.00  0.00    -0.083 SA
BRANCH   6   7
HETATM    7  C   UNL     1      39.014 -10.856   7.099  1.00  0.00     0.185 C 
BRANCH   7   8
HETATM    8  C   UNL     1      39.466  -9.681   7.959  1.00  0.00     0.231 C 
HETATM    9  N   UNL     1      40.700  -9.841   8.562  1.00  0.00    -0.326 N 
HETATM   10  H   UNL     1      41.010 -10.802   8.639  1.00  0.00     0.169 HD
HETATM   11  O   UNL     1      38.760  -8.678   8.047  1.00  0.00    -0.272 OA
BRANCH   9  12
HETATM   12  C   UNL     1      41.334  -8.902   9.403  1.00  0.00     0.046 A 
HETATM   13  C   UNL     1      42.115  -7.893   8.792  1.00  0.00    -0.035 A 
HETATM   14  C   UNL     1      42.340  -7.847   7.303  1.00  0.00     0.050 C 
HETATM   15  C   UNL     1      42.748  -6.927   9.591  1.00  0.00     0.009 A 
HETATM   16  C   UNL     1      42.609  -6.951  10.973  1.00  0.00     0.001 A 
HETATM   17  C   UNL     1      41.818  -7.926  11.574  1.00  0.00     0.009 A 
HETATM   18  C   UNL     1      41.152  -8.895  10.802  1.00  0.00    -0.035 A 
HETATM   19  C   UNL     1      40.232  -9.837  11.531  1.00  0.00     0.050 C 
ENDBRANCH   9  12
ENDBRANCH   7   8
ENDBRANCH   6   7
ENDBRANCH   1   6
BRANCH   2  20
HETATM   20  C   UNL     1      42.522 -12.810   4.408  1.00  0.00     0.234 C 
BRANCH  20  21
HETATM   21  C   UNL     1      43.453 -11.834   5.114  1.00  0.00     0.240 C 
HETATM   22  N   UNL     1      43.479 -11.893   6.497  1.00  0.00    -0.326 N 
HETATM   23  H   UNL     1      42.835 -12.521   6.961  1.00  0.00     0.169 HD
HETATM   24  O   UNL     1      44.163 -11.101   4.425  1.00  0.00    -0.271 OA
BRANCH  22  25
HETATM   25  C   UNL     1      44.295 -11.144   7.375  1.00  0.00     0.037 A 
HETATM   26  C   UNL     1      45.445 -10.453   6.983  1.00  0.00     0.066 A 
HETATM   27  C   UNL     1      46.189  -9.749   7.930  1.00  0.00     0.067 A 
HETATM   28  C   UNL     1      45.810  -9.721   9.266  1.00  0.00     0.036 A 
HETATM   29  C   UNL     1      44.666 -10.406   9.666  1.00  0.00     0.005 A 
HETATM   30  C   UNL     1      43.914 -11.114   8.725  1.00  0.00     0.029 A 
BRANCH  27  31
HETATM   31  O   UNL     1      47.315  -9.064   7.577  1.00  0.00    -0.361 OA
HETATM   32  H   UNL     1      48.087  -9.624   7.762  1.00  0.00     0.217 HD
ENDBRANCH  27  31
ENDBRANCH  22  25
ENDBRANCH  20  21
ENDBRANCH   2  20
BRANCH   3  33
HETATM   33  C   UNL     1      42.399 -15.817   5.251  1.00  0.00    -0.008 A 
HETATM   34  C   UNL     1      42.293 -16.517   4.041  1.00  0.00     0.017 A 
HETATM   35  C   UNL     1      43.232 -17.498   3.711  1.00  0.00     0.043 A 
HETATM   36  C   UNL     1      44.277 -17.771   4.584  1.00  0.00     0.116 A 
HETATM   37  F   UNL     1      45.179 -18.706   4.263  1.00  0.00    -0.206 F 
HETATM   38  C   UNL     1      44.404 -17.081   5.783  1.00  0.00     0.043 A 
HETATM   39  C   UNL     1      43.466 -16.102   6.115  1.00  0.00     0.017 A 
ENDBRANCH   3  33
TORSDOF 9
ENDMDL
MODEL 8
REMARK VINA RESULT:      -9.2      1.845      2.644
REMARK  9 active torsions:
REMARK  status: ('A' for Active; 'I' for Inactive)
REMARK    1  A    between atoms: C_3  and  N_4 
REMARK       I    between atoms: N_4  and  C_5 
REMARK    2  A    between atoms: C_5  and  C_6 
REMARK    3  A    between atoms: C_6  and  S_7 
REMARK    4  A    between atoms: S_7  and  C_8 
REMARK    5  A    between atoms: N_9  and  C_10 
REMARK    6  A    between atoms: C_10  and  C_11 
REMARK       I    between atoms: C_11  and  N_12 
REMARK    7  A    between atoms: N_12  and  C_13 
REMARK    8  A    between atoms: C_15  and  O_16 
REMARK    9  A    between atoms: C_21  and  C_22 
ROOT
HETATM    1  C   UNL     1      41.210 -13.012   5.627  1.00  0.00     0.169 A 
HETATM    2  N   UNL     1      42.010 -13.733   4.774  1.00  0.00    -0.315 N 
HETATM    3  C   UNL     1      41.774 -15.074   5.029  1.00  0.00     0.065 A 
HETATM    4  C   UNL     1      40.796 -15.064   6.008  1.00  0.00     0.150 A 
HETATM    5  N   UNL     1      40.462 -13.789   6.368  1.00  0.00    -0.234 NA
ENDROOT
BRANCH   1   6
HETATM    6  S   UNL     1      41.169 -11.286   5.702  1.00  0.00    -0.083 SA
BRANCH   6   7
HETATM    7  C   UNL     1      42.762 -10.936   6.518  1.00  0.00     0.185 C 
BRANCH   7   8
HETATM    8  C   UNL     1      42.672  -9.885   7.618  1.00  0.00     0.231 C 
HETATM    9  N   UNL     1      42.727 -10.383   8.907  1.00  0.00    -0.326 N 
HETATM   10  H   UNL     1      42.496 -11.366   8.989  1.00  0.00     0.169 HD
HETATM   11  O   UNL     1      42.592  -8.693   7.323  1.00  0.00    -0.272 OA
BRANCH   9  12
HETATM   12  C   UNL     1      42.662  -9.619  10.091  1.00  0.00     0.046 A 
HETATM   13  C   UNL     1      43.882  -9.301  10.735  1.00  0.00    -0.035 A 
HETATM   14  C   UNL     1      45.207  -9.814  10.238  1.00  0.00     0.050 C 
HETATM   15  C   UNL     1      43.864  -8.524  11.906  1.00  0.00     0.009 A 
HETATM   16  C   UNL     1      42.663  -8.062  12.431  1.00  0.00     0.001 A 
HETATM   17  C   UNL     1      41.467  -8.351  11.783  1.00  0.00     0.009 A 
HETATM   18  C   UNL     1      41.449  -9.107  10.596  1.00  0.00    -0.035 A 
HETATM   19  C   UNL     1      40.120  -9.271   9.908  1.00  0.00     0.050 C 
ENDBRANCH   9  12
ENDBRANCH   7   8
ENDBRANCH   6   7
ENDBRANCH   1   6
BRANCH   2  20
HETATM   20  C   UNL     1      42.901 -13.189   3.763  1.00  0.00     0.234 C 
BRANCH  20  21
HETATM   21  C   UNL     1      42.563 -13.543   2.322  1.00  0.00     0.240 C 
HETATM   22  N   UNL     1      41.328 -13.127   1.855  1.00  0.00    -0.326 N 
HETATM   23  H   UNL     1      40.696 -12.681   2.508  1.00  0.00     0.169 HD
HETATM   24  O   UNL     1      43.418 -14.116   1.646  1.00  0.00    -0.271 OA
BRANCH  22  25
HETATM   25  C   UNL     1      40.807 -13.275   0.550  1.00  0.00     0.037 A 
HETATM   26  C   UNL     1      40.061 -14.377   0.122  1.00  0.00     0.066 A 
HETATM   27  C   UNL     1      39.598 -14.434  -1.193  1.00  0.00     0.067 A 
HETATM   28  C   UNL     1      39.867 -13.412  -2.094  1.00  0.00     0.036 A 
HETATM   29  C   UNL     1      40.609 -12.311  -1.678  1.00  0.00     0.005 A 
HETATM   30  C   UNL     1      41.076 -12.244  -0.362  1.00  0.00     0.029 A 
BRANCH  27  31
HETATM   31  O   UNL     1      38.866 -15.496  -1.639  1.00  0.00    -0.361 OA
HETATM   32  H   UNL     1      38.823 -15.455  -2.609  1.00  0.00     0.217 HD
ENDBRANCH  27  31
ENDBRANCH  22  25
ENDBRANCH  20  21
ENDBRANCH   2  20
BRANCH   3  33
HETATM   33  C   UNL     1      42.391 -16.215   4.361  1.00  0.00    -0.008 A 
HETATM   34  C   UNL     1      41.865 -16.730   3.168  1.00  0.00     0.017 A 
HETATM   35  C   UNL     1      42.488 -17.806   2.531  1.00  0.00     0.043 A 
HETATM   36  C   UNL     1      43.639 -18.358   3.081  1.00  0.00     0.116 A 
HETATM   37  F   UNL     1      44.238 -19.384   2.465  1.00  0.00    -0.206 F 
HETATM   38  C   UNL     1      44.180 -17.854   4.257  1.00  0.00     0.043 A 
HETATM   39  C   UNL     1      43.557 -16.780   4.896  1.00  0.00     0.017 A 
ENDBRANCH   3  33
TORSDOF 9
ENDMDL
MODEL 9
REMARK VINA RESULT:      -9.1      2.221      3.182
REMARK  9 active torsions:
REMARK  status: ('A' for Active; 'I' for Inactive)
REMARK    1  A    between atoms: C_3  and  N_4 
REMARK       I    between atoms: N_4  and  C_5 
REMARK    2  A    between atoms: C_5  and  C_6 
REMARK    3  A    between atoms: C_6  and  S_7 
REMARK    4  A    between atoms: S_7  and  C_8 
REMARK    5  A    between atoms: N_9  and  C_10 
REMARK    6  A    between atoms: C_10  and  C_11 
REMARK       I    between atoms: C_11  and  N_12 
REMARK    7  A    between atoms: N_12  and  C_13 
REMARK    8  A    between atoms: C_15  and  O_16 
REMARK    9  A    between atoms: C_21  and  C_22 
ROOT
HETATM    1  C   UNL     1      42.842 -13.904   6.228  1.00  0.00     0.169 A 
HETATM    2  N   UNL     1      43.012 -14.547   5.026  1.00  0.00    -0.315 N 
HETATM    3  C   UNL     1      42.968 -15.908   5.281  1.00  0.00     0.065 A 
HETATM    4  C   UNL     1      42.725 -15.988   6.641  1.00  0.00     0.150 A 
HETATM    5  N   UNL     1      42.654 -14.748   7.210  1.00  0.00    -0.234 NA
ENDROOT
BRANCH   1   6
HETATM    6  S   UNL     1      42.847 -12.187   6.426  1.00  0.00    -0.083 SA
BRANCH   6   7
HETATM    7  C   UNL     1      44.462 -11.936   7.237  1.00  0.00     0.185 C 
BRANCH   7   8
HETATM    8  C   UNL     1      44.513 -10.709   8.139  1.00  0.00     0.231 C 
HETATM    9  N   UNL     1      43.369 -10.485   8.884  1.00  0.00    -0.326 N 
HETATM   10  H   UNL     1      42.537 -10.938   8.525  1.00  0.00     0.169 HD
HETATM   11  O   UNL     1      45.534 -10.025   8.188  1.00  0.00    -0.272 OA
BRANCH   9  12
HETATM   12  C   UNL     1      43.169  -9.420   9.788  1.00  0.00     0.046 A 
HETATM   13  C   UNL     1      43.418  -9.666  11.159  1.00  0.00    -0.035 A 
HETATM   14  C   UNL     1      43.808 -11.028  11.670  1.00  0.00     0.050 C 
HETATM   15  C   UNL     1      43.250  -8.629  12.091  1.00  0.00     0.009 A 
HETATM   16  C   UNL     1      42.848  -7.364  11.677  1.00  0.00     0.001 A 
HETATM   17  C   UNL     1      42.630  -7.114  10.325  1.00  0.00     0.009 A 
HETATM   18  C   UNL     1      42.811  -8.124   9.363  1.00  0.00    -0.035 A 
HETATM   19  C   UNL     1      42.661  -7.728   7.919  1.00  0.00     0.050 C 
ENDBRANCH   9  12
ENDBRANCH   7   8
ENDBRANCH   6   7
ENDBRANCH   1   6
BRANCH   2  20
HETATM   20  C   UNL     1      43.165 -13.916   3.726  1.00  0.00     0.234 C 
BRANCH  20  21
HETATM   21  C   UNL     1      41.883 -13.725   2.928  1.00  0.00     0.240 C 
HETATM   22  N   UNL     1      42.025 -13.519   1.566  1.00  0.00    -0.326 N 
HETATM   23  H   UNL     1      42.961 -13.435   1.191  1.00  0.00     0.169 HD
HETATM   24  O   UNL     1      40.807 -13.824   3.519  1.00  0.00    -0.271 OA
BRANCH  22  25
HETATM   25  C   UNL     1      40.998 -13.377   0.605  1.00  0.00     0.037 A 
HETATM   26  C   UNL     1      40.450 -12.152   0.216  1.00  0.00     0.066 A 
HETATM   27  C   UNL     1      39.430 -12.119  -0.736  1.00  0.00     0.067 A 
HETATM   28  C   UNL     1      38.943 -13.286  -1.308  1.00  0.00     0.036 A 
HETATM   29  C   UNL     1      39.482 -14.511  -0.927  1.00  0.00     0.005 A 
HETATM   30  C   UNL     1      40.505 -14.555   0.025  1.00  0.00     0.029 A 
BRANCH  27  31
HETATM   31  O   UNL     1      38.876 -10.938  -1.137  1.00  0.00    -0.361 OA
HETATM   32  H   UNL     1      39.304 -10.215  -0.648  1.00  0.00     0.217 HD
ENDBRANCH  27  31
ENDBRANCH  22  25
ENDBRANCH  20  21
ENDBRANCH   2  20
BRANCH   3  33
HETATM   33  C   UNL     1      43.095 -16.986   4.308  1.00  0.00    -0.008 A 
HETATM   34  C   UNL     1      42.284 -17.033   3.165  1.00  0.00     0.017 A 
HETATM   35  C   UNL     1      42.442 -18.061   2.232  1.00  0.00     0.043 A 
HETATM   36  C   UNL     1      43.414 -19.033   2.436  1.00  0.00     0.116 A 
HETATM   37  F   UNL     1      43.568 -20.012   1.537  1.00  0.00    -0.206 F 
HETATM   38  C   UNL     1      44.234 -18.997   3.557  1.00  0.00     0.043 A 
HETATM   39  C   UNL     1      44.076 -17.972   4.492  1.00  0.00     0.017 A 
ENDBRANCH   3  33
TORSDOF 9
ENDMDL
MODEL 10
REMARK VINA RESULT:      -9.1      2.669      5.626
REMARK  9 active torsions:
REMARK  status: ('A' for Active; 'I' for Inactive)
REMARK    1  A    between atoms: C_3  and  N_4 
REMARK       I    between atoms: N_4  and  C_5 
REMARK    2  A    between atoms: C_5  and  C_6 
REMARK    3  A    between atoms: C_6  and  S_7 
REMARK    4  A    between atoms: S_7  and  C_8 
REMARK    5  A    between atoms: N_9  and  C_10 
REMARK    6  A    between atoms: C_10  and  C_11 
REMARK       I    between atoms: C_11  and  N_12 
REMARK    7  A    between atoms: N_12  and  C_13 
REMARK    8  A    between atoms: C_15  and  O_16 
REMARK    9  A    between atoms: C_21  and  C_22 
ROOT
HETATM    1  C   UNL     1      40.085 -12.121   2.888  1.00  0.00     0.169 A 
HETATM    2  N   UNL     1      39.802 -13.050   1.916  1.00  0.00    -0.315 N 
HETATM    3  C   UNL     1      39.612 -12.355   0.732  1.00  0.00     0.065 A 
HETATM    4  C   UNL     1      39.843 -11.034   1.076  1.00  0.00     0.150 A 
HETATM    5  N   UNL     1      40.129 -10.907   2.405  1.00  0.00    -0.234 NA
ENDROOT
BRANCH   1   6
HETATM    6  S   UNL     1      40.377 -12.505   4.549  1.00  0.00    -0.083 SA
BRANCH   6   7
HETATM    7  C   UNL     1      42.199 -12.595   4.569  1.00  0.00     0.185 C 
BRANCH   7   8
HETATM    8  C   UNL     1      42.869 -11.360   5.160  1.00  0.00     0.231 C 
HETATM    9  N   UNL     1      43.213 -11.466   6.495  1.00  0.00    -0.326 N 
HETATM   10  H   UNL     1      42.712 -12.184   7.003  1.00  0.00     0.169 HD
HETATM   11  O   UNL     1      43.092 -10.383   4.447  1.00  0.00    -0.272 OA
BRANCH   9  12
HETATM   12  C   UNL     1      43.840 -10.465   7.267  1.00  0.00     0.046 A 
HETATM   13  C   UNL     1      45.254 -10.418   7.260  1.00  0.00    -0.035 A 
HETATM   14  C   UNL     1      46.085 -11.436   6.525  1.00  0.00     0.050 C 
HETATM   15  C   UNL     1      45.918  -9.425   7.999  1.00  0.00     0.009 A 
HETATM   16  C   UNL     1      45.198  -8.488   8.731  1.00  0.00     0.001 A 
HETATM   17  C   UNL     1      43.807  -8.516   8.716  1.00  0.00     0.009 A 
HETATM   18  C   UNL     1      43.110  -9.483   7.968  1.00  0.00    -0.035 A 
HETATM   19  C   UNL     1      41.610  -9.363   7.924  1.00  0.00     0.050 C 
ENDBRANCH   9  12
ENDBRANCH   7   8
ENDBRANCH   6   7
ENDBRANCH   1   6
BRANCH   2  20
HETATM   20  C   UNL     1      39.756 -14.492   2.089  1.00  0.00     0.234 C 
BRANCH  20  21
HETATM   21  C   UNL     1      41.103 -15.187   2.222  1.00  0.00     0.240 C 
HETATM   22  N   UNL     1      41.131 -16.346   2.977  1.00  0.00    -0.326 N 
HETATM   23  H   UNL     1      40.282 -16.626   3.453  1.00  0.00     0.169 HD
HETATM   24  O   UNL     1      42.065 -14.719   1.610  1.00  0.00    -0.271 OA
BRANCH  22  25
HETATM   25  C   UNL     1      42.233 -17.202   3.201  1.00  0.00     0.037 A 
HETATM   26  C   UNL     1      42.557 -18.295   2.394  1.00  0.00     0.066 A 
HETATM   27  C   UNL     1      43.663 -19.086   2.706  1.00  0.00     0.067 A 
HETATM   28  C   UNL     1      44.455 -18.809   3.812  1.00  0.00     0.036 A 
HETATM   29  C   UNL     1      44.142 -17.722   4.623  1.00  0.00     0.005 A 
HETATM   30  C   UNL     1      43.036 -16.923   4.318  1.00  0.00     0.029 A 
BRANCH  27  31
HETATM   31  O   UNL     1      44.004 -20.160   1.936  1.00  0.00    -0.361 OA
HETATM   32  H   UNL     1      44.888 -20.463   2.203  1.00  0.00     0.217 HD
ENDBRANCH  27  31
ENDBRANCH  22  25
ENDBRANCH  20  21
ENDBRANCH   2  20
BRANCH   3  33
HETATM   33  C   UNL     1      39.298 -12.920  -0.575  1.00  0.00    -0.008 A 
HETATM   34  C   UNL     1      40.219 -13.724  -1.260  1.00  0.00     0.017 A 
HETATM   35  C   UNL     1      39.886 -14.278  -2.499  1.00  0.00     0.043 A 
HETATM   36  C   UNL     1      38.632 -14.036  -3.045  1.00  0.00     0.116 A 
HETATM   37  F   UNL     1      38.312 -14.574  -4.228  1.00  0.00    -0.206 F 
HETATM   38  C   UNL     1      37.701 -13.251  -2.376  1.00  0.00     0.043 A 
HETATM   39  C   UNL     1      38.034 -12.695  -1.139  1.00  0.00     0.017 A 
ENDBRANCH   3  33
TORSDOF 9
ENDMDL
