MODEL 1
REMARK VINA RESULT:      -8.1      0.000      0.000
REMARK  6 active torsions:
REMARK  status: ('A' for Active; 'I' for Inactive)
REMARK    1  A    between atoms: C_2  and  C_3 
REMARK    2  A    between atoms: C_3  and  C_4 
REMARK    3  A    between atoms: C_5  and  O_6 
REMARK    4  A    between atoms: C_7  and  C_8 
REMARK    5  A    between atoms: N_9  and  N_10 
REMARK       I    between atoms: N_10  and  C_11 
REMARK    6  A    between atoms: C_11  and  C_12 
ROOT
HETATM    1  N   UNL     1      43.189 -13.593   5.416  1.00  0.00    -0.243 N 
HETATM    2  C   UNL     1      43.203 -14.973   5.553  1.00  0.00     0.274 C 
HETATM    3  O   UNL     1      43.537 -15.560   6.583  1.00  0.00    -0.266 OA
HETATM    4  H   UNL     1      42.913 -13.136   4.559  1.00  0.00     0.192 HD
ENDROOT
BRANCH   1   5
HETATM    5  N   UNL     1      43.584 -12.813   6.465  1.00  0.00    -0.183 NA
HETATM    6  C   UNL     1      44.147 -11.689   6.152  1.00  0.00     0.153 C 
BRANCH   6   7
HETATM    7  C   UNL     1      44.631 -10.752   7.190  1.00  0.00     0.017 A 
HETATM    8  C   UNL     1      43.731 -10.165   8.092  1.00  0.00     0.084 A 
HETATM    9  C   UNL     1      44.192  -9.281   9.084  1.00  0.00    -0.021 A 
HETATM   10  C   UNL     1      45.567  -8.981   9.128  1.00  0.00     0.010 A 
HETATM   11  C   UNL     1      46.459  -9.557   8.224  1.00  0.00     0.002 A 
HETATM   12  C   UNL     1      45.995 -10.445   7.258  1.00  0.00     0.016 A 
BRANCH   8  13
HETATM   13  O   UNL     1      42.402 -10.478   7.980  1.00  0.00    -0.359 OA
HETATM   14  H   UNL     1      42.127 -10.973   8.769  1.00  0.00     0.218 HD
ENDBRANCH   8  13
BRANCH   9  15
HETATM   15  C   UNL     1      43.284  -8.652  10.118  1.00  0.00     0.067 C 
BRANCH  15  16
HETATM   16  C   UNL     1      43.714  -8.948  11.528  1.00  0.00    -0.032 C 
HETATM   17  C   UNL     1      43.360  -8.218  12.595  1.00  0.00     0.007 C 
ENDBRANCH  15  16
ENDBRANCH   9  15
ENDBRANCH   6   7
ENDBRANCH   1   5
BRANCH   2  18
HETATM   18  C   UNL     1      42.788 -15.783   4.363  1.00  0.00     0.061 A 
HETATM   19  C   UNL     1      43.399 -17.036   4.146  1.00  0.00     0.058 A 
HETATM   20  C   UNL     1      43.090 -17.865   3.068  1.00  0.00    -0.007 A 
HETATM   21  N   UNL     1      44.366 -17.689   4.885  1.00  0.00    -0.364 N 
HETATM   22  C   UNL     1      43.901 -19.029   3.182  1.00  0.00     0.030 A 
HETATM   23  C   UNL     1      42.121 -17.438   2.142  1.00  0.00     0.014 A 
HETATM   24  C   UNL     1      44.676 -18.892   4.312  1.00  0.00     0.089 A 
HETATM   25  C   UNL     1      41.495 -16.203   2.330  1.00  0.00     0.002 A 
HETATM   26  C   UNL     1      41.821 -15.390   3.420  1.00  0.00     0.019 A 
HETATM   27  H   UNL     1      44.766 -17.297   5.732  1.00  0.00     0.165 HD
ENDBRANCH   2  18
TORSDOF 6
ENDMDL
MODEL 2
REMARK VINA RESULT:      -8.1      1.583      9.287
REMARK  6 active torsions:
REMARK  status: ('A' for Active; 'I' for Inactive)
REMARK    1  A    between atoms: C_2  and  C_3 
REMARK    2  A    between atoms: C_3  and  C_4 
REMARK    3  A    between atoms: C_5  and  O_6 
REMARK    4  A    between atoms: C_7  and  C_8 
REMARK    5  A    between atoms: N_9  and  N_10 
REMARK       I    between atoms: N_10  and  C_11 
REMARK    6  A    between atoms: C_11  and  C_12 
ROOT
HETATM    1  N   UNL     1      43.550 -12.770   7.115  1.00  0.00    -0.243 N 
HETATM    2  C   UNL     1      44.273 -11.588   7.040  1.00  0.00     0.274 C 
HETATM    3  O   UNL     1      44.873 -11.209   6.033  1.00  0.00    -0.266 OA
HETATM    4  H   UNL     1      43.070 -13.059   7.954  1.00  0.00     0.192 HD
ENDROOT
BRANCH   1   5
HETATM    5  N   UNL     1      43.501 -13.592   6.027  1.00  0.00    -0.183 NA
HETATM    6  C   UNL     1      42.380 -14.214   5.839  1.00  0.00     0.153 C 
BRANCH   6   7
HETATM    7  C   UNL     1      42.192 -15.143   4.703  1.00  0.00     0.017 A 
HETATM    8  C   UNL     1      43.077 -16.214   4.510  1.00  0.00     0.084 A 
HETATM    9  C   UNL     1      42.895 -17.104   3.435  1.00  0.00    -0.021 A 
HETATM   10  C   UNL     1      41.826 -16.873   2.549  1.00  0.00     0.010 A 
HETATM   11  C   UNL     1      40.953 -15.801   2.736  1.00  0.00     0.002 A 
HETATM   12  C   UNL     1      41.132 -14.939   3.814  1.00  0.00     0.016 A 
BRANCH   8  13
HETATM   13  O   UNL     1      44.114 -16.369   5.393  1.00  0.00    -0.359 OA
HETATM   14  H   UNL     1      43.995 -17.203   5.876  1.00  0.00     0.218 HD
ENDBRANCH   8  13
BRANCH   9  15
HETATM   15  C   UNL     1      43.782 -18.306   3.196  1.00  0.00     0.067 C 
BRANCH  15  16
HETATM   16  C   UNL     1      43.199 -19.271   2.202  1.00  0.00    -0.032 C 
HETATM   17  C   UNL     1      43.723 -20.472   1.917  1.00  0.00     0.007 C 
ENDBRANCH  15  16
ENDBRANCH   9  15
ENDBRANCH   6   7
ENDBRANCH   1   5
BRANCH   2  18
HETATM   18  C   UNL     1      44.321 -10.736   8.272  1.00  0.00     0.061 A 
HETATM   19  C   UNL     1      43.162 -10.029   8.657  1.00  0.00     0.058 A 
HETATM   20  C   UNL     1      43.102  -9.206   9.780  1.00  0.00    -0.007 A 
HETATM   21  N   UNL     1      41.915  -9.986   8.065  1.00  0.00    -0.364 N 
HETATM   22  C   UNL     1      41.786  -8.668   9.841  1.00  0.00     0.030 A 
HETATM   23  C   UNL     1      44.252  -9.066  10.579  1.00  0.00     0.014 A 
HETATM   24  C   UNL     1      41.078  -9.167   8.771  1.00  0.00     0.089 A 
HETATM   25  C   UNL     1      45.415  -9.755  10.227  1.00  0.00     0.002 A 
HETATM   26  C   UNL     1      45.450 -10.576   9.095  1.00  0.00     0.019 A 
HETATM   27  H   UNL     1      41.690 -10.505   7.221  1.00  0.00     0.165 HD
ENDBRANCH   2  18
TORSDOF 6
ENDMDL
MODEL 3
REMARK VINA RESULT:      -7.8      1.205      2.380
REMARK  6 active torsions:
REMARK  status: ('A' for Active; 'I' for Inactive)
REMARK    1  A    between atoms: C_2  and  C_3 
REMARK    2  A    between atoms: C_3  and  C_4 
REMARK    3  A    between atoms: C_5  and  O_6 
REMARK    4  A    between atoms: C_7  and  C_8 
REMARK    5  A    between atoms: N_9  and  N_10 
REMARK       I    between atoms: N_10  and  C_11 
REMARK    6  A    between atoms: C_11  and  C_12 
ROOT
HETATM    1  N   UNL     1      43.941 -14.066   5.894  1.00  0.00    -0.243 N 
HETATM    2  C   UNL     1      42.679 -14.300   5.366  1.00  0.00     0.274 C 
HETATM    3  O   UNL     1      41.673 -13.660   5.674  1.00  0.00    -0.266 OA
HETATM    4  H   UNL     1      44.749 -14.608   5.627  1.00  0.00     0.192 HD
ENDROOT
BRANCH   1   5
HETATM    5  N   UNL     1      44.102 -13.085   6.829  1.00  0.00    -0.183 NA
HETATM    6  C   UNL     1      44.740 -12.028   6.436  1.00  0.00     0.153 C 
BRANCH   6   7
HETATM    7  C   UNL     1      44.992 -10.893   7.350  1.00  0.00     0.017 A 
HETATM    8  C   UNL     1      43.950 -10.358   8.122  1.00  0.00     0.084 A 
HETATM    9  C   UNL     1      44.191  -9.284   8.998  1.00  0.00    -0.021 A 
HETATM   10  C   UNL     1      45.490  -8.745   9.056  1.00  0.00     0.010 A 
HETATM   11  C   UNL     1      46.524  -9.271   8.280  1.00  0.00     0.002 A 
HETATM   12  C   UNL     1      46.278 -10.346   7.431  1.00  0.00     0.016 A 
BRANCH   8  13
HETATM   13  O   UNL     1      42.702 -10.910   8.000  1.00  0.00    -0.359 OA
HETATM   14  H   UNL     1      42.502 -11.035   7.058  1.00  0.00     0.218 HD
ENDBRANCH   8  13
BRANCH   9  15
HETATM   15  C   UNL     1      43.125  -8.691   9.893  1.00  0.00     0.067 C 
BRANCH  15  16
HETATM   16  C   UNL     1      43.275  -9.107  11.331  1.00  0.00    -0.032 C 
HETATM   17  C   UNL     1      43.368  -8.253  12.359  1.00  0.00     0.007 C 
ENDBRANCH  15  16
ENDBRANCH   9  15
ENDBRANCH   6   7
ENDBRANCH   1   5
BRANCH   2  18
HETATM   18  C   UNL     1      42.551 -15.408   4.366  1.00  0.00     0.061 A 
HETATM   19  C   UNL     1      41.525 -15.339   3.401  1.00  0.00     0.058 A 
HETATM   20  C   UNL     1      41.315 -16.319   2.431  1.00  0.00    -0.007 A 
HETATM   21  N   UNL     1      40.563 -14.369   3.200  1.00  0.00    -0.364 N 
HETATM   22  C   UNL     1      40.201 -15.907   1.647  1.00  0.00     0.030 A 
HETATM   23  C   UNL     1      42.167 -17.438   2.404  1.00  0.00     0.014 A 
HETATM   24  C   UNL     1      39.759 -14.702   2.145  1.00  0.00     0.089 A 
HETATM   25  C   UNL     1      43.196 -17.535   3.345  1.00  0.00     0.002 A 
HETATM   26  C   UNL     1      43.386 -16.540   4.308  1.00  0.00     0.019 A 
HETATM   27  H   UNL     1      40.495 -13.536   3.779  1.00  0.00     0.165 HD
ENDBRANCH   2  18
TORSDOF 6
ENDMDL
MODEL 4
REMARK VINA RESULT:      -7.7      2.014      9.063
REMARK  6 active torsions:
REMARK  status: ('A' for Active; 'I' for Inactive)
REMARK    1  A    between atoms: C_2  and  C_3 
REMARK    2  A    between atoms: C_3  and  C_4 
REMARK    3  A    between atoms: C_5  and  O_6 
REMARK    4  A    between atoms: C_7  and  C_8 
REMARK    5  A    between atoms: N_9  and  N_10 
REMARK       I    between atoms: N_10  and  C_11 
REMARK    6  A    between atoms: C_11  and  C_12 
ROOT
HETATM    1  N   UNL     1      43.594 -11.496   7.636  1.00  0.00    -0.243 N 
HETATM    2  C   UNL     1      44.514 -10.780   8.388  1.00  0.00     0.274 C 
HETATM    3  O   UNL     1      45.702 -11.087   8.499  1.00  0.00    -0.266 OA
HETATM    4  H   UNL     1      42.625 -11.224   7.564  1.00  0.00     0.192 HD
ENDROOT
BRANCH   1   5
HETATM    5  N   UNL     1      43.998 -12.626   6.985  1.00  0.00    -0.183 NA
HETATM    6  C   UNL     1      43.064 -13.477   6.698  1.00  0.00     0.153 C 
BRANCH   6   7
HETATM    7  C   UNL     1      43.364 -14.747   6.002  1.00  0.00     0.017 A 
HETATM    8  C   UNL     1      43.037 -14.907   4.647  1.00  0.00     0.084 A 
HETATM    9  C   UNL     1      43.329 -16.112   3.981  1.00  0.00    -0.021 A 
HETATM   10  C   UNL     1      43.926 -17.155   4.715  1.00  0.00     0.010 A 
HETATM   11  C   UNL     1      44.240 -16.998   6.065  1.00  0.00     0.002 A 
HETATM   12  C   UNL     1      43.964 -15.795   6.708  1.00  0.00     0.016 A 
BRANCH   8  13
HETATM   13  O   UNL     1      42.433 -13.864   3.996  1.00  0.00    -0.359 OA
HETATM   14  H   UNL     1      41.491 -14.069   3.877  1.00  0.00     0.218 HD
ENDBRANCH   8  13
BRANCH   9  15
HETATM   15  C   UNL     1      43.048 -16.334   2.511  1.00  0.00     0.067 C 
BRANCH  15  16
HETATM   16  C   UNL     1      41.653 -16.834   2.255  1.00  0.00    -0.032 C 
HETATM   17  C   UNL     1      40.623 -16.052   1.900  1.00  0.00     0.007 C 
ENDBRANCH  15  16
ENDBRANCH   9  15
ENDBRANCH   6   7
ENDBRANCH   1   5
BRANCH   2  18
HETATM   18  C   UNL     1      44.013  -9.565   9.108  1.00  0.00     0.061 A 
HETATM   19  C   UNL     1      43.488  -9.712  10.408  1.00  0.00     0.058 A 
HETATM   20  C   UNL     1      42.991  -8.649  11.161  1.00  0.00    -0.007 A 
HETATM   21  N   UNL     1      43.351 -10.847  11.184  1.00  0.00    -0.364 N 
HETATM   22  C   UNL     1      42.552  -9.180  12.406  1.00  0.00     0.030 A 
HETATM   23  C   UNL     1      43.010  -7.358  10.604  1.00  0.00     0.014 A 
HETATM   24  C   UNL     1      42.786 -10.537  12.391  1.00  0.00     0.089 A 
HETATM   25  C   UNL     1      43.527  -7.177   9.317  1.00  0.00     0.002 A 
HETATM   26  C   UNL     1      44.020  -8.259   8.583  1.00  0.00     0.019 A 
HETATM   27  H   UNL     1      43.641 -11.767  10.866  1.00  0.00     0.165 HD
ENDBRANCH   2  18
TORSDOF 6
ENDMDL
MODEL 5
REMARK VINA RESULT:      -7.7      4.879      8.121
REMARK  6 active torsions:
REMARK  status: ('A' for Active; 'I' for Inactive)
REMARK    1  A    between atoms: C_2  and  C_3 
REMARK    2  A    between atoms: C_3  and  C_4 
REMARK    3  A    between atoms: C_5  and  O_6 
REMARK    4  A    between atoms: C_7  and  C_8 
REMARK    5  A    between atoms: N_9  and  N_10 
REMARK       I    between atoms: N_10  and  C_11 
REMARK    6  A    between atoms: C_11  and  C_12 
ROOT
HETATM    1  N   UNL     1      41.621 -14.353   0.700  1.00  0.00    -0.243 N 
HETATM    2  C   UNL     1      40.376 -13.743   0.753  1.00  0.00     0.274 C 
HETATM    3  O   UNL     1      39.635 -13.773   1.736  1.00  0.00    -0.266 OA
HETATM    4  H   UNL     1      42.208 -14.316  -0.121  1.00  0.00     0.192 HD
ENDROOT
BRANCH   1   5
HETATM    5  N   UNL     1      42.069 -15.052   1.783  1.00  0.00    -0.183 NA
HETATM    6  C   UNL     1      42.678 -16.166   1.524  1.00  0.00     0.153 C 
BRANCH   6   7
HETATM    7  C   UNL     1      43.206 -17.028   2.604  1.00  0.00     0.017 A 
HETATM    8  C   UNL     1      43.536 -16.479   3.852  1.00  0.00     0.084 A 
HETATM    9  C   UNL     1      44.030 -17.298   4.883  1.00  0.00    -0.021 A 
HETATM   10  C   UNL     1      44.211 -18.669   4.620  1.00  0.00     0.010 A 
HETATM   11  C   UNL     1      43.893 -19.213   3.376  1.00  0.00     0.002 A 
HETATM   12  C   UNL     1      43.386 -18.395   2.369  1.00  0.00     0.016 A 
BRANCH   8  13
HETATM   13  O   UNL     1      43.362 -15.132   4.036  1.00  0.00    -0.359 OA
HETATM   14  H   UNL     1      42.570 -14.847   3.551  1.00  0.00     0.218 HD
ENDBRANCH   8  13
BRANCH   9  15
HETATM   15  C   UNL     1      44.361 -16.780   6.266  1.00  0.00     0.067 C 
BRANCH  15  16
HETATM   16  C   UNL     1      43.145 -16.639   7.140  1.00  0.00    -0.032 C 
HETATM   17  C   UNL     1      42.861 -15.552   7.870  1.00  0.00     0.007 C 
ENDBRANCH  15  16
ENDBRANCH   9  15
ENDBRANCH   6   7
ENDBRANCH   1   5
BRANCH   2  18
HETATM   18  C   UNL     1      39.918 -13.014  -0.473  1.00  0.00     0.061 A 
HETATM   19  C   UNL     1      39.304 -13.746  -1.512  1.00  0.00     0.058 A 
HETATM   20  C   UNL     1      38.848 -13.166  -2.695  1.00  0.00    -0.007 A 
HETATM   21  N   UNL     1      39.031 -15.097  -1.600  1.00  0.00    -0.364 N 
HETATM   22  C   UNL     1      38.297 -14.208  -3.492  1.00  0.00     0.030 A 
HETATM   23  C   UNL     1      39.003 -11.779  -2.872  1.00  0.00     0.014 A 
HETATM   24  C   UNL     1      38.423 -15.386  -2.791  1.00  0.00     0.089 A 
HETATM   25  C   UNL     1      39.604 -11.024  -1.860  1.00  0.00     0.002 A 
HETATM   26  C   UNL     1      40.053 -11.629  -0.683  1.00  0.00     0.019 A 
HETATM   27  H   UNL     1      39.264 -15.753  -0.860  1.00  0.00     0.165 HD
ENDBRANCH   2  18
TORSDOF 6
ENDMDL
MODEL 6
REMARK VINA RESULT:      -7.6      6.036      8.790
REMARK  6 active torsions:
REMARK  status: ('A' for Active; 'I' for Inactive)
REMARK    1  A    between atoms: C_2  and  C_3 
REMARK    2  A    between atoms: C_3  and  C_4 
REMARK    3  A    between atoms: C_5  and  O_6 
REMARK    4  A    between atoms: C_7  and  C_8 
REMARK    5  A    between atoms: N_9  and  N_10 
REMARK       I    between atoms: N_10  and  C_11 
REMARK    6  A    between atoms: C_11  and  C_12 
ROOT
HETATM    1  N   UNL     1      41.565 -15.385   2.149  1.00  0.00    -0.243 N 
HETATM    2  C   UNL     1      42.783 -16.045   2.079  1.00  0.00     0.274 C 
HETATM    3  O   UNL     1      43.534 -16.004   1.104  1.00  0.00    -0.266 OA
HETATM    4  H   UNL     1      40.966 -15.437   2.960  1.00  0.00     0.192 HD
ENDROOT
BRANCH   1   5
HETATM    5  N   UNL     1      41.139 -14.653   1.078  1.00  0.00    -0.183 NA
HETATM    6  C   UNL     1      40.100 -15.114   0.456  1.00  0.00     0.153 C 
BRANCH   6   7
HETATM    7  C   UNL     1      39.539 -14.425  -0.727  1.00  0.00     0.017 A 
HETATM    8  C   UNL     1      39.341 -13.036  -0.711  1.00  0.00     0.084 A 
HETATM    9  C   UNL     1      38.816 -12.378  -1.838  1.00  0.00    -0.021 A 
HETATM   10  C   UNL     1      38.468 -13.151  -2.963  1.00  0.00     0.010 A 
HETATM   11  C   UNL     1      38.654 -14.533  -2.973  1.00  0.00     0.002 A 
HETATM   12  C   UNL     1      39.193 -15.171  -1.859  1.00  0.00     0.016 A 
BRANCH   8  13
HETATM   13  O   UNL     1      39.676 -12.345   0.424  1.00  0.00    -0.359 OA
HETATM   14  H   UNL     1      39.225 -11.484   0.414  1.00  0.00     0.218 HD
ENDBRANCH   8  13
BRANCH   9  15
HETATM   15  C   UNL     1      38.623 -10.880  -1.906  1.00  0.00     0.067 C 
BRANCH  15  16
HETATM   16  C   UNL     1      39.718 -10.186  -2.668  1.00  0.00    -0.032 C 
HETATM   17  C   UNL     1      40.982 -10.069  -2.237  1.00  0.00     0.007 C 
ENDBRANCH  15  16
ENDBRANCH   9  15
ENDBRANCH   6   7
ENDBRANCH   1   5
BRANCH   2  18
HETATM   18  C   UNL     1      43.190 -16.859   3.269  1.00  0.00     0.061 A 
HETATM   19  C   UNL     1      43.395 -18.245   3.109  1.00  0.00     0.058 A 
HETATM   20  C   UNL     1      43.768 -19.092   4.151  1.00  0.00    -0.007 A 
HETATM   21  N   UNL     1      43.284 -19.031   1.978  1.00  0.00    -0.364 N 
HETATM   22  C   UNL     1      43.876 -20.405   3.612  1.00  0.00     0.030 A 
HETATM   23  C   UNL     1      43.954 -18.546   5.434  1.00  0.00     0.014 A 
HETATM   24  C   UNL     1      43.572 -20.335   2.271  1.00  0.00     0.089 A 
HETATM   25  C   UNL     1      43.761 -17.175   5.626  1.00  0.00     0.002 A 
HETATM   26  C   UNL     1      43.387 -16.346   4.564  1.00  0.00     0.019 A 
HETATM   27  H   UNL     1      43.023 -18.653   1.072  1.00  0.00     0.165 HD
ENDBRANCH   2  18
TORSDOF 6
ENDMDL
MODEL 7
REMARK VINA RESULT:      -7.6      5.006      8.255
REMARK  6 active torsions:
REMARK  status: ('A' for Active; 'I' for Inactive)
REMARK    1  A    between atoms: C_2  and  C_3 
REMARK    2  A    between atoms: C_3  and  C_4 
REMARK    3  A    between atoms: C_5  and  O_6 
REMARK    4  A    between atoms: C_7  and  C_8 
REMARK    5  A    between atoms: N_9  and  N_10 
REMARK       I    between atoms: N_10  and  C_11 
REMARK    6  A    between atoms: C_11  and  C_12 
ROOT
HETATM    1  N   UNL     1      39.950 -14.150   2.192  1.00  0.00    -0.243 N 
HETATM    2  C   UNL     1      40.210 -14.187   0.829  1.00  0.00     0.274 C 
HETATM    3  O   UNL     1      41.056 -14.916   0.309  1.00  0.00    -0.266 OA
HETATM    4  H   UNL     1      39.253 -13.540   2.594  1.00  0.00     0.192 HD
ENDROOT
BRANCH   1   5
HETATM    5  N   UNL     1      40.675 -14.944   3.033  1.00  0.00    -0.183 NA
HETATM    6  C   UNL     1      41.802 -14.454   3.442  1.00  0.00     0.153 C 
BRANCH   6   7
HETATM    7  C   UNL     1      42.691 -15.212   4.349  1.00  0.00     0.017 A 
HETATM    8  C   UNL     1      43.117 -16.505   4.008  1.00  0.00     0.084 A 
HETATM    9  C   UNL     1      43.969 -17.224   4.866  1.00  0.00    -0.021 A 
HETATM   10  C   UNL     1      44.355 -16.627   6.081  1.00  0.00     0.010 A 
HETATM   11  C   UNL     1      43.922 -15.346   6.424  1.00  0.00     0.002 A 
HETATM   12  C   UNL     1      43.095 -14.636   5.558  1.00  0.00     0.016 A 
BRANCH   8  13
HETATM   13  O   UNL     1      42.684 -17.040   2.823  1.00  0.00    -0.359 OA
HETATM   14  H   UNL     1      41.967 -17.670   3.004  1.00  0.00     0.218 HD
ENDBRANCH   8  13
BRANCH   9  15
HETATM   15  C   UNL     1      44.503 -18.600   4.537  1.00  0.00     0.067 C 
BRANCH  15  16
HETATM   16  C   UNL     1      43.936 -19.672   5.427  1.00  0.00    -0.032 C 
HETATM   17  C   UNL     1      43.942 -20.980   5.133  1.00  0.00     0.007 C 
ENDBRANCH  15  16
ENDBRANCH   9  15
ENDBRANCH   6   7
ENDBRANCH   1   5
BRANCH   2  18
HETATM   18  C   UNL     1      39.408 -13.274  -0.046  1.00  0.00     0.061 A 
HETATM   19  C   UNL     1      38.898 -13.771  -1.263  1.00  0.00     0.058 A 
HETATM   20  C   UNL     1      38.145 -13.004  -2.152  1.00  0.00    -0.007 A 
HETATM   21  N   UNL     1      39.010 -15.030  -1.821  1.00  0.00    -0.364 N 
HETATM   22  C   UNL     1      37.813 -13.839  -3.256  1.00  0.00     0.030 A 
HETATM   23  C   UNL     1      37.875 -11.663  -1.827  1.00  0.00     0.014 A 
HETATM   24  C   UNL     1      38.360 -15.081  -3.023  1.00  0.00     0.089 A 
HETATM   25  C   UNL     1      38.364 -11.140  -0.626  1.00  0.00     0.002 A 
HETATM   26  C   UNL     1      39.116 -11.929   0.249  1.00  0.00     0.019 A 
HETATM   27  H   UNL     1      39.515 -15.787  -1.369  1.00  0.00     0.165 HD
ENDBRANCH   2  18
TORSDOF 6
ENDMDL
MODEL 8
REMARK VINA RESULT:      -7.5      5.537      8.590
REMARK  6 active torsions:
REMARK  status: ('A' for Active; 'I' for Inactive)
REMARK    1  A    between atoms: C_2  and  C_3 
REMARK    2  A    between atoms: C_3  and  C_4 
REMARK    3  A    between atoms: C_5  and  O_6 
REMARK    4  A    between atoms: C_7  and  C_8 
REMARK    5  A    between atoms: N_9  and  N_10 
REMARK       I    between atoms: N_10  and  C_11 
REMARK    6  A    between atoms: C_11  and  C_12 
ROOT
HETATM    1  N   UNL     1      41.396 -15.512   1.453  1.00  0.00    -0.243 N 
HETATM    2  C   UNL     1      41.183 -16.136   2.674  1.00  0.00     0.274 C 
HETATM    3  O   UNL     1      40.149 -16.024   3.333  1.00  0.00    -0.266 OA
HETATM    4  H   UNL     1      42.255 -15.618   0.933  1.00  0.00     0.192 HD
ENDROOT
BRANCH   1   5
HETATM    5  N   UNL     1      40.425 -14.703   0.937  1.00  0.00    -0.183 NA
HETATM    6  C   UNL     1      40.407 -14.594  -0.354  1.00  0.00     0.153 C 
BRANCH   6   7
HETATM    7  C   UNL     1      39.414 -13.742  -1.044  1.00  0.00     0.017 A 
HETATM    8  C   UNL     1      39.250 -12.400  -0.672  1.00  0.00     0.084 A 
HETATM    9  C   UNL     1      38.312 -11.586  -1.332  1.00  0.00    -0.021 A 
HETATM   10  C   UNL     1      37.527 -12.160  -2.350  1.00  0.00     0.010 A 
HETATM   11  C   UNL     1      37.683 -13.499  -2.712  1.00  0.00     0.002 A 
HETATM   12  C   UNL     1      38.628 -14.289  -2.064  1.00  0.00     0.016 A 
BRANCH   8  13
HETATM   13  O   UNL     1      40.027 -11.907   0.345  1.00  0.00    -0.359 OA
HETATM   14  H   UNL     1      40.844 -11.541  -0.032  1.00  0.00     0.218 HD
ENDBRANCH   8  13
BRANCH   9  15
HETATM   15  C   UNL     1      38.119 -10.120  -1.014  1.00  0.00     0.067 C 
BRANCH  15  16
HETATM   16  C   UNL     1      36.887  -9.860  -0.192  1.00  0.00    -0.032 C 
HETATM   17  C   UNL     1      36.515 -10.596   0.865  1.00  0.00     0.007 C 
ENDBRANCH  15  16
ENDBRANCH   9  15
ENDBRANCH   6   7
ENDBRANCH   1   5
BRANCH   2  18
HETATM   18  C   UNL     1      42.292 -16.988   3.210  1.00  0.00     0.061 A 
HETATM   19  C   UNL     1      42.561 -16.964   4.594  1.00  0.00     0.058 A 
HETATM   20  C   UNL     1      43.573 -17.713   5.193  1.00  0.00    -0.007 A 
HETATM   21  N   UNL     1      41.942 -16.253   5.604  1.00  0.00    -0.364 N 
HETATM   22  C   UNL     1      43.541 -17.429   6.587  1.00  0.00     0.030 A 
HETATM   23  C   UNL     1      44.372 -18.541   4.384  1.00  0.00     0.014 A 
HETATM   24  C   UNL     1      42.526 -16.526   6.810  1.00  0.00     0.089 A 
HETATM   25  C   UNL     1      44.129 -18.590   3.008  1.00  0.00     0.002 A 
HETATM   26  C   UNL     1      43.108 -17.829   2.431  1.00  0.00     0.019 A 
HETATM   27  H   UNL     1      41.162 -15.624   5.433  1.00  0.00     0.165 HD
ENDBRANCH   2  18
TORSDOF 6
ENDMDL
MODEL 9
REMARK VINA RESULT:      -7.3      1.645      8.975
REMARK  6 active torsions:
REMARK  status: ('A' for Active; 'I' for Inactive)
REMARK    1  A    between atoms: C_2  and  C_3 
REMARK    2  A    between atoms: C_3  and  C_4 
REMARK    3  A    between atoms: C_5  and  O_6 
REMARK    4  A    between atoms: C_7  and  C_8 
REMARK    5  A    between atoms: N_9  and  N_10 
REMARK       I    between atoms: N_10  and  C_11 
REMARK    6  A    between atoms: C_11  and  C_12 
ROOT
HETATM    1  N   UNL     1      43.662 -12.997   6.840  1.00  0.00    -0.243 N 
HETATM    2  C   UNL     1      43.338 -11.648   6.837  1.00  0.00     0.274 C 
HETATM    3  O   UNL     1      42.419 -11.162   6.178  1.00  0.00    -0.266 OA
HETATM    4  H   UNL     1      44.424 -13.370   7.388  1.00  0.00     0.192 HD
ENDROOT
BRANCH   1   5
HETATM    5  N   UNL     1      42.948 -13.858   6.058  1.00  0.00    -0.183 NA
HETATM    6  C   UNL     1      43.602 -14.419   5.091  1.00  0.00     0.153 C 
BRANCH   6   7
HETATM    7  C   UNL     1      42.947 -15.365   4.162  1.00  0.00     0.017 A 
HETATM    8  C   UNL     1      41.725 -15.036   3.558  1.00  0.00     0.084 A 
HETATM    9  C   UNL     1      41.105 -15.931   2.667  1.00  0.00    -0.021 A 
HETATM   10  C   UNL     1      41.727 -17.172   2.425  1.00  0.00     0.010 A 
HETATM   11  C   UNL     1      42.937 -17.503   3.035  1.00  0.00     0.002 A 
HETATM   12  C   UNL     1      43.550 -16.600   3.899  1.00  0.00     0.016 A 
BRANCH   8  13
HETATM   13  O   UNL     1      41.159 -13.824   3.856  1.00  0.00    -0.359 OA
HETATM   14  H   UNL     1      40.235 -13.825   3.556  1.00  0.00     0.218 HD
ENDBRANCH   8  13
BRANCH   9  15
HETATM   15  C   UNL     1      39.813 -15.620   1.945  1.00  0.00     0.067 C 
BRANCH  15  16
HETATM   16  C   UNL     1      40.033 -15.179   0.524  1.00  0.00    -0.032 C 
HETATM   17  C   UNL     1      40.400 -13.941   0.165  1.00  0.00     0.007 C 
ENDBRANCH  15  16
ENDBRANCH   9  15
ENDBRANCH   6   7
ENDBRANCH   1   5
BRANCH   2  18
HETATM   18  C   UNL     1      44.173 -10.742   7.689  1.00  0.00     0.061 A 
HETATM   19  C   UNL     1      43.556 -10.045   8.750  1.00  0.00     0.058 A 
HETATM   20  C   UNL     1      44.240  -9.174   9.597  1.00  0.00    -0.007 A 
HETATM   21  N   UNL     1      42.240 -10.057   9.169  1.00  0.00    -0.364 N 
HETATM   22  C   UNL     1      43.296  -8.665  10.532  1.00  0.00     0.030 A 
HETATM   23  C   UNL     1      45.617  -8.973   9.393  1.00  0.00     0.014 A 
HETATM   24  C   UNL     1      42.072  -9.227  10.243  1.00  0.00     0.089 A 
HETATM   25  C   UNL     1      46.259  -9.650   8.352  1.00  0.00     0.002 A 
HETATM   26  C   UNL     1      45.551 -10.519   7.516  1.00  0.00     0.019 A 
HETATM   27  H   UNL     1      41.525 -10.618   8.715  1.00  0.00     0.165 HD
ENDBRANCH   2  18
TORSDOF 6
ENDMDL
MODEL 10
REMARK VINA RESULT:      -7.2      4.817      8.562
REMARK  6 active torsions:
REMARK  status: ('A' for Active; 'I' for Inactive)
REMARK    1  A    between atoms: C_2  and  C_3 
REMARK    2  A    between atoms: C_3  and  C_4 
REMARK    3  A    between atoms: C_5  and  O_6 
REMARK    4  A    between atoms: C_7  and  C_8 
REMARK    5  A    between atoms: N_9  and  N_10 
REMARK       I    between atoms: N_10  and  C_11 
REMARK    6  A    between atoms: C_11  and  C_12 
ROOT
HETATM    1  N   UNL     1      41.999 -13.673   3.024  1.00  0.00    -0.243 N 
HETATM    2  C   UNL     1      41.736 -14.940   3.524  1.00  0.00     0.274 C 
HETATM    3  O   UNL     1      40.744 -15.607   3.225  1.00  0.00    -0.266 OA
HETATM    4  H   UNL     1      42.819 -13.146   3.287  1.00  0.00     0.192 HD
ENDROOT
BRANCH   1   5
HETATM    5  N   UNL     1      41.111 -13.097   2.162  1.00  0.00    -0.183 NA
HETATM    6  C   UNL     1      41.548 -12.880   0.962  1.00  0.00     0.153 C 
BRANCH   6   7
HETATM    7  C   UNL     1      40.693 -12.253  -0.070  1.00  0.00     0.017 A 
HETATM    8  C   UNL     1      39.551 -12.915  -0.543  1.00  0.00     0.084 A 
HETATM    9  C   UNL     1      38.732 -12.316  -1.518  1.00  0.00    -0.021 A 
HETATM   10  C   UNL     1      39.105 -11.056  -2.024  1.00  0.00     0.010 A 
HETATM   11  C   UNL     1      40.247 -10.403  -1.560  1.00  0.00     0.002 A 
HETATM   12  C   UNL     1      41.039 -10.997  -0.581  1.00  0.00     0.016 A 
BRANCH   8  13
HETATM   13  O   UNL     1      39.257 -14.152  -0.030  1.00  0.00    -0.359 OA
HETATM   14  H   UNL     1      40.086 -14.628   0.139  1.00  0.00     0.218 HD
ENDBRANCH   8  13
BRANCH   9  15
HETATM   15  C   UNL     1      37.462 -12.953  -2.037  1.00  0.00     0.067 C 
BRANCH  15  16
HETATM   16  C   UNL     1      37.702 -13.855  -3.216  1.00  0.00    -0.032 C 
HETATM   17  C   UNL     1      38.398 -14.999  -3.163  1.00  0.00     0.007 C 
ENDBRANCH  15  16
ENDBRANCH   9  15
ENDBRANCH   6   7
ENDBRANCH   1   5
BRANCH   2  18
HETATM   18  C   UNL     1      42.727 -15.515   4.489  1.00  0.00     0.061 A 
HETATM   19  C   UNL     1      43.310 -16.767   4.203  1.00  0.00     0.058 A 
HETATM   20  C   UNL     1      44.237 -17.391   5.036  1.00  0.00    -0.007 A 
HETATM   21  N   UNL     1      43.120 -17.604   3.121  1.00  0.00    -0.364 N 
HETATM   22  C   UNL     1      44.594 -18.625   4.423  1.00  0.00     0.030 A 
HETATM   23  C   UNL     1      44.618 -16.747   6.227  1.00  0.00     0.014 A 
HETATM   24  C   UNL     1      43.889 -18.729   3.245  1.00  0.00     0.089 A 
HETATM   25  C   UNL     1      44.061 -15.504   6.539  1.00  0.00     0.002 A 
HETATM   26  C   UNL     1      43.134 -14.897   5.687  1.00  0.00     0.019 A 
HETATM   27  H   UNL     1      42.487 -17.380   2.359  1.00  0.00     0.165 HD
ENDBRANCH   2  18
TORSDOF 6
ENDMDL
