MODEL 1
REMARK VINA RESULT:      -7.8      0.000      0.000
REMARK  7 active torsions:
REMARK  status: ('A' for Active; 'I' for Inactive)
REMARK    1  A    between atoms: C_8  and  C_9 
REMARK    2  A    between atoms: C_9  and  C_10 
REMARK    3  A    between atoms: C_10  and  C_11 
REMARK       I    between atoms: C_11  and  N_12 
REMARK    4  A    between atoms: N_12  and  C_13 
REMARK    5  A    between atoms: C_13  and  C_14 
REMARK    6  A    between atoms: C_14  and  C_15 
REMARK    7  A    between atoms: C_16  and  O_17 
ROOT
HETATM    1  C   UNL     1      40.801 -13.951   5.857  1.00  0.00     0.217 C 
HETATM    2  N   UNL     1      40.452 -14.685   4.743  1.00  0.00    -0.360 N 
HETATM    3  O   UNL     1      41.674 -14.285   6.650  1.00  0.00    -0.274 OA
HETATM    4  H   UNL     1      39.617 -14.416   4.238  1.00  0.00     0.162 HD
ENDROOT
BRANCH   2   5
HETATM    5  C   UNL     1      40.985 -16.009   4.490  1.00  0.00     0.137 C 
BRANCH   5   6
HETATM    6  C   UNL     1      41.975 -16.088   3.296  1.00  0.00     0.005 C 
HETATM    7  C   UNL     1      41.294 -15.755   1.939  1.00  0.00     0.016 C 
HETATM    8  C   UNL     1      42.432 -15.310   1.022  1.00  0.00     0.001 C 
HETATM    9  C   UNL     1      43.478 -14.694   1.945  1.00  0.00     0.001 C 
HETATM   10  C   UNL     1      42.898 -14.828   3.350  1.00  0.00     0.016 C 
BRANCH   6  11
HETATM   11  C   UNL     1      42.747 -17.436   3.321  1.00  0.00    -0.015 A 
HETATM   12  C   UNL     1      43.669 -17.791   4.339  1.00  0.00     0.075 A 
HETATM   13  C   UNL     1      44.335 -19.028   4.294  1.00  0.00     0.037 A 
HETATM   14  C   UNL     1      44.122 -19.920   3.246  1.00  0.00     0.003 A 
HETATM   15  C   UNL     1      43.257 -19.577   2.222  1.00  0.00     0.001 A 
HETATM   16  C   UNL     1      42.590 -18.351   2.255  1.00  0.00     0.011 A 
BRANCH  12  17
HETATM   17  O   UNL     1      43.914 -16.863   5.320  1.00  0.00    -0.355 OA
HETATM   18  C   UNL     1      43.720 -17.255   6.673  1.00  0.00     0.210 C 
ENDBRANCH  12  17
ENDBRANCH   6  11
ENDBRANCH   5   6
ENDBRANCH   2   5
BRANCH   1  19
HETATM   19  C   UNL     1      40.051 -12.639   5.956  1.00  0.00     0.107 C 
BRANCH  19  20
HETATM   20  C   UNL     1      41.005 -11.450   6.015  1.00  0.00     0.052 C 
BRANCH  20  21
HETATM   21  C   UNL     1      41.848 -11.350   4.785  1.00  0.00    -0.008 A 
HETATM   22  C   UNL     1      41.444 -11.185   3.473  1.00  0.00     0.032 A 
HETATM   23  C   UNL     1      40.106 -11.053   2.853  1.00  0.00     0.070 C 
HETATM   24  N   UNL     1      42.591 -11.159   2.730  1.00  0.00    -0.282 N 
HETATM   25  H   UNL     1      42.685 -11.049   1.726  1.00  0.00     0.189 HD
HETATM   26  N   UNL     1      43.708 -11.304   3.453  1.00  0.00    -0.179 NA
HETATM   27  C   UNL     1      43.269 -11.412   4.712  1.00  0.00     0.059 A 
HETATM   28  C   UNL     1      44.234 -11.582   5.827  1.00  0.00     0.073 C 
ENDBRANCH  20  21
ENDBRANCH  19  20
ENDBRANCH   1  19
TORSDOF 7
ENDMDL
MODEL 2
REMARK VINA RESULT:      -7.7      2.535      4.592
REMARK  7 active torsions:
REMARK  status: ('A' for Active; 'I' for Inactive)
REMARK    1  A    between atoms: C_8  and  C_9 
REMARK    2  A    between atoms: C_9  and  C_10 
REMARK    3  A    between atoms: C_10  and  C_11 
REMARK       I    between atoms: C_11  and  N_12 
REMARK    4  A    between atoms: N_12  and  C_13 
REMARK    5  A    between atoms: C_13  and  C_14 
REMARK    6  A    between atoms: C_14  and  C_15 
REMARK    7  A    between atoms: C_16  and  O_17 
ROOT
HETATM    1  C   UNL     1      39.638 -13.082   4.407  1.00  0.00     0.217 C 
HETATM    2  N   UNL     1      40.245 -14.319   4.456  1.00  0.00    -0.360 N 
HETATM    3  O   UNL     1      39.575 -12.314   5.361  1.00  0.00    -0.274 OA
HETATM    4  H   UNL     1      40.109 -14.947   3.674  1.00  0.00     0.162 HD
ENDROOT
BRANCH   2   5
HETATM    5  C   UNL     1      40.734 -14.895   5.694  1.00  0.00     0.137 C 
BRANCH   5   6
HETATM    6  C   UNL     1      42.189 -15.432   5.624  1.00  0.00     0.005 C 
HETATM    7  C   UNL     1      43.158 -14.640   6.546  1.00  0.00     0.016 C 
HETATM    8  C   UNL     1      44.322 -15.593   6.813  1.00  0.00     0.001 C 
HETATM    9  C   UNL     1      43.723 -16.994   6.738  1.00  0.00     0.001 C 
HETATM   10  C   UNL     1      42.246 -16.778   6.416  1.00  0.00     0.016 C 
BRANCH   6  11
HETATM   11  C   UNL     1      42.652 -15.551   4.146  1.00  0.00    -0.015 A 
HETATM   12  C   UNL     1      43.080 -14.444   3.369  1.00  0.00     0.075 A 
HETATM   13  C   UNL     1      43.482 -14.626   2.034  1.00  0.00     0.037 A 
HETATM   14  C   UNL     1      43.452 -15.885   1.441  1.00  0.00     0.003 A 
HETATM   15  C   UNL     1      43.002 -16.973   2.168  1.00  0.00     0.001 A 
HETATM   16  C   UNL     1      42.598 -16.804   3.494  1.00  0.00     0.011 A 
BRANCH  12  17
HETATM   17  O   UNL     1      43.031 -13.204   3.956  1.00  0.00    -0.355 OA
HETATM   18  C   UNL     1      43.666 -12.123   3.286  1.00  0.00     0.210 C 
ENDBRANCH  12  17
ENDBRANCH   6  11
ENDBRANCH   5   6
ENDBRANCH   2   5
BRANCH   1  19
HETATM   19  C   UNL     1      39.129 -12.731   3.026  1.00  0.00     0.107 C 
BRANCH  19  20
HETATM   20  C   UNL     1      40.264 -12.664   2.009  1.00  0.00     0.052 C 
BRANCH  20  21
HETATM   21  C   UNL     1      39.889 -13.303   0.712  1.00  0.00    -0.008 A 
HETATM   22  C   UNL     1      39.726 -14.646   0.427  1.00  0.00     0.032 A 
HETATM   23  C   UNL     1      39.855 -15.863   1.260  1.00  0.00     0.070 C 
HETATM   24  N   UNL     1      39.390 -14.709  -0.897  1.00  0.00    -0.282 N 
HETATM   25  H   UNL     1      39.190 -15.532  -1.455  1.00  0.00     0.189 HD
HETATM   26  N   UNL     1      39.330 -13.514  -1.497  1.00  0.00    -0.179 NA
HETATM   27  C   UNL     1      39.624 -12.645  -0.524  1.00  0.00     0.059 A 
HETATM   28  C   UNL     1      39.652 -11.188  -0.806  1.00  0.00     0.073 C 
ENDBRANCH  20  21
ENDBRANCH  19  20
ENDBRANCH   1  19
TORSDOF 7
ENDMDL
MODEL 3
REMARK VINA RESULT:      -7.6      2.369      3.265
REMARK  7 active torsions:
REMARK  status: ('A' for Active; 'I' for Inactive)
REMARK    1  A    between atoms: C_8  and  C_9 
REMARK    2  A    between atoms: C_9  and  C_10 
REMARK    3  A    between atoms: C_10  and  C_11 
REMARK       I    between atoms: C_11  and  N_12 
REMARK    4  A    between atoms: N_12  and  C_13 
REMARK    5  A    between atoms: C_13  and  C_14 
REMARK    6  A    between atoms: C_14  and  C_15 
REMARK    7  A    between atoms: C_16  and  O_17 
ROOT
HETATM    1  C   UNL     1      42.759 -11.451   3.175  1.00  0.00     0.217 C 
HETATM    2  N   UNL     1      43.056 -12.759   3.492  1.00  0.00    -0.360 N 
HETATM    3  O   UNL     1      42.479 -11.068   2.044  1.00  0.00    -0.274 OA
HETATM    4  H   UNL     1      43.430 -12.953   4.412  1.00  0.00     0.162 HD
ENDROOT
BRANCH   2   5
HETATM    5  C   UNL     1      43.215 -13.785   2.479  1.00  0.00     0.137 C 
BRANCH   5   6
HETATM    6  C   UNL     1      42.191 -14.949   2.574  1.00  0.00     0.005 C 
HETATM    7  C   UNL     1      40.888 -14.531   3.312  1.00  0.00     0.016 C 
HETATM    8  C   UNL     1      39.824 -15.515   2.825  1.00  0.00     0.001 C 
HETATM    9  C   UNL     1      40.250 -15.907   1.415  1.00  0.00     0.001 C 
HETATM   10  C   UNL     1      41.548 -15.142   1.164  1.00  0.00     0.016 C 
BRANCH   6  11
HETATM   11  C   UNL     1      42.873 -16.226   3.136  1.00  0.00    -0.015 A 
HETATM   12  C   UNL     1      43.245 -16.380   4.497  1.00  0.00     0.075 A 
HETATM   13  C   UNL     1      43.864 -17.565   4.934  1.00  0.00     0.037 A 
HETATM   14  C   UNL     1      44.141 -18.600   4.045  1.00  0.00     0.003 A 
HETATM   15  C   UNL     1      43.822 -18.456   2.707  1.00  0.00     0.001 A 
HETATM   16  C   UNL     1      43.209 -17.283   2.260  1.00  0.00     0.011 A 
BRANCH  12  17
HETATM   17  O   UNL     1      43.027 -15.316   5.335  1.00  0.00    -0.355 OA
HETATM   18  C   UNL     1      42.389 -15.567   6.580  1.00  0.00     0.210 C 
ENDBRANCH  12  17
ENDBRANCH   6  11
ENDBRANCH   5   6
ENDBRANCH   2   5
BRANCH   1  19
HETATM   19  C   UNL     1      42.732 -10.544   4.387  1.00  0.00     0.107 C 
BRANCH  19  20
HETATM   20  C   UNL     1      41.999 -11.193   5.556  1.00  0.00     0.052 C 
BRANCH  20  21
HETATM   21  C   UNL     1      42.674 -10.915   6.860  1.00  0.00    -0.008 A 
HETATM   22  C   UNL     1      42.313 -10.014   7.845  1.00  0.00     0.032 A 
HETATM   23  C   UNL     1      41.189  -9.057   7.954  1.00  0.00     0.070 C 
HETATM   24  N   UNL     1      43.254 -10.139   8.829  1.00  0.00    -0.282 N 
HETATM   25  H   UNL     1      43.312  -9.638   9.709  1.00  0.00     0.189 HD
HETATM   26  N   UNL     1      44.203 -11.043   8.558  1.00  0.00    -0.179 NA
HETATM   27  C   UNL     1      43.856 -11.532   7.362  1.00  0.00     0.059 A 
HETATM   28  C   UNL     1      44.681 -12.585   6.718  1.00  0.00     0.073 C 
ENDBRANCH  20  21
ENDBRANCH  19  20
ENDBRANCH   1  19
TORSDOF 7
ENDMDL
MODEL 4
REMARK VINA RESULT:      -7.5      2.526      3.652
REMARK  7 active torsions:
REMARK  status: ('A' for Active; 'I' for Inactive)
REMARK    1  A    between atoms: C_8  and  C_9 
REMARK    2  A    between atoms: C_9  and  C_10 
REMARK    3  A    between atoms: C_10  and  C_11 
REMARK       I    between atoms: C_11  and  N_12 
REMARK    4  A    between atoms: N_12  and  C_13 
REMARK    5  A    between atoms: C_13  and  C_14 
REMARK    6  A    between atoms: C_14  and  C_15 
REMARK    7  A    between atoms: C_16  and  O_17 
ROOT
HETATM    1  C   UNL     1      43.434 -11.742   4.617  1.00  0.00     0.217 C 
HETATM    2  N   UNL     1      42.794 -12.937   4.368  1.00  0.00    -0.360 N 
HETATM    3  O   UNL     1      44.331 -11.287   3.916  1.00  0.00    -0.274 OA
HETATM    4  H   UNL     1      42.183 -13.309   5.084  1.00  0.00     0.162 HD
ENDROOT
BRANCH   2   5
HETATM    5  C   UNL     1      43.232 -13.849   3.329  1.00  0.00     0.137 C 
BRANCH   5   6
HETATM    6  C   UNL     1      42.266 -15.035   3.064  1.00  0.00     0.005 C 
HETATM    7  C   UNL     1      40.846 -14.783   3.645  1.00  0.00     0.016 C 
HETATM    8  C   UNL     1      39.920 -15.693   2.838  1.00  0.00     0.001 C 
HETATM    9  C   UNL     1      40.575 -15.824   1.467  1.00  0.00     0.001 C 
HETATM   10  C   UNL     1      41.855 -14.997   1.557  1.00  0.00     0.016 C 
BRANCH   6  11
HETATM   11  C   UNL     1      42.918 -16.374   3.505  1.00  0.00    -0.015 A 
HETATM   12  C   UNL     1      43.224 -16.688   4.854  1.00  0.00     0.075 A 
HETATM   13  C   UNL     1      43.819 -17.920   5.179  1.00  0.00     0.037 A 
HETATM   14  C   UNL     1      44.138 -18.847   4.190  1.00  0.00     0.003 A 
HETATM   15  C   UNL     1      43.884 -18.545   2.864  1.00  0.00     0.001 A 
HETATM   16  C   UNL     1      43.295 -17.324   2.528  1.00  0.00     0.011 A 
BRANCH  12  17
HETATM   17  O   UNL     1      42.966 -15.728   5.800  1.00  0.00    -0.355 OA
HETATM   18  C   UNL     1      42.127 -16.076   6.893  1.00  0.00     0.210 C 
ENDBRANCH  12  17
ENDBRANCH   6  11
ENDBRANCH   5   6
ENDBRANCH   2   5
BRANCH   1  19
HETATM   19  C   UNL     1      42.857 -11.002   5.805  1.00  0.00     0.107 C 
BRANCH  19  20
HETATM   20  C   UNL     1      43.578 -11.368   7.099  1.00  0.00     0.052 C 
BRANCH  20  21
HETATM   21  C   UNL     1      44.620 -10.359   7.460  1.00  0.00    -0.008 A 
HETATM   22  C   UNL     1      45.975 -10.381   7.184  1.00  0.00     0.032 A 
HETATM   23  C   UNL     1      46.829 -11.357   6.470  1.00  0.00     0.070 C 
HETATM   24  N   UNL     1      46.486  -9.238   7.731  1.00  0.00    -0.282 N 
HETATM   25  H   UNL     1      47.448  -8.914   7.723  1.00  0.00     0.189 HD
HETATM   26  N   UNL     1      45.573  -8.479   8.348  1.00  0.00    -0.179 NA
HETATM   27  C   UNL     1      44.427  -9.147   8.182  1.00  0.00     0.059 A 
HETATM   28  C   UNL     1      43.159  -8.606   8.734  1.00  0.00     0.073 C 
ENDBRANCH  20  21
ENDBRANCH  19  20
ENDBRANCH   1  19
TORSDOF 7
ENDMDL
MODEL 5
REMARK VINA RESULT:      -7.3      2.806      4.662
REMARK  7 active torsions:
REMARK  status: ('A' for Active; 'I' for Inactive)
REMARK    1  A    between atoms: C_8  and  C_9 
REMARK    2  A    between atoms: C_9  and  C_10 
REMARK    3  A    between atoms: C_10  and  C_11 
REMARK       I    between atoms: C_11  and  N_12 
REMARK    4  A    between atoms: N_12  and  C_13 
REMARK    5  A    between atoms: C_13  and  C_14 
REMARK    6  A    between atoms: C_14  and  C_15 
REMARK    7  A    between atoms: C_16  and  O_17 
ROOT
HETATM    1  C   UNL     1      41.405 -11.204   6.113  1.00  0.00     0.217 C 
HETATM    2  N   UNL     1      41.891 -12.452   6.439  1.00  0.00    -0.360 N 
HETATM    3  O   UNL     1      40.296 -11.008   5.627  1.00  0.00    -0.274 OA
HETATM    4  H   UNL     1      42.871 -12.532   6.682  1.00  0.00     0.162 HD
ENDROOT
BRANCH   2   5
HETATM    5  C   UNL     1      41.191 -13.673   6.091  1.00  0.00     0.137 C 
BRANCH   5   6
HETATM    6  C   UNL     1      42.116 -14.861   5.711  1.00  0.00     0.005 C 
HETATM    7  C   UNL     1      43.523 -14.746   6.361  1.00  0.00     0.016 C 
HETATM    8  C   UNL     1      44.065 -16.174   6.390  1.00  0.00     0.001 C 
HETATM    9  C   UNL     1      42.837 -17.071   6.501  1.00  0.00     0.001 C 
HETATM   10  C   UNL     1      41.646 -16.115   6.515  1.00  0.00     0.016 C 
BRANCH   6  11
HETATM   11  C   UNL     1      42.127 -15.067   4.171  1.00  0.00    -0.015 A 
HETATM   12  C   UNL     1      42.787 -14.193   3.270  1.00  0.00     0.075 A 
HETATM   13  C   UNL     1      42.751 -14.441   1.886  1.00  0.00     0.037 A 
HETATM   14  C   UNL     1      42.057 -15.532   1.370  1.00  0.00     0.003 A 
HETATM   15  C   UNL     1      41.375 -16.376   2.228  1.00  0.00     0.001 A 
HETATM   16  C   UNL     1      41.401 -16.140   3.604  1.00  0.00     0.011 A 
BRANCH  12  17
HETATM   17  O   UNL     1      43.401 -13.087   3.799  1.00  0.00    -0.355 OA
HETATM   18  C   UNL     1      43.330 -11.870   3.068  1.00  0.00     0.210 C 
ENDBRANCH  12  17
ENDBRANCH   6  11
ENDBRANCH   5   6
ENDBRANCH   2   5
BRANCH   1  19
HETATM   19  C   UNL     1      42.350 -10.085   6.497  1.00  0.00     0.107 C 
BRANCH  19  20
HETATM   20  C   UNL     1      43.034 -10.362   7.832  1.00  0.00     0.052 C 
BRANCH  20  21
HETATM   21  C   UNL     1      44.371  -9.701   7.921  1.00  0.00    -0.008 A 
HETATM   22  C   UNL     1      45.588 -10.147   7.439  1.00  0.00     0.032 A 
HETATM   23  C   UNL     1      45.978 -11.371   6.702  1.00  0.00     0.070 C 
HETATM   24  N   UNL     1      46.500  -9.188   7.781  1.00  0.00    -0.282 N 
HETATM   25  H   UNL     1      47.496  -9.172   7.589  1.00  0.00     0.189 HD
HETATM   26  N   UNL     1      45.974  -8.158   8.454  1.00  0.00    -0.179 NA
HETATM   27  C   UNL     1      44.673  -8.453   8.538  1.00  0.00     0.059 A 
HETATM   28  C   UNL     1      43.738  -7.525   9.225  1.00  0.00     0.073 C 
ENDBRANCH  20  21
ENDBRANCH  19  20
ENDBRANCH   1  19
TORSDOF 7
ENDMDL
MODEL 6
REMARK VINA RESULT:      -7.2      2.185      3.064
REMARK  7 active torsions:
REMARK  status: ('A' for Active; 'I' for Inactive)
REMARK    1  A    between atoms: C_8  and  C_9 
REMARK    2  A    between atoms: C_9  and  C_10 
REMARK    3  A    between atoms: C_10  and  C_11 
REMARK       I    between atoms: C_11  and  N_12 
REMARK    4  A    between atoms: N_12  and  C_13 
REMARK    5  A    between atoms: C_13  and  C_14 
REMARK    6  A    between atoms: C_14  and  C_15 
REMARK    7  A    between atoms: C_16  and  O_17 
ROOT
HETATM    1  C   UNL     1      42.950 -11.636   3.641  1.00  0.00     0.217 C 
HETATM    2  N   UNL     1      43.087 -12.995   3.820  1.00  0.00    -0.360 N 
HETATM    3  O   UNL     1      42.818 -11.100   2.546  1.00  0.00    -0.274 OA
HETATM    4  H   UNL     1      43.352 -13.331   4.738  1.00  0.00     0.162 HD
ENDROOT
BRANCH   2   5
HETATM    5  C   UNL     1      43.243 -13.912   2.707  1.00  0.00     0.137 C 
BRANCH   5   6
HETATM    6  C   UNL     1      42.202 -15.064   2.671  1.00  0.00     0.005 C 
HETATM    7  C   UNL     1      40.876 -14.686   3.390  1.00  0.00     0.016 C 
HETATM    8  C   UNL     1      39.820 -15.612   2.788  1.00  0.00     0.001 C 
HETATM    9  C   UNL     1      40.295 -15.898   1.368  1.00  0.00     0.001 C 
HETATM   10  C   UNL     1      41.610 -15.136   1.227  1.00  0.00     0.016 C 
BRANCH   6  11
HETATM   11  C   UNL     1      42.846 -16.392   3.155  1.00  0.00    -0.015 A 
HETATM   12  C   UNL     1      43.234 -16.629   4.498  1.00  0.00     0.075 A 
HETATM   13  C   UNL     1      43.816 -17.856   4.863  1.00  0.00     0.037 A 
HETATM   14  C   UNL     1      44.042 -18.853   3.918  1.00  0.00     0.003 A 
HETATM   15  C   UNL     1      43.707 -18.628   2.594  1.00  0.00     0.001 A 
HETATM   16  C   UNL     1      43.129 -17.413   2.219  1.00  0.00     0.011 A 
BRANCH  12  17
HETATM   17  O   UNL     1      43.067 -15.604   5.394  1.00  0.00    -0.355 OA
HETATM   18  C   UNL     1      43.999 -15.491   6.461  1.00  0.00     0.210 C 
ENDBRANCH  12  17
ENDBRANCH   6  11
ENDBRANCH   5   6
ENDBRANCH   2   5
BRANCH   1  19
HETATM   19  C   UNL     1      42.895 -10.873   4.948  1.00  0.00     0.107 C 
BRANCH  19  20
HETATM   20  C   UNL     1      41.874  -9.741   4.894  1.00  0.00     0.052 C 
BRANCH  20  21
HETATM   21  C   UNL     1      40.586 -10.121   5.549  1.00  0.00    -0.008 A 
HETATM   22  C   UNL     1      39.506 -10.792   5.006  1.00  0.00     0.032 A 
HETATM   23  C   UNL     1      39.255 -11.345   3.656  1.00  0.00     0.070 C 
HETATM   24  N   UNL     1      38.581 -10.885   6.009  1.00  0.00    -0.282 N 
HETATM   25  H   UNL     1      37.664 -11.318   5.978  1.00  0.00     0.189 HD
HETATM   26  N   UNL     1      38.971 -10.321   7.158  1.00  0.00    -0.179 NA
HETATM   27  C   UNL     1      40.197  -9.858   6.894  1.00  0.00     0.059 A 
HETATM   28  C   UNL     1      40.975  -9.159   7.949  1.00  0.00     0.073 C 
ENDBRANCH  20  21
ENDBRANCH  19  20
ENDBRANCH   1  19
TORSDOF 7
ENDMDL
MODEL 7
REMARK VINA RESULT:      -7.2      2.721      4.283
REMARK  7 active torsions:
REMARK  status: ('A' for Active; 'I' for Inactive)
REMARK    1  A    between atoms: C_8  and  C_9 
REMARK    2  A    between atoms: C_9  and  C_10 
REMARK    3  A    between atoms: C_10  and  C_11 
REMARK       I    between atoms: C_11  and  N_12 
REMARK    4  A    between atoms: N_12  and  C_13 
REMARK    5  A    between atoms: C_13  and  C_14 
REMARK    6  A    between atoms: C_14  and  C_15 
REMARK    7  A    between atoms: C_16  and  O_17 
ROOT
HETATM    1  C   UNL     1      42.154 -11.428   4.727  1.00  0.00     0.217 C 
HETATM    2  N   UNL     1      42.945 -12.513   5.037  1.00  0.00    -0.360 N 
HETATM    3  O   UNL     1      41.302 -11.433   3.845  1.00  0.00    -0.274 OA
HETATM    4  H   UNL     1      43.727 -12.369   5.664  1.00  0.00     0.162 HD
ENDROOT
BRANCH   2   5
HETATM    5  C   UNL     1      42.949 -13.724   4.239  1.00  0.00     0.137 C 
BRANCH   5   6
HETATM    6  C   UNL     1      42.471 -14.994   4.993  1.00  0.00     0.005 C 
HETATM    7  C   UNL     1      42.873 -14.977   6.495  1.00  0.00     0.016 C 
HETATM    8  C   UNL     1      41.886 -15.919   7.182  1.00  0.00     0.001 C 
HETATM    9  C   UNL     1      40.609 -15.843   6.351  1.00  0.00     0.001 C 
HETATM   10  C   UNL     1      40.929 -14.871   5.218  1.00  0.00     0.016 C 
BRANCH   6  11
HETATM   11  C   UNL     1      42.895 -16.274   4.222  1.00  0.00    -0.015 A 
HETATM   12  C   UNL     1      42.298 -16.687   3.004  1.00  0.00     0.075 A 
HETATM   13  C   UNL     1      42.731 -17.861   2.363  1.00  0.00     0.037 A 
HETATM   14  C   UNL     1      43.737 -18.651   2.915  1.00  0.00     0.003 A 
HETATM   15  C   UNL     1      44.307 -18.286   4.122  1.00  0.00     0.001 A 
HETATM   16  C   UNL     1      43.884 -17.124   4.769  1.00  0.00     0.011 A 
BRANCH  12  17
HETATM   17  O   UNL     1      41.260 -15.931   2.521  1.00  0.00    -0.355 OA
HETATM   18  C   UNL     1      41.446 -15.254   1.285  1.00  0.00     0.210 C 
ENDBRANCH  12  17
ENDBRANCH   6  11
ENDBRANCH   5   6
ENDBRANCH   2   5
BRANCH   1  19
HETATM   19  C   UNL     1      42.387 -10.248   5.646  1.00  0.00     0.107 C 
BRANCH  19  20
HETATM   20  C   UNL     1      42.868 -10.696   7.023  1.00  0.00     0.052 C 
BRANCH  20  21
HETATM   21  C   UNL     1      44.000  -9.856   7.518  1.00  0.00    -0.008 A 
HETATM   22  C   UNL     1      45.358 -10.110   7.451  1.00  0.00     0.032 A 
HETATM   23  C   UNL     1      46.131 -11.242   6.893  1.00  0.00     0.070 C 
HETATM   24  N   UNL     1      45.968  -9.042   8.048  1.00  0.00    -0.282 N 
HETATM   25  H   UNL     1      46.961  -8.880   8.180  1.00  0.00     0.189 HD
HETATM   26  N   UNL     1      45.115  -8.119   8.506  1.00  0.00    -0.179 NA
HETATM   27  C   UNL     1      43.910  -8.598   8.181  1.00  0.00     0.059 A 
HETATM   28  C   UNL     1      42.683  -7.833   8.524  1.00  0.00     0.073 C 
ENDBRANCH  20  21
ENDBRANCH  19  20
ENDBRANCH   1  19
TORSDOF 7
ENDMDL
MODEL 8
REMARK VINA RESULT:      -7.1      2.514      4.018
REMARK  7 active torsions:
REMARK  status: ('A' for Active; 'I' for Inactive)
REMARK    1  A    between atoms: C_8  and  C_9 
REMARK    2  A    between atoms: C_9  and  C_10 
REMARK    3  A    between atoms: C_10  and  C_11 
REMARK       I    between atoms: C_11  and  N_12 
REMARK    4  A    between atoms: N_12  and  C_13 
REMARK    5  A    between atoms: C_13  and  C_14 
REMARK    6  A    between atoms: C_14  and  C_15 
REMARK    7  A    between atoms: C_16  and  O_17 
ROOT
HETATM    1  C   UNL     1      40.120 -12.260   6.185  1.00  0.00     0.217 C 
HETATM    2  N   UNL     1      41.149 -13.175   6.253  1.00  0.00    -0.360 N 
HETATM    3  O   UNL     1      38.967 -12.548   5.883  1.00  0.00    -0.274 OA
HETATM    4  H   UNL     1      42.093 -12.824   6.352  1.00  0.00     0.162 HD
ENDROOT
BRANCH   2   5
HETATM    5  C   UNL     1      40.993 -14.550   5.821  1.00  0.00     0.137 C 
BRANCH   5   6
HETATM    6  C   UNL     1      42.326 -15.329   5.657  1.00  0.00     0.005 C 
HETATM    7  C   UNL     1      43.477 -14.718   6.506  1.00  0.00     0.016 C 
HETATM    8  C   UNL     1      44.475 -15.859   6.702  1.00  0.00     0.001 C 
HETATM    9  C   UNL     1      43.641 -17.135   6.678  1.00  0.00     0.001 C 
HETATM   10  C   UNL     1      42.205 -16.668   6.453  1.00  0.00     0.016 C 
BRANCH   6  11
HETATM   11  C   UNL     1      42.662 -15.519   4.153  1.00  0.00    -0.015 A 
HETATM   12  C   UNL     1      42.909 -14.441   3.264  1.00  0.00     0.075 A 
HETATM   13  C   UNL     1      43.203 -14.689   1.912  1.00  0.00     0.037 A 
HETATM   14  C   UNL     1      43.240 -15.988   1.411  1.00  0.00     0.003 A 
HETATM   15  C   UNL     1      42.964 -17.052   2.251  1.00  0.00     0.001 A 
HETATM   16  C   UNL     1      42.669 -16.819   3.596  1.00  0.00     0.011 A 
BRANCH  12  17
HETATM   17  O   UNL     1      42.794 -13.170   3.767  1.00  0.00    -0.355 OA
HETATM   18  C   UNL     1      43.718 -12.188   3.317  1.00  0.00     0.210 C 
ENDBRANCH  12  17
ENDBRANCH   6  11
ENDBRANCH   5   6
ENDBRANCH   2   5
BRANCH   1  19
HETATM   19  C   UNL     1      40.543 -10.868   6.605  1.00  0.00     0.107 C 
BRANCH  19  20
HETATM   20  C   UNL     1      41.909 -10.501   6.035  1.00  0.00     0.052 C 
BRANCH  20  21
HETATM   21  C   UNL     1      42.714  -9.687   6.997  1.00  0.00    -0.008 A 
HETATM   22  C   UNL     1      42.510  -8.382   7.404  1.00  0.00     0.032 A 
HETATM   23  C   UNL     1      41.478  -7.380   7.055  1.00  0.00     0.070 C 
HETATM   24  N   UNL     1      43.520  -8.103   8.283  1.00  0.00    -0.282 N 
HETATM   25  H   UNL     1      43.692  -7.240   8.788  1.00  0.00     0.189 HD
HETATM   26  N   UNL     1      44.368  -9.120   8.471  1.00  0.00    -0.179 NA
HETATM   27  C   UNL     1      43.883 -10.098   7.699  1.00  0.00     0.059 A 
HETATM   28  C   UNL     1      44.564 -11.417   7.646  1.00  0.00     0.073 C 
ENDBRANCH  20  21
ENDBRANCH  19  20
ENDBRANCH   1  19
TORSDOF 7
ENDMDL
MODEL 9
REMARK VINA RESULT:      -6.9      3.444      5.293
REMARK  7 active torsions:
REMARK  status: ('A' for Active; 'I' for Inactive)
REMARK    1  A    between atoms: C_8  and  C_9 
REMARK    2  A    between atoms: C_9  and  C_10 
REMARK    3  A    between atoms: C_10  and  C_11 
REMARK       I    between atoms: C_11  and  N_12 
REMARK    4  A    between atoms: N_12  and  C_13 
REMARK    5  A    between atoms: C_13  and  C_14 
REMARK    6  A    between atoms: C_14  and  C_15 
REMARK    7  A    between atoms: C_16  and  O_17 
ROOT
HETATM    1  C   UNL     1      38.751 -11.605   2.481  1.00  0.00     0.217 C 
HETATM    2  N   UNL     1      39.561 -12.711   2.625  1.00  0.00    -0.360 N 
HETATM    3  O   UNL     1      38.622 -10.736   3.336  1.00  0.00    -0.274 OA
HETATM    4  H   UNL     1      39.481 -13.452   1.940  1.00  0.00     0.162 HD
ENDROOT
BRANCH   2   5
HETATM    5  C   UNL     1      40.223 -13.029   3.875  1.00  0.00     0.137 C 
BRANCH   5   6
HETATM    6  C   UNL     1      41.774 -13.036   3.799  1.00  0.00     0.005 C 
HETATM    7  C   UNL     1      42.333 -11.822   3.005  1.00  0.00     0.016 C 
HETATM    8  C   UNL     1      43.768 -11.650   3.500  1.00  0.00     0.001 C 
HETATM    9  C   UNL     1      43.763 -12.156   4.939  1.00  0.00     0.001 C 
HETATM   10  C   UNL     1      42.329 -12.609   5.196  1.00  0.00     0.016 C 
BRANCH   6  11
HETATM   11  C   UNL     1      42.287 -14.419   3.314  1.00  0.00    -0.015 A 
HETATM   12  C   UNL     1      42.195 -15.604   4.090  1.00  0.00     0.075 A 
HETATM   13  C   UNL     1      42.684 -16.822   3.587  1.00  0.00     0.037 A 
HETATM   14  C   UNL     1      43.284 -16.891   2.332  1.00  0.00     0.003 A 
HETATM   15  C   UNL     1      43.419 -15.741   1.575  1.00  0.00     0.001 A 
HETATM   16  C   UNL     1      42.938 -14.525   2.064  1.00  0.00     0.011 A 
BRANCH  12  17
HETATM   17  O   UNL     1      41.666 -15.492   5.351  1.00  0.00    -0.355 OA
HETATM   18  C   UNL     1      40.526 -16.281   5.669  1.00  0.00     0.210 C 
ENDBRANCH  12  17
ENDBRANCH   6  11
ENDBRANCH   5   6
ENDBRANCH   2   5
BRANCH   1  19
HETATM   19  C   UNL     1      38.096 -11.529   1.118  1.00  0.00     0.107 C 
BRANCH  19  20
HETATM   20  C   UNL     1      39.123 -11.642  -0.004  1.00  0.00     0.052 C 
BRANCH  20  21
HETATM   21  C   UNL     1      38.758 -12.704  -0.990  1.00  0.00    -0.008 A 
HETATM   22  C   UNL     1      39.171 -14.023  -1.031  1.00  0.00     0.032 A 
HETATM   23  C   UNL     1      40.072 -14.810  -0.160  1.00  0.00     0.070 C 
HETATM   24  N   UNL     1      38.562 -14.571  -2.125  1.00  0.00    -0.282 N 
HETATM   25  H   UNL     1      38.628 -15.524  -2.468  1.00  0.00     0.189 HD
HETATM   26  N   UNL     1      37.792 -13.712  -2.803  1.00  0.00    -0.179 NA
HETATM   27  C   UNL     1      37.895 -12.570  -2.116  1.00  0.00     0.059 A 
HETATM   28  C   UNL     1      37.161 -11.359  -2.564  1.00  0.00     0.073 C 
ENDBRANCH  20  21
ENDBRANCH  19  20
ENDBRANCH   1  19
TORSDOF 7
ENDMDL
MODEL 10
REMARK VINA RESULT:      -6.9      3.804      5.364
REMARK  7 active torsions:
REMARK  status: ('A' for Active; 'I' for Inactive)
REMARK    1  A    between atoms: C_8  and  C_9 
REMARK    2  A    between atoms: C_9  and  C_10 
REMARK    3  A    between atoms: C_10  and  C_11 
REMARK       I    between atoms: C_11  and  N_12 
REMARK    4  A    between atoms: N_12  and  C_13 
REMARK    5  A    between atoms: C_13  and  C_14 
REMARK    6  A    between atoms: C_14  and  C_15 
REMARK    7  A    between atoms: C_16  and  O_17 
ROOT
HETATM    1  C   UNL     1      44.916 -11.466   6.996  1.00  0.00     0.217 C 
HETATM    2  N   UNL     1      44.027 -12.487   7.257  1.00  0.00    -0.360 N 
HETATM    3  O   UNL     1      45.680 -11.453   6.037  1.00  0.00    -0.274 OA
HETATM    4  H   UNL     1      43.555 -12.490   8.152  1.00  0.00     0.162 HD
ENDROOT
BRANCH   2   5
HETATM    5  C   UNL     1      44.021 -13.723   6.498  1.00  0.00     0.137 C 
BRANCH   5   6
HETATM    6  C   UNL     1      42.657 -14.069   5.842  1.00  0.00     0.005 C 
HETATM    7  C   UNL     1      41.750 -14.918   6.777  1.00  0.00     0.016 C 
HETATM    8  C   UNL     1      40.326 -14.678   6.276  1.00  0.00     0.001 C 
HETATM    9  C   UNL     1      40.339 -13.274   5.680  1.00  0.00     0.001 C 
HETATM   10  C   UNL     1      41.773 -12.780   5.854  1.00  0.00     0.016 C 
BRANCH   6  11
HETATM   11  C   UNL     1      42.873 -14.672   4.427  1.00  0.00    -0.015 A 
HETATM   12  C   UNL     1      43.159 -16.042   4.196  1.00  0.00     0.075 A 
HETATM   13  C   UNL     1      43.347 -16.516   2.886  1.00  0.00     0.037 A 
HETATM   14  C   UNL     1      43.277 -15.656   1.793  1.00  0.00     0.003 A 
HETATM   15  C   UNL     1      43.037 -14.309   1.999  1.00  0.00     0.001 A 
HETATM   16  C   UNL     1      42.850 -13.825   3.295  1.00  0.00     0.011 A 
BRANCH  12  17
HETATM   17  O   UNL     1      43.295 -16.852   5.294  1.00  0.00    -0.355 OA
HETATM   18  C   UNL     1      44.040 -18.054   5.149  1.00  0.00     0.210 C 
ENDBRANCH  12  17
ENDBRANCH   6  11
ENDBRANCH   5   6
ENDBRANCH   2   5
BRANCH   1  19
HETATM   19  C   UNL     1      44.795 -10.317   7.974  1.00  0.00     0.107 C 
BRANCH  19  20
HETATM   20  C   UNL     1      43.354 -10.122   8.435  1.00  0.00     0.052 C 
BRANCH  20  21
HETATM   21  C   UNL     1      43.268  -9.243   9.640  1.00  0.00    -0.008 A 
HETATM   22  C   UNL     1      43.422  -9.586  10.971  1.00  0.00     0.032 A 
HETATM   23  C   UNL     1      43.713 -10.874  11.639  1.00  0.00     0.070 C 
HETATM   24  N   UNL     1      43.244  -8.429  11.678  1.00  0.00    -0.282 N 
HETATM   25  H   UNL     1      43.287  -8.294  12.682  1.00  0.00     0.189 HD
HETATM   26  N   UNL     1      42.977  -7.364  10.913  1.00  0.00    -0.179 NA
HETATM   27  C   UNL     1      42.998  -7.844   9.665  1.00  0.00     0.059 A 
HETATM   28  C   UNL     1      42.748  -6.942   8.512  1.00  0.00     0.073 C 
ENDBRANCH  20  21
ENDBRANCH  19  20
ENDBRANCH   1  19
TORSDOF 7
ENDMDL
