MODEL 1
REMARK VINA RESULT:      -9.2      0.000      0.000
REMARK  5 active torsions:
REMARK  status: ('A' for Active; 'I' for Inactive)
REMARK    1  A    between atoms: C_2  and  C_3 
REMARK    2  A    between atoms: N_12  and  N_13 
REMARK       I    between atoms: N_13  and  C_14 
REMARK    3  A    between atoms: C_14  and  C_15 
REMARK    4  A    between atoms: C_15  and  N_16 
REMARK       I    between atoms: N_16  and  C_17 
REMARK    5  A    between atoms: C_17  and  C_18 
ROOT
HETATM    1  N   UNL     1      44.125 -13.197   6.739  1.00  0.00    -0.255 N 
HETATM    2  C   UNL     1      43.577 -11.929   6.742  1.00  0.00     0.254 C 
HETATM    3  O   UNL     1      42.378 -11.692   6.607  1.00  0.00    -0.270 OA
HETATM    4  H   UNL     1      45.121 -13.296   6.520  1.00  0.00     0.191 HD
ENDROOT
BRANCH   1   5
HETATM    5  N   UNL     1      43.304 -14.254   6.394  1.00  0.00    -0.167 N 
HETATM    6  C   UNL     1      42.943 -15.249   7.260  1.00  0.00     0.345 A 
HETATM    7  N   UNL     1      42.205 -16.176   6.550  1.00  0.00    -0.319 N 
HETATM    8  O   UNL     1      43.205 -15.350   8.448  1.00  0.00    -0.245 OA
HETATM    9  C   UNL     1      42.182 -15.888   5.124  1.00  0.00     0.141 A 
HETATM   10  H   UNL     1      41.981 -17.071   6.965  1.00  0.00     0.166 HD
HETATM   11  C   UNL     1      40.747 -15.610   4.656  1.00  0.00     0.055 C 
HETATM   12  C   UNL     1      42.940 -14.536   5.100  1.00  0.00     0.279 A 
HETATM   13  O   UNL     1      43.153 -13.850   4.106  1.00  0.00    -0.268 OA
BRANCH   9  14
HETATM   14  C   UNL     1      42.855 -17.027   4.364  1.00  0.00    -0.021 A 
HETATM   15  C   UNL     1      42.559 -17.242   3.003  1.00  0.00     0.010 A 
HETATM   16  C   UNL     1      43.146 -18.288   2.288  1.00  0.00     0.001 A 
HETATM   17  C   UNL     1      44.035 -19.150   2.920  1.00  0.00     0.000 A 
HETATM   18  C   UNL     1      44.330 -18.971   4.267  1.00  0.00     0.001 A 
HETATM   19  C   UNL     1      43.741 -17.924   4.985  1.00  0.00     0.010 A 
ENDBRANCH   9  14
ENDBRANCH   1   5
BRANCH   2  20
HETATM   20  C   UNL     1      44.611 -10.823   6.962  1.00  0.00     0.227 C 
BRANCH  20  21
HETATM   21  N   UNL     1      44.188  -9.841   7.949  1.00  0.00    -0.348 N 
HETATM   22  C   UNL     1      44.545  -9.965   9.275  1.00  0.00     0.252 C 
HETATM   23  O   UNL     1      45.346 -10.817   9.652  1.00  0.00    -0.268 OA
HETATM   24  H   UNL     1      43.443  -9.214   7.681  1.00  0.00     0.163 HD
BRANCH  22  25
HETATM   25  C   UNL     1      43.903  -9.039  10.248  1.00  0.00     0.033 A 
HETATM   26  C   UNL     1      43.388  -7.831   9.761  1.00  0.00     0.036 A 
HETATM   27  C   UNL     1      42.794  -6.924  10.638  1.00  0.00     0.012 A 
HETATM   28 BR   UNL     1      42.109  -5.290   9.979  1.00  0.00    -0.051 Br
HETATM   29  C   UNL     1      42.703  -7.211  11.999  1.00  0.00     0.019 A 
HETATM   30  C   UNL     1      43.198  -8.421  12.486  1.00  0.00     0.002 A 
HETATM   31  C   UNL     1      43.793  -9.338  11.613  1.00  0.00     0.017 A 
ENDBRANCH  22  25
ENDBRANCH  20  21
ENDBRANCH   2  20
TORSDOF 5
ENDMDL
MODEL 2
REMARK VINA RESULT:      -9.0      2.655      3.847
REMARK  5 active torsions:
REMARK  status: ('A' for Active; 'I' for Inactive)
REMARK    1  A    between atoms: C_2  and  C_3 
REMARK    2  A    between atoms: N_12  and  N_13 
REMARK       I    between atoms: N_13  and  C_14 
REMARK    3  A    between atoms: C_14  and  C_15 
REMARK    4  A    between atoms: C_15  and  N_16 
REMARK       I    between atoms: N_16  and  C_17 
REMARK    5  A    between atoms: C_17  and  C_18 
ROOT
HETATM    1  N   UNL     1      40.687 -14.265   4.644  1.00  0.00    -0.255 N 
HETATM    2  C   UNL     1      40.673 -12.902   4.421  1.00  0.00     0.254 C 
HETATM    3  O   UNL     1      40.982 -12.371   3.356  1.00  0.00    -0.270 OA
HETATM    4  H   UNL     1      40.747 -14.600   5.610  1.00  0.00     0.191 HD
ENDROOT
BRANCH   1   5
HETATM    5  N   UNL     1      41.243 -15.074   3.670  1.00  0.00    -0.167 N 
HETATM    6  C   UNL     1      40.508 -15.788   2.765  1.00  0.00     0.345 A 
HETATM    7  N   UNL     1      41.386 -16.548   2.017  1.00  0.00    -0.319 N 
HETATM    8  O   UNL     1      39.297 -15.795   2.610  1.00  0.00    -0.245 OA
HETATM    9  C   UNL     1      42.750 -16.468   2.518  1.00  0.00     0.141 A 
HETATM   10  H   UNL     1      41.036 -17.271   1.403  1.00  0.00     0.166 HD
HETATM   11  C   UNL     1      43.675 -15.850   1.461  1.00  0.00     0.055 C 
HETATM   12  C   UNL     1      42.573 -15.414   3.641  1.00  0.00     0.279 A 
HETATM   13  O   UNL     1      43.466 -14.966   4.352  1.00  0.00    -0.268 OA
BRANCH   9  14
HETATM   14  C   UNL     1      43.203 -17.848   2.984  1.00  0.00    -0.021 A 
HETATM   15  C   UNL     1      43.070 -18.963   2.132  1.00  0.00     0.010 A 
HETATM   16  C   UNL     1      43.459 -20.240   2.540  1.00  0.00     0.001 A 
HETATM   17  C   UNL     1      43.979 -20.436   3.814  1.00  0.00     0.000 A 
HETATM   18  C   UNL     1      44.103 -19.355   4.681  1.00  0.00     0.001 A 
HETATM   19  C   UNL     1      43.713 -18.075   4.274  1.00  0.00     0.010 A 
ENDBRANCH   9  14
ENDBRANCH   1   5
BRANCH   2  20
HETATM   20  C   UNL     1      40.200 -12.096   5.631  1.00  0.00     0.227 C 
BRANCH  20  21
HETATM   21  N   UNL     1      41.274 -11.800   6.568  1.00  0.00    -0.348 N 
HETATM   22  C   UNL     1      42.037 -10.660   6.439  1.00  0.00     0.252 C 
HETATM   23  O   UNL     1      41.756  -9.782   5.627  1.00  0.00    -0.268 OA
HETATM   24  H   UNL     1      41.590 -12.558   7.157  1.00  0.00     0.163 HD
BRANCH  22  25
HETATM   25  C   UNL     1      43.241 -10.536   7.308  1.00  0.00     0.033 A 
HETATM   26  C   UNL     1      43.075  -9.969   8.578  1.00  0.00     0.036 A 
HETATM   27  C   UNL     1      44.177  -9.817   9.419  1.00  0.00     0.012 A 
HETATM   28 BR   UNL     1      43.953  -9.042  11.129  1.00  0.00    -0.051 Br
HETATM   29  C   UNL     1      45.444 -10.229   9.009  1.00  0.00     0.019 A 
HETATM   30  C   UNL     1      45.609 -10.811   7.752  1.00  0.00     0.002 A 
HETATM   31  C   UNL     1      44.510 -10.971   6.903  1.00  0.00     0.017 A 
ENDBRANCH  22  25
ENDBRANCH  20  21
ENDBRANCH   2  20
TORSDOF 5
ENDMDL
MODEL 3
REMARK VINA RESULT:      -9.0      2.223      2.476
REMARK  5 active torsions:
REMARK  status: ('A' for Active; 'I' for Inactive)
REMARK    1  A    between atoms: C_2  and  C_3 
REMARK    2  A    between atoms: N_12  and  N_13 
REMARK       I    between atoms: N_13  and  C_14 
REMARK    3  A    between atoms: C_14  and  C_15 
REMARK    4  A    between atoms: C_15  and  N_16 
REMARK       I    between atoms: N_16  and  C_17 
REMARK    5  A    between atoms: C_17  and  C_18 
ROOT
HETATM    1  N   UNL     1      41.583 -12.144   5.007  1.00  0.00    -0.255 N 
HETATM    2  C   UNL     1      42.649 -12.032   5.879  1.00  0.00     0.254 C 
HETATM    3  O   UNL     1      43.371 -12.969   6.214  1.00  0.00    -0.270 OA
HETATM    4  H   UNL     1      40.850 -11.430   5.040  1.00  0.00     0.191 HD
ENDROOT
BRANCH   1   5
HETATM    5  N   UNL     1      41.197 -13.414   4.619  1.00  0.00    -0.167 N 
HETATM    6  C   UNL     1      40.498 -14.273   5.420  1.00  0.00     0.345 A 
HETATM    7  N   UNL     1      40.375 -15.472   4.745  1.00  0.00    -0.319 N 
HETATM    8  O   UNL     1      40.049 -14.070   6.537  1.00  0.00    -0.245 OA
HETATM    9  C   UNL     1      41.137 -15.487   3.506  1.00  0.00     0.141 A 
HETATM   10  H   UNL     1      40.034 -16.293   5.226  1.00  0.00     0.166 HD
HETATM   11  C   UNL     1      40.202 -15.657   2.301  1.00  0.00     0.055 C 
HETATM   12  C   UNL     1      41.655 -14.026   3.478  1.00  0.00     0.279 A 
HETATM   13  O   UNL     1      42.333 -13.522   2.590  1.00  0.00    -0.268 OA
BRANCH   9  14
HETATM   14  C   UNL     1      42.219 -16.561   3.588  1.00  0.00    -0.021 A 
HETATM   15  C   UNL     1      42.383 -17.481   2.533  1.00  0.00     0.010 A 
HETATM   16  C   UNL     1      43.352 -18.486   2.590  1.00  0.00     0.001 A 
HETATM   17  C   UNL     1      44.171 -18.600   3.707  1.00  0.00     0.000 A 
HETATM   18  C   UNL     1      44.017 -17.715   4.769  1.00  0.00     0.001 A 
HETATM   19  C   UNL     1      43.046 -16.709   4.714  1.00  0.00     0.010 A 
ENDBRANCH   9  14
ENDBRANCH   1   5
BRANCH   2  20
HETATM   20  C   UNL     1      42.875 -10.604   6.377  1.00  0.00     0.227 C 
BRANCH  20  21
HETATM   21  N   UNL     1      42.690 -10.470   7.815  1.00  0.00    -0.348 N 
HETATM   22  C   UNL     1      42.629  -9.231   8.412  1.00  0.00     0.252 C 
HETATM   23  O   UNL     1      42.581  -8.196   7.752  1.00  0.00    -0.268 OA
HETATM   24  H   UNL     1      42.847 -11.297   8.375  1.00  0.00     0.163 HD
BRANCH  22  25
HETATM   25  C   UNL     1      42.648  -9.184   9.901  1.00  0.00     0.033 A 
HETATM   26  C   UNL     1      41.505  -9.619  10.584  1.00  0.00     0.036 A 
HETATM   27  C   UNL     1      41.469  -9.576  11.977  1.00  0.00     0.012 A 
HETATM   28 BR   UNL     1      39.922 -10.154  12.896  1.00  0.00    -0.051 Br
HETATM   29  C   UNL     1      42.566  -9.108  12.699  1.00  0.00     0.019 A 
HETATM   30  C   UNL     1      43.714  -8.691  12.024  1.00  0.00     0.002 A 
HETATM   31  C   UNL     1      43.759  -8.733  10.627  1.00  0.00     0.017 A 
ENDBRANCH  22  25
ENDBRANCH  20  21
ENDBRANCH   2  20
TORSDOF 5
ENDMDL
MODEL 4
REMARK VINA RESULT:      -9.0      2.293      2.949
REMARK  5 active torsions:
REMARK  status: ('A' for Active; 'I' for Inactive)
REMARK    1  A    between atoms: C_2  and  C_3 
REMARK    2  A    between atoms: N_12  and  N_13 
REMARK       I    between atoms: N_13  and  C_14 
REMARK    3  A    between atoms: C_14  and  C_15 
REMARK    4  A    between atoms: C_15  and  N_16 
REMARK       I    between atoms: N_16  and  C_17 
REMARK    5  A    between atoms: C_17  and  C_18 
ROOT
HETATM    1  N   UNL     1      41.670 -12.405   5.009  1.00  0.00    -0.255 N 
HETATM    2  C   UNL     1      40.919 -11.307   4.638  1.00  0.00     0.254 C 
HETATM    3  O   UNL     1      39.831 -11.372   4.070  1.00  0.00    -0.270 OA
HETATM    4  H   UNL     1      42.675 -12.279   5.160  1.00  0.00     0.191 HD
ENDROOT
BRANCH   1   5
HETATM    5  N   UNL     1      41.259 -13.649   4.566  1.00  0.00    -0.167 N 
HETATM    6  C   UNL     1      40.514 -14.514   5.318  1.00  0.00     0.345 A 
HETATM    7  N   UNL     1      40.375 -15.684   4.597  1.00  0.00    -0.319 N 
HETATM    8  O   UNL     1      40.040 -14.337   6.429  1.00  0.00    -0.245 OA
HETATM    9  C   UNL     1      41.171 -15.679   3.379  1.00  0.00     0.141 A 
HETATM   10  H   UNL     1      39.998 -16.511   5.039  1.00  0.00     0.166 HD
HETATM   11  C   UNL     1      40.264 -15.779   2.144  1.00  0.00     0.055 C 
HETATM   12  C   UNL     1      41.730 -14.234   3.417  1.00  0.00     0.279 A 
HETATM   13  O   UNL     1      42.446 -13.719   2.565  1.00  0.00    -0.268 OA
BRANCH   9  14
HETATM   14  C   UNL     1      42.218 -16.786   3.450  1.00  0.00    -0.021 A 
HETATM   15  C   UNL     1      43.077 -16.876   4.564  1.00  0.00     0.010 A 
HETATM   16  C   UNL     1      44.058 -17.867   4.647  1.00  0.00     0.001 A 
HETATM   17  C   UNL     1      44.210 -18.784   3.613  1.00  0.00     0.000 A 
HETATM   18  C   UNL     1      43.387 -18.705   2.494  1.00  0.00     0.001 A 
HETATM   19  C   UNL     1      42.405 -17.712   2.409  1.00  0.00     0.010 A 
ENDBRANCH   9  14
ENDBRANCH   1   5
BRANCH   2  20
HETATM   20  C   UNL     1      41.560  -9.975   5.031  1.00  0.00     0.227 C 
BRANCH  20  21
HETATM   21  N   UNL     1      42.475 -10.097   6.156  1.00  0.00    -0.348 N 
HETATM   22  C   UNL     1      42.078  -9.776   7.436  1.00  0.00     0.252 C 
HETATM   23  O   UNL     1      40.907  -9.515   7.703  1.00  0.00    -0.268 OA
HETATM   24  H   UNL     1      43.457 -10.192   5.939  1.00  0.00     0.163 HD
BRANCH  22  25
HETATM   25  C   UNL     1      43.128  -9.730   8.491  1.00  0.00     0.033 A 
HETATM   26  C   UNL     1      42.785  -9.180   9.732  1.00  0.00     0.036 A 
HETATM   27  C   UNL     1      43.740  -9.099  10.744  1.00  0.00     0.012 A 
HETATM   28 BR   UNL     1      43.277  -8.347  12.416  1.00  0.00    -0.051 Br
HETATM   29  C   UNL     1      45.036  -9.568  10.534  1.00  0.00     0.019 A 
HETATM   30  C   UNL     1      45.377 -10.133   9.305  1.00  0.00     0.002 A 
HETATM   31  C   UNL     1      44.425 -10.220   8.285  1.00  0.00     0.017 A 
ENDBRANCH  22  25
ENDBRANCH  20  21
ENDBRANCH   2  20
TORSDOF 5
ENDMDL
MODEL 5
REMARK VINA RESULT:      -8.7      3.848      9.441
REMARK  5 active torsions:
REMARK  status: ('A' for Active; 'I' for Inactive)
REMARK    1  A    between atoms: C_2  and  C_3 
REMARK    2  A    between atoms: N_12  and  N_13 
REMARK       I    between atoms: N_13  and  C_14 
REMARK    3  A    between atoms: C_14  and  C_15 
REMARK    4  A    between atoms: C_15  and  N_16 
REMARK       I    between atoms: N_16  and  C_17 
REMARK    5  A    between atoms: C_17  and  C_18 
ROOT
HETATM    1  N   UNL     1      42.885 -12.042   5.807  1.00  0.00    -0.255 N 
HETATM    2  C   UNL     1      42.892 -11.775   4.452  1.00  0.00     0.254 C 
HETATM    3  O   UNL     1      43.330 -10.740   3.953  1.00  0.00    -0.270 OA
HETATM    4  H   UNL     1      42.223 -12.739   6.162  1.00  0.00     0.191 HD
ENDROOT
BRANCH   1   5
HETATM    5  N   UNL     1      43.233 -11.019   6.670  1.00  0.00    -0.167 N 
HETATM    6  C   UNL     1      44.498 -10.830   7.151  1.00  0.00     0.345 A 
HETATM    7  N   UNL     1      44.453  -9.783   8.051  1.00  0.00    -0.319 N 
HETATM    8  O   UNL     1      45.514 -11.448   6.873  1.00  0.00    -0.245 OA
HETATM    9  C   UNL     1      43.093  -9.336   8.309  1.00  0.00     0.141 A 
HETATM   10  H   UNL     1      45.249  -9.587   8.643  1.00  0.00     0.166 HD
HETATM   11  C   UNL     1      42.912  -7.879   7.864  1.00  0.00     0.055 C 
HETATM   12  C   UNL     1      42.313 -10.220   7.302  1.00  0.00     0.279 A 
HETATM   13  O   UNL     1      41.103 -10.188   7.106  1.00  0.00    -0.268 OA
BRANCH   9  14
HETATM   14  C   UNL     1      42.751  -9.566   9.778  1.00  0.00    -0.021 A 
HETATM   15  C   UNL     1      43.635 -10.288  10.606  1.00  0.00     0.010 A 
HETATM   16  C   UNL     1      43.339 -10.530  11.949  1.00  0.00     0.001 A 
HETATM   17  C   UNL     1      42.147 -10.065  12.494  1.00  0.00     0.000 A 
HETATM   18  C   UNL     1      41.250  -9.366  11.693  1.00  0.00     0.001 A 
HETATM   19  C   UNL     1      41.544  -9.124  10.347  1.00  0.00     0.010 A 
ENDBRANCH   9  14
ENDBRANCH   1   5
BRANCH   2  20
HETATM   20  C   UNL     1      42.323 -12.915   3.607  1.00  0.00     0.227 C 
BRANCH  20  21
HETATM   21  N   UNL     1      42.832 -14.220   4.000  1.00  0.00    -0.348 N 
HETATM   22  C   UNL     1      43.151 -15.174   3.058  1.00  0.00     0.252 C 
HETATM   23  O   UNL     1      43.158 -14.919   1.857  1.00  0.00    -0.268 OA
HETATM   24  H   UNL     1      42.718 -14.483   4.969  1.00  0.00     0.163 HD
BRANCH  22  25
HETATM   25  C   UNL     1      43.465 -16.545   3.548  1.00  0.00     0.033 A 
HETATM   26  C   UNL     1      43.403 -17.599   2.626  1.00  0.00     0.036 A 
HETATM   27  C   UNL     1      43.672 -18.902   3.043  1.00  0.00     0.012 A 
HETATM   28 BR   UNL     1      43.578 -20.323   1.800  1.00  0.00    -0.051 Br
HETATM   29  C   UNL     1      44.008 -19.167   4.369  1.00  0.00     0.019 A 
HETATM   30  C   UNL     1      44.089 -18.118   5.286  1.00  0.00     0.002 A 
HETATM   31  C   UNL     1      43.824 -16.807   4.877  1.00  0.00     0.017 A 
ENDBRANCH  22  25
ENDBRANCH  20  21
ENDBRANCH   2  20
TORSDOF 5
ENDMDL
MODEL 6
REMARK VINA RESULT:      -8.4      3.379      9.282
REMARK  5 active torsions:
REMARK  status: ('A' for Active; 'I' for Inactive)
REMARK    1  A    between atoms: C_2  and  C_3 
REMARK    2  A    between atoms: N_12  and  N_13 
REMARK       I    between atoms: N_13  and  C_14 
REMARK    3  A    between atoms: C_14  and  C_15 
REMARK    4  A    between atoms: C_15  and  N_16 
REMARK       I    between atoms: N_16  and  C_17 
REMARK    5  A    between atoms: C_17  and  C_18 
ROOT
HETATM    1  N   UNL     1      42.215 -11.111   7.283  1.00  0.00    -0.255 N 
HETATM    2  C   UNL     1      41.961 -10.726   5.981  1.00  0.00     0.254 C 
HETATM    3  O   UNL     1      42.423  -9.716   5.455  1.00  0.00    -0.270 OA
HETATM    4  H   UNL     1      41.554 -11.745   7.741  1.00  0.00     0.191 HD
ENDROOT
BRANCH   1   5
HETATM    5  N   UNL     1      42.890 -10.222   8.099  1.00  0.00    -0.167 N 
HETATM    6  C   UNL     1      44.187 -10.392   8.497  1.00  0.00     0.345 A 
HETATM    7  N   UNL     1      44.495  -9.371   9.375  1.00  0.00    -0.319 N 
HETATM    8  O   UNL     1      44.970 -11.271   8.171  1.00  0.00    -0.245 OA
HETATM    9  C   UNL     1      43.333  -8.560   9.706  1.00  0.00     0.141 A 
HETATM   10  H   UNL     1      45.351  -9.404   9.911  1.00  0.00     0.166 HD
HETATM   11  C   UNL     1      43.538  -7.112   9.240  1.00  0.00     0.055 C 
HETATM   12  C   UNL     1      42.273  -9.194   8.769  1.00  0.00     0.279 A 
HETATM   13  O   UNL     1      41.110  -8.826   8.648  1.00  0.00    -0.268 OA
BRANCH   9  14
HETATM   14  C   UNL     1      43.038  -8.679  11.198  1.00  0.00    -0.021 A 
HETATM   15  C   UNL     1      42.540  -9.886  11.728  1.00  0.00     0.010 A 
HETATM   16  C   UNL     1      42.243 -10.017  13.086  1.00  0.00     0.001 A 
HETATM   17  C   UNL     1      42.427  -8.939  13.945  1.00  0.00     0.000 A 
HETATM   18  C   UNL     1      42.899  -7.731  13.444  1.00  0.00     0.001 A 
HETATM   19  C   UNL     1      43.196  -7.598  12.084  1.00  0.00     0.010 A 
ENDBRANCH   9  14
ENDBRANCH   1   5
BRANCH   2  20
HETATM   20  C   UNL     1      41.059 -11.704   5.226  1.00  0.00     0.227 C 
BRANCH  20  21
HETATM   21  N   UNL     1      41.635 -13.035   5.114  1.00  0.00    -0.348 N 
HETATM   22  C   UNL     1      41.119 -14.096   5.824  1.00  0.00     0.252 C 
HETATM   23  O   UNL     1      40.073 -14.000   6.462  1.00  0.00    -0.268 OA
HETATM   24  H   UNL     1      42.553 -13.103   4.696  1.00  0.00     0.163 HD
BRANCH  22  25
HETATM   25  C   UNL     1      41.890 -15.371   5.814  1.00  0.00     0.033 A 
HETATM   26  C   UNL     1      42.242 -15.912   4.571  1.00  0.00     0.036 A 
HETATM   27  C   UNL     1      42.948 -17.113   4.512  1.00  0.00     0.012 A 
HETATM   28 BR   UNL     1      43.413 -17.847   2.833  1.00  0.00    -0.051 Br
HETATM   29  C   UNL     1      43.312 -17.779   5.681  1.00  0.00     0.019 A 
HETATM   30  C   UNL     1      42.979 -17.234   6.921  1.00  0.00     0.002 A 
HETATM   31  C   UNL     1      42.274 -16.029   6.991  1.00  0.00     0.017 A 
ENDBRANCH  22  25
ENDBRANCH  20  21
ENDBRANCH   2  20
TORSDOF 5
ENDMDL
MODEL 7
REMARK VINA RESULT:      -8.1      3.438      9.310
REMARK  5 active torsions:
REMARK  status: ('A' for Active; 'I' for Inactive)
REMARK    1  A    between atoms: C_2  and  C_3 
REMARK    2  A    between atoms: N_12  and  N_13 
REMARK       I    between atoms: N_13  and  C_14 
REMARK    3  A    between atoms: C_14  and  C_15 
REMARK    4  A    between atoms: C_15  and  N_16 
REMARK       I    between atoms: N_16  and  C_17 
REMARK    5  A    between atoms: C_17  and  C_18 
ROOT
HETATM    1  N   UNL     1      43.709  -9.745   7.537  1.00  0.00    -0.255 N 
HETATM    2  C   UNL     1      44.442 -10.781   8.082  1.00  0.00     0.254 C 
HETATM    3  O   UNL     1      44.558 -10.989   9.288  1.00  0.00    -0.270 OA
HETATM    4  H   UNL     1      43.928  -9.442   6.584  1.00  0.00     0.191 HD
ENDROOT
BRANCH   1   5
HETATM    5  N   UNL     1      43.212  -8.783   8.398  1.00  0.00    -0.167 N 
HETATM    6  C   UNL     1      43.945  -7.724   8.856  1.00  0.00     0.345 A 
HETATM    7  N   UNL     1      43.164  -7.033   9.762  1.00  0.00    -0.319 N 
HETATM    8  O   UNL     1      45.086  -7.407   8.558  1.00  0.00    -0.245 OA
HETATM    9  C   UNL     1      41.912  -7.718  10.046  1.00  0.00     0.141 A 
HETATM   10  H   UNL     1      43.574  -6.312  10.339  1.00  0.00     0.166 HD
HETATM   11  C   UNL     1      40.718  -6.859   9.610  1.00  0.00     0.055 C 
HETATM   12  C   UNL     1      42.010  -8.902   9.050  1.00  0.00     0.279 A 
HETATM   13  O   UNL     1      41.157  -9.766   8.876  1.00  0.00    -0.268 OA
BRANCH   9  14
HETATM   14  C   UNL     1      41.870  -8.109  11.520  1.00  0.00    -0.021 A 
HETATM   15  C   UNL     1      42.874  -7.660  12.401  1.00  0.00     0.010 A 
HETATM   16  C   UNL     1      42.870  -8.018  13.751  1.00  0.00     0.001 A 
HETATM   17  C   UNL     1      41.868  -8.843  14.249  1.00  0.00     0.000 A 
HETATM   18  C   UNL     1      40.876  -9.315  13.396  1.00  0.00     0.001 A 
HETATM   19  C   UNL     1      40.879  -8.958  12.044  1.00  0.00     0.010 A 
ENDBRANCH   9  14
ENDBRANCH   1   5
BRANCH   2  20
HETATM   20  C   UNL     1      45.089 -11.683   7.029  1.00  0.00     0.227 C 
BRANCH  20  21
HETATM   21  N   UNL     1      44.285 -12.856   6.718  1.00  0.00    -0.348 N 
HETATM   22  C   UNL     1      43.303 -12.811   5.753  1.00  0.00     0.252 C 
HETATM   23  O   UNL     1      43.162 -11.836   5.019  1.00  0.00    -0.268 OA
HETATM   24  H   UNL     1      44.307 -13.615   7.384  1.00  0.00     0.163 HD
BRANCH  22  25
HETATM   25  C   UNL     1      42.394 -13.985   5.642  1.00  0.00     0.033 A 
HETATM   26  C   UNL     1      41.819 -14.252   4.393  1.00  0.00     0.036 A 
HETATM   27  C   UNL     1      40.946 -15.330   4.246  1.00  0.00     0.012 A 
HETATM   28 BR   UNL     1      40.164 -15.682   2.562  1.00  0.00    -0.051 Br
HETATM   29  C   UNL     1      40.645 -16.150   5.332  1.00  0.00     0.019 A 
HETATM   30  C   UNL     1      41.230 -15.899   6.573  1.00  0.00     0.002 A 
HETATM   31  C   UNL     1      42.108 -14.822   6.730  1.00  0.00     0.017 A 
ENDBRANCH  22  25
ENDBRANCH  20  21
ENDBRANCH   2  20
TORSDOF 5
ENDMDL
MODEL 8
REMARK VINA RESULT:      -7.9      6.341      8.623
REMARK  5 active torsions:
REMARK  status: ('A' for Active; 'I' for Inactive)
REMARK    1  A    between atoms: C_2  and  C_3 
REMARK    2  A    between atoms: N_12  and  N_13 
REMARK       I    between atoms: N_13  and  C_14 
REMARK    3  A    between atoms: C_14  and  C_15 
REMARK    4  A    between atoms: C_15  and  N_16 
REMARK       I    between atoms: N_16  and  C_17 
REMARK    5  A    between atoms: C_17  and  C_18 
ROOT
HETATM    1  N   UNL     1      40.544 -13.373   1.950  1.00  0.00    -0.255 N 
HETATM    2  C   UNL     1      40.604 -13.829   0.647  1.00  0.00     0.254 C 
HETATM    3  O   UNL     1      41.173 -14.863   0.301  1.00  0.00    -0.270 OA
HETATM    4  H   UNL     1      40.360 -12.378   2.109  1.00  0.00     0.191 HD
ENDROOT
BRANCH   1   5
HETATM    5  N   UNL     1      41.311 -14.024   2.898  1.00  0.00    -0.167 N 
HETATM    6  C   UNL     1      42.590 -13.661   3.219  1.00  0.00     0.345 A 
HETATM    7  N   UNL     1      43.073 -14.585   4.125  1.00  0.00    -0.319 N 
HETATM    8  O   UNL     1      43.233 -12.710   2.805  1.00  0.00    -0.245 OA
HETATM    9  C   UNL     1      42.157 -15.697   4.321  1.00  0.00     0.141 A 
HETATM   10  H   UNL     1      44.055 -14.594   4.366  1.00  0.00     0.166 HD
HETATM   11  C   UNL     1      41.675 -15.747   5.777  1.00  0.00     0.055 C 
HETATM   12  C   UNL     1      40.956 -15.225   3.461  1.00  0.00     0.279 A 
HETATM   13  O   UNL     1      39.891 -15.817   3.330  1.00  0.00    -0.268 OA
BRANCH   9  14
HETATM   14  C   UNL     1      42.820 -16.991   3.859  1.00  0.00    -0.021 A 
HETATM   15  C   UNL     1      42.534 -17.518   2.584  1.00  0.00     0.010 A 
HETATM   16  C   UNL     1      43.112 -18.710   2.143  1.00  0.00     0.001 A 
HETATM   17  C   UNL     1      43.982 -19.410   2.972  1.00  0.00     0.000 A 
HETATM   18  C   UNL     1      44.267 -18.921   4.242  1.00  0.00     0.001 A 
HETATM   19  C   UNL     1      43.687 -17.727   4.686  1.00  0.00     0.010 A 
ENDBRANCH   9  14
ENDBRANCH   1   5
BRANCH   2  20
HETATM   20  C   UNL     1      39.859 -12.932  -0.343  1.00  0.00     0.227 C 
BRANCH  20  21
HETATM   21  N   UNL     1      40.551 -11.678  -0.601  1.00  0.00    -0.348 N 
HETATM   22  C   UNL     1      40.196 -10.874  -1.661  1.00  0.00     0.252 C 
HETATM   23  O   UNL     1      39.198 -11.103  -2.341  1.00  0.00    -0.268 OA
HETATM   24  H   UNL     1      41.435 -11.538  -0.132  1.00  0.00     0.163 HD
BRANCH  22  25
HETATM   25  C   UNL     1      41.082  -9.719  -1.976  1.00  0.00     0.033 A 
HETATM   26  C   UNL     1      40.884  -9.055  -3.193  1.00  0.00     0.036 A 
HETATM   27  C   UNL     1      41.703  -7.980  -3.539  1.00  0.00     0.012 A 
HETATM   28 BR   UNL     1      41.440  -7.092  -5.187  1.00  0.00    -0.051 Br
HETATM   29  C   UNL     1      42.715  -7.555  -2.680  1.00  0.00     0.019 A 
HETATM   30  C   UNL     1      42.904  -8.203  -1.459  1.00  0.00     0.002 A 
HETATM   31  C   UNL     1      42.087  -9.280  -1.102  1.00  0.00     0.017 A 
ENDBRANCH  22  25
ENDBRANCH  20  21
ENDBRANCH   2  20
TORSDOF 5
ENDMDL
MODEL 9
REMARK VINA RESULT:      -7.9      3.465      9.747
REMARK  5 active torsions:
REMARK  status: ('A' for Active; 'I' for Inactive)
REMARK    1  A    between atoms: C_2  and  C_3 
REMARK    2  A    between atoms: N_12  and  N_13 
REMARK       I    between atoms: N_13  and  C_14 
REMARK    3  A    between atoms: C_14  and  C_15 
REMARK    4  A    between atoms: C_15  and  N_16 
REMARK       I    between atoms: N_16  and  C_17 
REMARK    5  A    between atoms: C_17  and  C_18 
ROOT
HETATM    1  N   UNL     1      43.471 -11.561   7.866  1.00  0.00    -0.255 N 
HETATM    2  C   UNL     1      43.471 -11.878   6.521  1.00  0.00     0.254 C 
HETATM    3  O   UNL     1      43.781 -11.095   5.625  1.00  0.00    -0.270 OA
HETATM    4  H   UNL     1      42.898 -12.126   8.499  1.00  0.00     0.191 HD
ENDROOT
BRANCH   1   5
HETATM    5  N   UNL     1      43.666 -10.238   8.217  1.00  0.00    -0.167 N 
HETATM    6  C   UNL     1      44.898  -9.681   8.423  1.00  0.00     0.345 A 
HETATM    7  N   UNL     1      44.705  -8.382   8.851  1.00  0.00    -0.319 N 
HETATM    8  O   UNL     1      45.995 -10.196   8.278  1.00  0.00    -0.245 OA
HETATM    9  C   UNL     1      43.302  -8.081   9.088  1.00  0.00     0.141 A 
HETATM   10  H   UNL     1      45.482  -7.847   9.215  1.00  0.00     0.166 HD
HETATM   11  C   UNL     1      42.823  -6.970   8.144  1.00  0.00     0.055 C 
HETATM   12  C   UNL     1      42.648  -9.402   8.606  1.00  0.00     0.279 A 
HETATM   13  O   UNL     1      41.445  -9.636   8.568  1.00  0.00    -0.268 OA
BRANCH   9  14
HETATM   14  C   UNL     1      43.094  -7.753  10.563  1.00  0.00    -0.021 A 
HETATM   15  C   UNL     1      42.438  -6.563  10.938  1.00  0.00     0.010 A 
HETATM   16  C   UNL     1      42.251  -6.227  12.281  1.00  0.00     0.001 A 
HETATM   17  C   UNL     1      42.726  -7.068  13.280  1.00  0.00     0.000 A 
HETATM   18  C   UNL     1      43.393  -8.239  12.937  1.00  0.00     0.001 A 
HETATM   19  C   UNL     1      43.582  -8.576  11.593  1.00  0.00     0.010 A 
ENDBRANCH   9  14
ENDBRANCH   1   5
BRANCH   2  20
HETATM   20  C   UNL     1      43.071 -13.327   6.241  1.00  0.00     0.227 C 
BRANCH  20  21
HETATM   21  N   UNL     1      42.520 -13.515   4.908  1.00  0.00    -0.348 N 
HETATM   22  C   UNL     1      41.269 -14.063   4.725  1.00  0.00     0.252 C 
HETATM   23  O   UNL     1      40.513 -14.278   5.669  1.00  0.00    -0.268 OA
HETATM   24  H   UNL     1      43.167 -13.457   4.133  1.00  0.00     0.163 HD
BRANCH  22  25
HETATM   25  C   UNL     1      40.868 -14.411   3.333  1.00  0.00     0.033 A 
HETATM   26  C   UNL     1      41.001 -13.424   2.348  1.00  0.00     0.036 A 
HETATM   27  C   UNL     1      40.621 -13.698   1.035  1.00  0.00     0.012 A 
HETATM   28 BR   UNL     1      40.792 -12.362  -0.291  1.00  0.00    -0.051 Br
HETATM   29  C   UNL     1      40.114 -14.950   0.691  1.00  0.00     0.019 A 
HETATM   30  C   UNL     1      39.997 -15.942   1.666  1.00  0.00     0.002 A 
HETATM   31  C   UNL     1      40.378 -15.677   2.985  1.00  0.00     0.017 A 
ENDBRANCH  22  25
ENDBRANCH  20  21
ENDBRANCH   2  20
TORSDOF 5
ENDMDL
MODEL 10
REMARK VINA RESULT:      -7.8      3.266      9.629
REMARK  5 active torsions:
REMARK  status: ('A' for Active; 'I' for Inactive)
REMARK    1  A    between atoms: C_2  and  C_3 
REMARK    2  A    between atoms: N_12  and  N_13 
REMARK       I    between atoms: N_13  and  C_14 
REMARK    3  A    between atoms: C_14  and  C_15 
REMARK    4  A    between atoms: C_15  and  N_16 
REMARK       I    between atoms: N_16  and  C_17 
REMARK    5  A    between atoms: C_17  and  C_18 
ROOT
HETATM    1  N   UNL     1      41.777 -10.889   7.249  1.00  0.00    -0.255 N 
HETATM    2  C   UNL     1      41.765 -10.623   5.893  1.00  0.00     0.254 C 
HETATM    3  O   UNL     1      42.522  -9.832   5.335  1.00  0.00    -0.270 OA
HETATM    4  H   UNL     1      40.932 -11.279   7.676  1.00  0.00     0.191 HD
ENDROOT
BRANCH   1   5
HETATM    5  N   UNL     1      42.572 -10.095   8.055  1.00  0.00    -0.167 N 
HETATM    6  C   UNL     1      43.829 -10.446   8.462  1.00  0.00     0.345 A 
HETATM    7  N   UNL     1      44.280  -9.467   9.326  1.00  0.00    -0.319 N 
HETATM    8  O   UNL     1      44.477 -11.434   8.152  1.00  0.00    -0.245 OA
HETATM    9  C   UNL     1      43.247  -8.491   9.640  1.00  0.00     0.141 A 
HETATM   10  H   UNL     1      45.121  -9.615   9.867  1.00  0.00     0.166 HD
HETATM   11  C   UNL     1      43.661  -7.095   9.154  1.00  0.00     0.055 C 
HETATM   12  C   UNL     1      42.109  -8.979   8.707  1.00  0.00     0.279 A 
HETATM   13  O   UNL     1      41.012  -8.447   8.574  1.00  0.00    -0.268 OA
BRANCH   9  14
HETATM   14  C   UNL     1      42.934  -8.543  11.132  1.00  0.00    -0.021 A 
HETATM   15  C   UNL     1      42.992  -7.368  11.909  1.00  0.00     0.010 A 
HETATM   16  C   UNL     1      42.729  -7.391  13.280  1.00  0.00     0.001 A 
HETATM   17  C   UNL     1      42.413  -8.589  13.909  1.00  0.00     0.000 A 
HETATM   18  C   UNL     1      42.368  -9.766  13.168  1.00  0.00     0.001 A 
HETATM   19  C   UNL     1      42.632  -9.745  11.795  1.00  0.00     0.010 A 
ENDBRANCH   9  14
ENDBRANCH   1   5
BRANCH   2  20
HETATM   20  C   UNL     1      40.722 -11.439   5.126  1.00  0.00     0.227 C 
BRANCH  20  21
HETATM   21  N   UNL     1      41.161 -12.798   4.847  1.00  0.00    -0.348 N 
HETATM   22  C   UNL     1      41.806 -13.110   3.670  1.00  0.00     0.252 C 
HETATM   23  O   UNL     1      42.166 -12.241   2.880  1.00  0.00    -0.268 OA
HETATM   24  H   UNL     1      40.772 -13.532   5.422  1.00  0.00     0.163 HD
BRANCH  22  25
HETATM   25  C   UNL     1      42.034 -14.552   3.373  1.00  0.00     0.033 A 
HETATM   26  C   UNL     1      42.890 -15.267   4.221  1.00  0.00     0.036 A 
HETATM   27  C   UNL     1      43.148 -16.614   3.971  1.00  0.00     0.012 A 
HETATM   28 BR   UNL     1      44.310 -17.575   5.111  1.00  0.00    -0.051 Br
HETATM   29  C   UNL     1      42.557 -17.260   2.886  1.00  0.00     0.019 A 
HETATM   30  C   UNL     1      41.690 -16.555   2.049  1.00  0.00     0.002 A 
HETATM   31  C   UNL     1      41.423 -15.204   2.293  1.00  0.00     0.017 A 
ENDBRANCH  22  25
ENDBRANCH  20  21
ENDBRANCH   2  20
TORSDOF 5
ENDMDL
