MODEL 1
REMARK VINA RESULT:      -9.1      0.000      0.000
REMARK  4 active torsions:
REMARK  status: ('A' for Active; 'I' for Inactive)
REMARK    1  A    between atoms: C_2  and  C_3 
REMARK    2  A    between atoms: C_10  and  C_11 
REMARK       I    between atoms: C_11  and  N_12 
REMARK    3  A    between atoms: N_12  and  C_13 
REMARK    4  A    between atoms: C_20  and  C_21 
REMARK       I    between atoms: C_21  and  N_22 
ROOT
HETATM    1  C   UNL     1      40.941 -13.313   0.327  1.00  0.00     0.035 A 
HETATM    2  C   UNL     1      40.283 -13.962  -0.723  1.00  0.00     0.046 A 
HETATM    3  C   UNL     1      39.084 -13.425  -1.244  1.00  0.00     0.030 A 
HETATM    4  C   UNL     1      38.573 -12.259  -0.694  1.00  0.00     0.063 A 
HETATM    5  N   UNL     1      37.426 -12.001  -1.391  1.00  0.00    -0.277 N 
HETATM    6  H   UNL     1      36.787 -11.225  -1.257  1.00  0.00     0.189 HD
HETATM    7  N   UNL     1      37.149 -12.893  -2.357  1.00  0.00    -0.168 NA
HETATM    8  C   UNL     1      38.167 -13.781  -2.279  1.00  0.00     0.156 A 
HETATM    9  C   UNL     1      39.193 -11.582   0.355  1.00  0.00     0.034 A 
HETATM   10  C   UNL     1      40.383 -12.133   0.848  1.00  0.00     0.032 A 
ENDROOT
BRANCH   1  11
HETATM   11  N   UNL     1      42.144 -13.737   0.923  1.00  0.00    -0.324 N 
HETATM   12  C   UNL     1      42.475 -14.308   2.115  1.00  0.00     0.246 C 
HETATM   13  O   UNL     1      43.652 -14.592   2.341  1.00  0.00    -0.268 OA
HETATM   14  H   UNL     1      42.984 -13.592   0.375  1.00  0.00     0.169 HD
BRANCH  12  15
HETATM   15  C   UNL     1      41.443 -14.624   3.116  1.00  0.00     0.082 C 
HETATM   16  C   UNL     1      41.390 -15.799   3.772  1.00  0.00    -0.045 C 
HETATM   17  C   UNL     1      40.311 -16.103   4.774  1.00  0.00     0.049 C 
BRANCH  16  18
HETATM   18  C   UNL     1      42.378 -16.876   3.559  1.00  0.00    -0.008 A 
HETATM   19  C   UNL     1      43.460 -17.114   4.424  1.00  0.00     0.044 A 
HETATM   20 CL   UNL     1      43.744 -16.144   5.827  1.00  0.00    -0.083 Cl
HETATM   21  C   UNL     1      44.358 -18.155   4.165  1.00  0.00     0.024 A 
HETATM   22  C   UNL     1      44.189 -18.966   3.042  1.00  0.00     0.002 A 
HETATM   23  C   UNL     1      43.125 -18.735   2.174  1.00  0.00     0.001 A 
HETATM   24  C   UNL     1      42.226 -17.699   2.431  1.00  0.00     0.013 A 
ENDBRANCH  16  18
ENDBRANCH  12  15
ENDBRANCH   1  11
BRANCH   8  25
HETATM   25  C   UNL     1      38.253 -14.931  -3.189  1.00  0.00     0.270 C 
HETATM   26  N   UNL     1      38.325 -16.141  -2.553  1.00  0.00    -0.365 N 
HETATM   27  H   UNL     1      38.310 -16.158  -1.540  1.00  0.00     0.159 HD
HETATM   28  H   UNL     1      38.380 -16.989  -3.094  1.00  0.00     0.159 HD
HETATM   29  O   UNL     1      38.253 -14.852  -4.412  1.00  0.00    -0.266 OA
ENDBRANCH   8  25
TORSDOF 4
ENDMDL
MODEL 2
REMARK VINA RESULT:      -8.8      3.036      4.287
REMARK  4 active torsions:
REMARK  status: ('A' for Active; 'I' for Inactive)
REMARK    1  A    between atoms: C_2  and  C_3 
REMARK    2  A    between atoms: C_10  and  C_11 
REMARK       I    between atoms: C_11  and  N_12 
REMARK    3  A    between atoms: N_12  and  C_13 
REMARK    4  A    between atoms: C_20  and  C_21 
REMARK       I    between atoms: C_21  and  N_22 
ROOT
HETATM    1  C   UNL     1      40.178 -15.096   2.759  1.00  0.00     0.035 A 
HETATM    2  C   UNL     1      40.704 -13.801   2.768  1.00  0.00     0.046 A 
HETATM    3  C   UNL     1      40.927 -13.121   1.550  1.00  0.00     0.030 A 
HETATM    4  C   UNL     1      40.627 -13.761   0.356  1.00  0.00     0.063 A 
HETATM    5  N   UNL     1      40.952 -12.868  -0.627  1.00  0.00    -0.277 N 
HETATM    6  H   UNL     1      40.868 -13.000  -1.629  1.00  0.00     0.189 HD
HETATM    7  N   UNL     1      41.431 -11.696  -0.177  1.00  0.00    -0.168 NA
HETATM    8  C   UNL     1      41.420 -11.836   1.168  1.00  0.00     0.156 A 
HETATM    9  C   UNL     1      40.105 -15.052   0.300  1.00  0.00     0.034 A 
HETATM   10  C   UNL     1      39.887 -15.700   1.523  1.00  0.00     0.032 A 
ENDROOT
BRANCH   1  11
HETATM   11  N   UNL     1      39.897 -15.872   3.900  1.00  0.00    -0.324 N 
HETATM   12  C   UNL     1      40.419 -15.955   5.156  1.00  0.00     0.246 C 
HETATM   13  O   UNL     1      39.926 -16.743   5.963  1.00  0.00    -0.268 OA
HETATM   14  H   UNL     1      39.147 -16.546   3.803  1.00  0.00     0.169 HD
BRANCH  12  15
HETATM   15  C   UNL     1      41.536 -15.089   5.571  1.00  0.00     0.082 C 
HETATM   16  C   UNL     1      42.828 -15.413   5.378  1.00  0.00    -0.045 C 
HETATM   17  C   UNL     1      43.948 -14.519   5.833  1.00  0.00     0.049 C 
BRANCH  16  18
HETATM   18  C   UNL     1      43.246 -16.664   4.713  1.00  0.00    -0.008 A 
HETATM   19  C   UNL     1      43.557 -17.843   5.412  1.00  0.00     0.044 A 
HETATM   20 CL   UNL     1      43.492 -17.932   7.138  1.00  0.00    -0.083 Cl
HETATM   21  C   UNL     1      43.943 -18.996   4.719  1.00  0.00     0.024 A 
HETATM   22  C   UNL     1      44.026 -18.984   3.326  1.00  0.00     0.002 A 
HETATM   23  C   UNL     1      43.727 -17.820   2.624  1.00  0.00     0.001 A 
HETATM   24  C   UNL     1      43.339 -16.669   3.312  1.00  0.00     0.013 A 
ENDBRANCH  16  18
ENDBRANCH  12  15
ENDBRANCH   1  11
BRANCH   8  25
HETATM   25  C   UNL     1      41.864 -10.753   2.056  1.00  0.00     0.270 C 
HETATM   26  N   UNL     1      41.366  -9.522   1.726  1.00  0.00    -0.365 N 
HETATM   27  H   UNL     1      40.748  -9.447   0.927  1.00  0.00     0.159 HD
HETATM   28  H   UNL     1      41.610  -8.717   2.281  1.00  0.00     0.159 HD
HETATM   29  O   UNL     1      42.606 -10.905   3.021  1.00  0.00    -0.266 OA
ENDBRANCH   8  25
TORSDOF 4
ENDMDL
MODEL 3
REMARK VINA RESULT:      -8.7      1.979      2.461
REMARK  4 active torsions:
REMARK  status: ('A' for Active; 'I' for Inactive)
REMARK    1  A    between atoms: C_2  and  C_3 
REMARK    2  A    between atoms: C_10  and  C_11 
REMARK       I    between atoms: C_11  and  N_12 
REMARK    3  A    between atoms: N_12  and  C_13 
REMARK    4  A    between atoms: C_20  and  C_21 
REMARK       I    between atoms: C_21  and  N_22 
ROOT
HETATM    1  C   UNL     1      41.164 -12.759   2.366  1.00  0.00     0.035 A 
HETATM    2  C   UNL     1      41.170 -12.946   0.980  1.00  0.00     0.046 A 
HETATM    3  C   UNL     1      39.998 -12.703   0.230  1.00  0.00     0.030 A 
HETATM    4  C   UNL     1      38.850 -12.287   0.889  1.00  0.00     0.063 A 
HETATM    5  N   UNL     1      37.902 -12.145  -0.086  1.00  0.00    -0.277 N 
HETATM    6  H   UNL     1      36.937 -11.857   0.032  1.00  0.00     0.189 HD
HETATM    7  N   UNL     1      38.336 -12.423  -1.328  1.00  0.00    -0.168 NA
HETATM    8  C   UNL     1      39.631 -12.768  -1.149  1.00  0.00     0.156 A 
HETATM    9  C   UNL     1      38.798 -12.091   2.268  1.00  0.00     0.034 A 
HETATM   10  C   UNL     1      39.976 -12.334   2.986  1.00  0.00     0.032 A 
ENDROOT
BRANCH   1  11
HETATM   11  N   UNL     1      42.265 -12.954   3.222  1.00  0.00    -0.324 N 
HETATM   12  C   UNL     1      42.454 -13.583   4.415  1.00  0.00     0.246 C 
HETATM   13  O   UNL     1      43.578 -13.600   4.917  1.00  0.00    -0.268 OA
HETATM   14  H   UNL     1      43.138 -12.535   2.921  1.00  0.00     0.169 HD
BRANCH  12  15
HETATM   15  C   UNL     1      41.343 -14.275   5.090  1.00  0.00     0.082 C 
HETATM   16  C   UNL     1      41.158 -15.607   5.024  1.00  0.00    -0.045 C 
HETATM   17  C   UNL     1      40.002 -16.285   5.706  1.00  0.00     0.049 C 
BRANCH  16  18
HETATM   18  C   UNL     1      42.067 -16.503   4.279  1.00  0.00    -0.008 A 
HETATM   19  C   UNL     1      41.893 -16.824   2.922  1.00  0.00     0.044 A 
HETATM   20 CL   UNL     1      40.572 -16.204   1.993  1.00  0.00    -0.083 Cl
HETATM   21  C   UNL     1      42.793 -17.677   2.275  1.00  0.00     0.024 A 
HETATM   22  C   UNL     1      43.873 -18.220   2.973  1.00  0.00     0.002 A 
HETATM   23  C   UNL     1      44.052 -17.914   4.320  1.00  0.00     0.001 A 
HETATM   24  C   UNL     1      43.156 -17.061   4.968  1.00  0.00     0.013 A 
ENDBRANCH  16  18
ENDBRANCH  12  15
ENDBRANCH   1  11
BRANCH   8  25
HETATM   25  C   UNL     1      40.489 -13.139  -2.282  1.00  0.00     0.270 C 
HETATM   26  N   UNL     1      41.545 -12.292  -2.483  1.00  0.00    -0.365 N 
HETATM   27  H   UNL     1      41.657 -11.501  -1.860  1.00  0.00     0.159 HD
HETATM   28  H   UNL     1      42.193 -12.468  -3.234  1.00  0.00     0.159 HD
HETATM   29  O   UNL     1      40.312 -14.119  -2.997  1.00  0.00    -0.266 OA
ENDBRANCH   8  25
TORSDOF 4
ENDMDL
MODEL 4
REMARK VINA RESULT:      -8.6      5.304      8.320
REMARK  4 active torsions:
REMARK  status: ('A' for Active; 'I' for Inactive)
REMARK    1  A    between atoms: C_2  and  C_3 
REMARK    2  A    between atoms: C_10  and  C_11 
REMARK       I    between atoms: C_11  and  N_12 
REMARK    3  A    between atoms: N_12  and  C_13 
REMARK    4  A    between atoms: C_20  and  C_21 
REMARK       I    between atoms: C_21  and  N_22 
ROOT
HETATM    1  C   UNL     1      42.573 -11.501   5.354  1.00  0.00     0.035 A 
HETATM    2  C   UNL     1      42.535 -11.131   6.702  1.00  0.00     0.046 A 
HETATM    3  C   UNL     1      43.740 -10.971   7.424  1.00  0.00     0.030 A 
HETATM    4  C   UNL     1      44.948 -11.195   6.778  1.00  0.00     0.063 A 
HETATM    5  N   UNL     1      45.911 -10.971   7.721  1.00  0.00    -0.277 N 
HETATM    6  H   UNL     1      46.915 -11.046   7.603  1.00  0.00     0.189 HD
HETATM    7  N   UNL     1      45.437 -10.611   8.926  1.00  0.00    -0.168 NA
HETATM    8  C   UNL     1      44.095 -10.606   8.757  1.00  0.00     0.156 A 
HETATM    9  C   UNL     1      45.031 -11.568   5.438  1.00  0.00     0.034 A 
HETATM   10  C   UNL     1      43.822 -11.713   4.745  1.00  0.00     0.032 A 
ENDROOT
BRANCH   1  11
HETATM   11  N   UNL     1      41.449 -11.679   4.524  1.00  0.00    -0.324 N 
HETATM   12  C   UNL     1      40.347 -12.479   4.561  1.00  0.00     0.246 C 
HETATM   13  O   UNL     1      39.501 -12.382   3.671  1.00  0.00    -0.268 OA
HETATM   14  H   UNL     1      41.421 -11.106   3.689  1.00  0.00     0.169 HD
BRANCH  12  15
HETATM   15  C   UNL     1      40.134 -13.426   5.669  1.00  0.00     0.082 C 
HETATM   16  C   UNL     1      40.546 -14.707   5.631  1.00  0.00    -0.045 C 
HETATM   17  C   UNL     1      40.295 -15.658   6.768  1.00  0.00     0.049 C 
BRANCH  16  18
HETATM   18  C   UNL     1      41.268 -15.278   4.475  1.00  0.00    -0.008 A 
HETATM   19  C   UNL     1      42.662 -15.453   4.445  1.00  0.00     0.044 A 
HETATM   20 CL   UNL     1      43.673 -14.994   5.771  1.00  0.00    -0.083 Cl
HETATM   21  C   UNL     1      43.283 -16.003   3.319  1.00  0.00     0.024 A 
HETATM   22  C   UNL     1      42.522 -16.382   2.212  1.00  0.00     0.002 A 
HETATM   23  C   UNL     1      41.141 -16.209   2.228  1.00  0.00     0.001 A 
HETATM   24  C   UNL     1      40.518 -15.661   3.351  1.00  0.00     0.013 A 
ENDBRANCH  16  18
ENDBRANCH  12  15
ENDBRANCH   1  11
BRANCH   8  25
HETATM   25  C   UNL     1      43.186 -10.245   9.854  1.00  0.00     0.270 C 
HETATM   26  N   UNL     1      43.340 -11.008  10.980  1.00  0.00    -0.365 N 
HETATM   27  H   UNL     1      44.045 -11.735  10.980  1.00  0.00     0.159 HD
HETATM   28  H   UNL     1      42.765 -10.831  11.788  1.00  0.00     0.159 HD
HETATM   29  O   UNL     1      42.357  -9.342   9.802  1.00  0.00    -0.266 OA
ENDBRANCH   8  25
TORSDOF 4
ENDMDL
MODEL 5
REMARK VINA RESULT:      -8.5      2.038      2.686
REMARK  4 active torsions:
REMARK  status: ('A' for Active; 'I' for Inactive)
REMARK    1  A    between atoms: C_2  and  C_3 
REMARK    2  A    between atoms: C_10  and  C_11 
REMARK       I    between atoms: C_11  and  N_12 
REMARK    3  A    between atoms: N_12  and  C_13 
REMARK    4  A    between atoms: C_20  and  C_21 
REMARK       I    between atoms: C_21  and  N_22 
ROOT
HETATM    1  C   UNL     1      39.143 -12.712   2.222  1.00  0.00     0.035 A 
HETATM    2  C   UNL     1      39.344 -13.283   0.961  1.00  0.00     0.046 A 
HETATM    3  C   UNL     1      39.104 -12.522  -0.206  1.00  0.00     0.030 A 
HETATM    4  C   UNL     1      38.662 -11.213  -0.077  1.00  0.00     0.063 A 
HETATM    5  N   UNL     1      38.517 -10.751  -1.356  1.00  0.00    -0.277 N 
HETATM    6  H   UNL     1      38.205  -9.831  -1.644  1.00  0.00     0.189 HD
HETATM    7  N   UNL     1      38.836 -11.644  -2.308  1.00  0.00    -0.168 NA
HETATM    8  C   UNL     1      39.203 -12.744  -1.612  1.00  0.00     0.156 A 
HETATM    9  C   UNL     1      38.445 -10.606   1.158  1.00  0.00     0.034 A 
HETATM   10  C   UNL     1      38.697 -11.382   2.298  1.00  0.00     0.032 A 
ENDROOT
BRANCH   1  11
HETATM   11  N   UNL     1      39.358 -13.358   3.454  1.00  0.00    -0.324 N 
HETATM   12  C   UNL     1      40.343 -13.328   4.394  1.00  0.00     0.246 C 
HETATM   13  O   UNL     1      40.228 -14.013   5.411  1.00  0.00    -0.268 OA
HETATM   14  H   UNL     1      38.640 -14.014   3.740  1.00  0.00     0.169 HD
BRANCH  12  15
HETATM   15  C   UNL     1      41.521 -12.460   4.230  1.00  0.00     0.082 C 
HETATM   16  C   UNL     1      42.687 -12.892   3.713  1.00  0.00    -0.045 C 
HETATM   17  C   UNL     1      43.881 -11.989   3.577  1.00  0.00     0.049 C 
BRANCH  16  18
HETATM   18  C   UNL     1      42.886 -14.280   3.245  1.00  0.00    -0.008 A 
HETATM   19  C   UNL     1      43.201 -15.346   4.104  1.00  0.00     0.044 A 
HETATM   20 CL   UNL     1      43.402 -15.125   5.807  1.00  0.00    -0.083 Cl
HETATM   21  C   UNL     1      43.373 -16.638   3.595  1.00  0.00     0.024 A 
HETATM   22  C   UNL     1      43.235 -16.879   2.227  1.00  0.00     0.002 A 
HETATM   23  C   UNL     1      42.929 -15.828   1.366  1.00  0.00     0.001 A 
HETATM   24  C   UNL     1      42.755 -14.538   1.871  1.00  0.00     0.013 A 
ENDBRANCH  16  18
ENDBRANCH  12  15
ENDBRANCH   1  11
BRANCH   8  25
HETATM   25  C   UNL     1      39.646 -13.969  -2.292  1.00  0.00     0.270 C 
HETATM   26  N   UNL     1      38.825 -15.045  -2.093  1.00  0.00    -0.365 N 
HETATM   27  H   UNL     1      38.000 -14.926  -1.517  1.00  0.00     0.159 HD
HETATM   28  H   UNL     1      39.044 -15.929  -2.524  1.00  0.00     0.159 HD
HETATM   29  O   UNL     1      40.651 -14.052  -2.990  1.00  0.00    -0.266 OA
ENDBRANCH   8  25
TORSDOF 4
ENDMDL
MODEL 6
REMARK VINA RESULT:      -8.5      3.166      4.345
REMARK  4 active torsions:
REMARK  status: ('A' for Active; 'I' for Inactive)
REMARK    1  A    between atoms: C_2  and  C_3 
REMARK    2  A    between atoms: C_10  and  C_11 
REMARK       I    between atoms: C_11  and  N_12 
REMARK    3  A    between atoms: N_12  and  C_13 
REMARK    4  A    between atoms: C_20  and  C_21 
REMARK       I    between atoms: C_21  and  N_22 
ROOT
HETATM    1  C   UNL     1      39.792 -13.521   2.855  1.00  0.00     0.035 A 
HETATM    2  C   UNL     1      40.159 -12.409   2.091  1.00  0.00     0.046 A 
HETATM    3  C   UNL     1      40.495 -12.570   0.727  1.00  0.00     0.030 A 
HETATM    4  C   UNL     1      40.463 -13.840   0.170  1.00  0.00     0.063 A 
HETATM    5  N   UNL     1      40.837 -13.674  -1.134  1.00  0.00    -0.277 N 
HETATM    6  H   UNL     1      40.928 -14.393  -1.843  1.00  0.00     0.189 HD
HETATM    7  N   UNL     1      41.101 -12.403  -1.480  1.00  0.00    -0.168 NA
HETATM    8  C   UNL     1      40.893 -11.707  -0.338  1.00  0.00     0.156 A 
HETATM    9  C   UNL     1      40.107 -14.976   0.895  1.00  0.00     0.034 A 
HETATM   10  C   UNL     1      39.773 -14.786   2.243  1.00  0.00     0.032 A 
ENDROOT
BRANCH   1  11
HETATM   11  N   UNL     1      39.425 -13.493   4.214  1.00  0.00    -0.324 N 
HETATM   12  C   UNL     1      39.992 -13.003   5.352  1.00  0.00     0.246 C 
HETATM   13  O   UNL     1      39.394 -13.117   6.422  1.00  0.00    -0.268 OA
HETATM   14  H   UNL     1      38.544 -13.940   4.443  1.00  0.00     0.169 HD
BRANCH  12  15
HETATM   15  C   UNL     1      41.289 -12.306   5.312  1.00  0.00     0.082 C 
HETATM   16  C   UNL     1      42.470 -12.946   5.405  1.00  0.00    -0.045 C 
HETATM   17  C   UNL     1      43.779 -12.206   5.384  1.00  0.00     0.049 C 
BRANCH  16  18
HETATM   18  C   UNL     1      42.574 -14.414   5.538  1.00  0.00    -0.008 A 
HETATM   19  C   UNL     1      42.897 -15.264   4.467  1.00  0.00     0.044 A 
HETATM   20 CL   UNL     1      43.191 -14.663   2.872  1.00  0.00    -0.083 Cl
HETATM   21  C   UNL     1      42.983 -16.647   4.662  1.00  0.00     0.024 A 
HETATM   22  C   UNL     1      42.745 -17.195   5.923  1.00  0.00     0.002 A 
HETATM   23  C   UNL     1      42.418 -16.363   6.990  1.00  0.00     0.001 A 
HETATM   24  C   UNL     1      42.334 -14.982   6.799  1.00  0.00     0.013 A 
ENDBRANCH  16  18
ENDBRANCH  12  15
ENDBRANCH   1  11
BRANCH   8  25
HETATM   25  C   UNL     1      41.064 -10.249  -0.287  1.00  0.00     0.270 C 
HETATM   26  N   UNL     1      39.991  -9.544  -0.762  1.00  0.00    -0.365 N 
HETATM   27  H   UNL     1      39.185 -10.057  -1.098  1.00  0.00     0.159 HD
HETATM   28  H   UNL     1      40.012  -8.537  -0.761  1.00  0.00     0.159 HD
HETATM   29  O   UNL     1      42.061  -9.680   0.145  1.00  0.00    -0.266 OA
ENDBRANCH   8  25
TORSDOF 4
ENDMDL
MODEL 7
REMARK VINA RESULT:      -8.5      4.316      6.913
REMARK  4 active torsions:
REMARK  status: ('A' for Active; 'I' for Inactive)
REMARK    1  A    between atoms: C_2  and  C_3 
REMARK    2  A    between atoms: C_10  and  C_11 
REMARK       I    between atoms: C_11  and  N_12 
REMARK    3  A    between atoms: N_12  and  C_13 
REMARK    4  A    between atoms: C_20  and  C_21 
REMARK       I    between atoms: C_21  and  N_22 
ROOT
HETATM    1  C   UNL     1      43.304 -11.946   3.734  1.00  0.00     0.035 A 
HETATM    2  C   UNL     1      43.684 -11.799   5.072  1.00  0.00     0.046 A 
HETATM    3  C   UNL     1      43.105 -10.779   5.862  1.00  0.00     0.030 A 
HETATM    4  C   UNL     1      42.170  -9.931   5.287  1.00  0.00     0.063 A 
HETATM    5  N   UNL     1      41.807  -9.065   6.281  1.00  0.00    -0.277 N 
HETATM    6  H   UNL     1      41.141  -8.303   6.218  1.00  0.00     0.189 HD
HETATM    7  N   UNL     1      42.418  -9.281   7.458  1.00  0.00    -0.168 NA
HETATM    8  C   UNL     1      43.224 -10.340   7.215  1.00  0.00     0.156 A 
HETATM    9  C   UNL     1      41.765 -10.039   3.958  1.00  0.00     0.034 A 
HETATM   10  C   UNL     1      42.350 -11.063   3.200  1.00  0.00     0.032 A 
ENDROOT
BRANCH   1  11
HETATM   11  N   UNL     1      43.794 -12.926   2.849  1.00  0.00    -0.324 N 
HETATM   12  C   UNL     1      43.275 -14.048   2.277  1.00  0.00     0.246 C 
HETATM   13  O   UNL     1      43.970 -14.706   1.501  1.00  0.00    -0.268 OA
HETATM   14  H   UNL     1      44.757 -12.811   2.553  1.00  0.00     0.169 HD
BRANCH  12  15
HETATM   15  C   UNL     1      41.887 -14.461   2.541  1.00  0.00     0.082 C 
HETATM   16  C   UNL     1      41.563 -15.655   3.071  1.00  0.00    -0.045 C 
HETATM   17  C   UNL     1      40.135 -16.059   3.310  1.00  0.00     0.049 C 
BRANCH  16  18
HETATM   18  C   UNL     1      42.578 -16.659   3.454  1.00  0.00    -0.008 A 
HETATM   19  C   UNL     1      43.326 -16.586   4.641  1.00  0.00     0.044 A 
HETATM   20 CL   UNL     1      43.134 -15.290   5.769  1.00  0.00    -0.083 Cl
HETATM   21  C   UNL     1      44.270 -17.573   4.945  1.00  0.00     0.024 A 
HETATM   22  C   UNL     1      44.480 -18.639   4.069  1.00  0.00     0.002 A 
HETATM   23  C   UNL     1      43.749 -18.718   2.887  1.00  0.00     0.001 A 
HETATM   24  C   UNL     1      42.804 -17.736   2.582  1.00  0.00     0.013 A 
ENDBRANCH  16  18
ENDBRANCH  12  15
ENDBRANCH   1  11
BRANCH   8  25
HETATM   25  C   UNL     1      44.074 -10.914   8.266  1.00  0.00     0.270 C 
HETATM   26  N   UNL     1      43.510 -10.894   9.513  1.00  0.00    -0.365 N 
HETATM   27  H   UNL     1      42.581 -10.504   9.618  1.00  0.00     0.159 HD
HETATM   28  H   UNL     1      44.015 -11.272  10.298  1.00  0.00     0.159 HD
HETATM   29  O   UNL     1      45.190 -11.385   8.078  1.00  0.00    -0.266 OA
ENDBRANCH   8  25
TORSDOF 4
ENDMDL
MODEL 8
REMARK VINA RESULT:      -8.4      4.607      7.785
REMARK  4 active torsions:
REMARK  status: ('A' for Active; 'I' for Inactive)
REMARK    1  A    between atoms: C_2  and  C_3 
REMARK    2  A    between atoms: C_10  and  C_11 
REMARK       I    between atoms: C_11  and  N_12 
REMARK    3  A    between atoms: N_12  and  C_13 
REMARK    4  A    between atoms: C_20  and  C_21 
REMARK       I    between atoms: C_21  and  N_22 
ROOT
HETATM    1  C   UNL     1      42.770 -14.488   2.778  1.00  0.00     0.035 A 
HETATM    2  C   UNL     1      42.650 -14.910   4.106  1.00  0.00     0.046 A 
HETATM    3  C   UNL     1      42.992 -16.236   4.459  1.00  0.00     0.030 A 
HETATM    4  C   UNL     1      43.435 -17.103   3.471  1.00  0.00     0.063 A 
HETATM    5  N   UNL     1      43.675 -18.288   4.109  1.00  0.00    -0.277 N 
HETATM    6  H   UNL     1      44.008 -19.152   3.695  1.00  0.00     0.189 HD
HETATM    7  N   UNL     1      43.435 -18.267   5.431  1.00  0.00    -0.168 NA
HETATM    8  C   UNL     1      43.012 -17.003   5.663  1.00  0.00     0.156 A 
HETATM    9  C   UNL     1      43.567 -16.725   2.136  1.00  0.00     0.034 A 
HETATM   10  C   UNL     1      43.227 -15.404   1.816  1.00  0.00     0.032 A 
ENDROOT
BRANCH   1  11
HETATM   11  N   UNL     1      42.475 -13.196   2.303  1.00  0.00    -0.324 N 
HETATM   12  C   UNL     1      42.812 -11.932   2.686  1.00  0.00     0.246 C 
HETATM   13  O   UNL     1      42.401 -10.974   2.031  1.00  0.00    -0.268 OA
HETATM   14  H   UNL     1      41.865 -13.151   1.495  1.00  0.00     0.169 HD
BRANCH  12  15
HETATM   15  C   UNL     1      43.690 -11.701   3.845  1.00  0.00     0.082 C 
HETATM   16  C   UNL     1      43.223 -11.437   5.080  1.00  0.00    -0.045 C 
HETATM   17  C   UNL     1      44.143 -11.182   6.241  1.00  0.00     0.049 C 
BRANCH  16  18
HETATM   18  C   UNL     1      41.779 -11.373   5.390  1.00  0.00    -0.008 A 
HETATM   19  C   UNL     1      41.005 -10.213   5.222  1.00  0.00     0.044 A 
HETATM   20 CL   UNL     1      41.683  -8.731   4.643  1.00  0.00    -0.083 Cl
HETATM   21  C   UNL     1      39.640 -10.221   5.532  1.00  0.00     0.024 A 
HETATM   22  C   UNL     1      39.037 -11.383   6.014  1.00  0.00     0.002 A 
HETATM   23  C   UNL     1      39.796 -12.537   6.191  1.00  0.00     0.001 A 
HETATM   24  C   UNL     1      41.157 -12.532   5.880  1.00  0.00     0.013 A 
ENDBRANCH  16  18
ENDBRANCH  12  15
ENDBRANCH   1  11
BRANCH   8  25
HETATM   25  C   UNL     1      42.651 -16.551   7.013  1.00  0.00     0.270 C 
HETATM   26  N   UNL     1      43.628 -16.753   7.949  1.00  0.00    -0.365 N 
HETATM   27  H   UNL     1      44.499 -17.180   7.657  1.00  0.00     0.159 HD
HETATM   28  H   UNL     1      43.475 -16.470   8.904  1.00  0.00     0.159 HD
HETATM   29  O   UNL     1      41.583 -16.027   7.308  1.00  0.00    -0.266 OA
ENDBRANCH   8  25
TORSDOF 4
ENDMDL
MODEL 9
REMARK VINA RESULT:      -8.4      6.008      8.784
REMARK  4 active torsions:
REMARK  status: ('A' for Active; 'I' for Inactive)
REMARK    1  A    between atoms: C_2  and  C_3 
REMARK    2  A    between atoms: C_10  and  C_11 
REMARK       I    between atoms: C_11  and  N_12 
REMARK    3  A    between atoms: N_12  and  C_13 
REMARK    4  A    between atoms: C_20  and  C_21 
REMARK       I    between atoms: C_21  and  N_22 
ROOT
HETATM    1  C   UNL     1      44.349 -11.261   6.036  1.00  0.00     0.035 A 
HETATM    2  C   UNL     1      43.428 -10.751   6.956  1.00  0.00     0.046 A 
HETATM    3  C   UNL     1      43.869 -10.301   8.221  1.00  0.00     0.030 A 
HETATM    4  C   UNL     1      45.219 -10.385   8.533  1.00  0.00     0.063 A 
HETATM    5  N   UNL     1      45.330  -9.890   9.803  1.00  0.00    -0.277 N 
HETATM    6  H   UNL     1      46.174  -9.802  10.356  1.00  0.00     0.189 HD
HETATM    7  N   UNL     1      44.169  -9.482  10.344  1.00  0.00    -0.168 NA
HETATM    8  C   UNL     1      43.256  -9.729   9.376  1.00  0.00     0.156 A 
HETATM    9  C   UNL     1      46.170 -10.891   7.649  1.00  0.00     0.034 A 
HETATM   10  C   UNL     1      45.706 -11.323   6.399  1.00  0.00     0.032 A 
ENDROOT
BRANCH   1  11
HETATM   11  N   UNL     1      44.040 -11.727   4.743  1.00  0.00    -0.324 N 
HETATM   12  C   UNL     1      42.966 -12.346   4.178  1.00  0.00     0.246 C 
HETATM   13  O   UNL     1      42.988 -12.614   2.976  1.00  0.00    -0.268 OA
HETATM   14  H   UNL     1      44.762 -11.601   4.044  1.00  0.00     0.169 HD
BRANCH  12  15
HETATM   15  C   UNL     1      41.768 -12.662   4.974  1.00  0.00     0.082 C 
HETATM   16  C   UNL     1      41.570 -13.857   5.561  1.00  0.00    -0.045 C 
HETATM   17  C   UNL     1      40.326 -14.159   6.350  1.00  0.00     0.049 C 
BRANCH  16  18
HETATM   18  C   UNL     1      42.550 -14.960   5.476  1.00  0.00    -0.008 A 
HETATM   19  C   UNL     1      42.519 -15.944   4.473  1.00  0.00     0.044 A 
HETATM   20 CL   UNL     1      41.307 -15.960   3.240  1.00  0.00    -0.083 Cl
HETATM   21  C   UNL     1      43.480 -16.960   4.448  1.00  0.00     0.024 A 
HETATM   22  C   UNL     1      44.477 -17.008   5.423  1.00  0.00     0.002 A 
HETATM   23  C   UNL     1      44.514 -16.042   6.426  1.00  0.00     0.001 A 
HETATM   24  C   UNL     1      43.558 -15.025   6.452  1.00  0.00     0.013 A 
ENDBRANCH  16  18
ENDBRANCH  12  15
ENDBRANCH   1  11
BRANCH   8  25
HETATM   25  C   UNL     1      41.835  -9.408   9.563  1.00  0.00     0.270 C 
HETATM   26  N   UNL     1      41.276  -9.975  10.676  1.00  0.00    -0.365 N 
HETATM   27  H   UNL     1      41.860 -10.551  11.271  1.00  0.00     0.159 HD
HETATM   28  H   UNL     1      40.307  -9.807  10.892  1.00  0.00     0.159 HD
HETATM   29  O   UNL     1      41.179  -8.691   8.814  1.00  0.00    -0.266 OA
ENDBRANCH   8  25
TORSDOF 4
ENDMDL
MODEL 10
REMARK VINA RESULT:      -8.3      3.748      7.440
REMARK  4 active torsions:
REMARK  status: ('A' for Active; 'I' for Inactive)
REMARK    1  A    between atoms: C_2  and  C_3 
REMARK    2  A    between atoms: C_10  and  C_11 
REMARK       I    between atoms: C_11  and  N_12 
REMARK    3  A    between atoms: N_12  and  C_13 
REMARK    4  A    between atoms: C_20  and  C_21 
REMARK       I    between atoms: C_21  and  N_22 
ROOT
HETATM    1  C   UNL     1      43.191 -14.157   2.882  1.00  0.00     0.035 A 
HETATM    2  C   UNL     1      43.087 -14.579   4.211  1.00  0.00     0.046 A 
HETATM    3  C   UNL     1      43.150 -15.957   4.522  1.00  0.00     0.030 A 
HETATM    4  C   UNL     1      43.307 -16.873   3.491  1.00  0.00     0.063 A 
HETATM    5  N   UNL     1      43.326 -18.099   4.096  1.00  0.00    -0.277 N 
HETATM    6  H   UNL     1      43.423 -19.003   3.647  1.00  0.00     0.189 HD
HETATM    7  N   UNL     1      43.204 -18.062   5.434  1.00  0.00    -0.168 NA
HETATM    8  C   UNL     1      43.096 -16.743   5.712  1.00  0.00     0.156 A 
HETATM    9  C   UNL     1      43.412 -16.497   2.154  1.00  0.00     0.034 A 
HETATM   10  C   UNL     1      43.352 -15.125   1.876  1.00  0.00     0.032 A 
ENDROOT
BRANCH   1  11
HETATM   11  N   UNL     1      43.156 -12.819   2.445  1.00  0.00    -0.324 N 
HETATM   12  C   UNL     1      42.220 -11.829   2.459  1.00  0.00     0.246 C 
HETATM   13  O   UNL     1      42.508 -10.720   2.007  1.00  0.00    -0.268 OA
HETATM   14  H   UNL     1      44.001 -12.476   2.002  1.00  0.00     0.169 HD
BRANCH  12  15
HETATM   15  C   UNL     1      40.886 -12.056   3.041  1.00  0.00     0.082 C 
HETATM   16  C   UNL     1      39.843 -12.522   2.330  1.00  0.00    -0.045 C 
HETATM   17  C   UNL     1      38.486 -12.723   2.945  1.00  0.00     0.049 C 
BRANCH  16  18
HETATM   18  C   UNL     1      39.946 -12.868   0.896  1.00  0.00    -0.008 A 
HETATM   19  C   UNL     1      40.005 -14.190   0.424  1.00  0.00     0.044 A 
HETATM   20 CL   UNL     1      39.976 -15.550   1.493  1.00  0.00    -0.083 Cl
HETATM   21  C   UNL     1      40.098 -14.448  -0.948  1.00  0.00     0.024 A 
HETATM   22  C   UNL     1      40.137 -13.393  -1.860  1.00  0.00     0.002 A 
HETATM   23  C   UNL     1      40.086 -12.079  -1.403  1.00  0.00     0.001 A 
HETATM   24  C   UNL     1      39.990 -11.818  -0.035  1.00  0.00     0.013 A 
ENDBRANCH  16  18
ENDBRANCH  12  15
ENDBRANCH   1  11
BRANCH   8  25
HETATM   25  C   UNL     1      42.955 -16.259   7.092  1.00  0.00     0.270 C 
HETATM   26  N   UNL     1      43.705 -16.951   8.005  1.00  0.00    -0.365 N 
HETATM   27  H   UNL     1      44.284 -17.715   7.677  1.00  0.00     0.159 HD
HETATM   28  H   UNL     1      43.679 -16.689   8.977  1.00  0.00     0.159 HD
HETATM   29  O   UNL     1      42.247 -15.317   7.431  1.00  0.00    -0.266 OA
ENDBRANCH   8  25
TORSDOF 4
ENDMDL
