MODEL 1
REMARK VINA RESULT:      -8.8      0.000      0.000
REMARK  6 active torsions:
REMARK  status: ('A' for Active; 'I' for Inactive)
REMARK    1  A    between atoms: C_2  and  N_3 
REMARK    2  A    between atoms: C_2  and  C_19 
REMARK       I    between atoms: N_3  and  C_4 
REMARK    3  A    between atoms: C_4  and  C_5 
REMARK    4  A    between atoms: C_9  and  C_10 
REMARK    5  A    between atoms: C_13  and  O_14 
REMARK    6  A    between atoms: C_19  and  C_20 
ROOT
HETATM    1  N   UNL     1      41.674 -14.734   4.283  1.00  0.00    -0.347 N 
HETATM    2  C   UNL     1      42.253 -13.704   3.577  1.00  0.00     0.270 C 
HETATM    3  O   UNL     1      43.250 -13.099   3.953  1.00  0.00    -0.266 OA
HETATM    4  H   UNL     1      41.000 -15.292   3.779  1.00  0.00     0.163 HD
ENDROOT
BRANCH   2   5
HETATM    5  C   UNL     1      41.623 -13.415   2.315  1.00  0.00     0.120 A 
HETATM    6  N   UNL     1      41.631 -12.161   1.774  1.00  0.00    -0.272 N 
HETATM    7  H   UNL     1      42.040 -11.325   2.181  1.00  0.00     0.189 HD
HETATM    8  N   UNL     1      41.046 -12.077   0.569  1.00  0.00    -0.174 NA
HETATM    9  C   UNL     1      40.611 -13.321   0.313  1.00  0.00     0.089 A 
HETATM   10  C   UNL     1      40.942 -14.184   1.395  1.00  0.00     0.071 A 
BRANCH   9  11
HETATM   11  C   UNL     1      39.920 -13.663  -0.937  1.00  0.00    -0.005 A 
HETATM   12  C   UNL     1      39.746 -12.698  -1.943  1.00  0.00     0.016 A 
HETATM   13  C   UNL     1      39.110 -13.017  -3.147  1.00  0.00     0.037 A 
HETATM   14  C   UNL     1      38.639 -14.309  -3.348  1.00  0.00     0.065 A 
HETATM   15  C   UNL     1      38.792 -15.280  -2.368  1.00  0.00     0.037 A 
HETATM   16  C   UNL     1      39.430 -14.959  -1.166  1.00  0.00     0.016 A 
BRANCH  14  17
HETATM   17  O   UNL     1      38.019 -14.669  -4.506  1.00  0.00    -0.361 OA
HETATM   18  H   UNL     1      37.181 -14.182  -4.572  1.00  0.00     0.217 HD
ENDBRANCH  14  17
ENDBRANCH   9  11
ENDBRANCH   2   5
BRANCH   1  19
HETATM   19  C   UNL     1      42.250 -15.369   5.481  1.00  0.00     0.030 C 
HETATM   20  C   UNL     1      42.386 -14.351   6.632  1.00  0.00     0.038 C 
HETATM   21  C   UNL     1      41.254 -16.448   5.956  1.00  0.00     0.038 C 
BRANCH  19  22
HETATM   22  C   UNL     1      43.650 -15.996   5.195  1.00  0.00     0.069 C 
BRANCH  22  23
HETATM   23  C   UNL     1      43.647 -17.261   4.359  1.00  0.00    -0.056 A 
HETATM   24  C   UNL     1      44.105 -18.472   4.906  1.00  0.00     0.010 A 
HETATM   25  C   UNL     1      44.125 -19.635   4.136  1.00  0.00     0.043 A 
HETATM   26  C   UNL     1      43.679 -19.594   2.823  1.00  0.00     0.116 A 
HETATM   27  F   UNL     1      43.699 -20.711   2.083  1.00  0.00    -0.206 F 
HETATM   28  C   UNL     1      43.208 -18.412   2.264  1.00  0.00     0.043 A 
HETATM   29  C   UNL     1      43.188 -17.247   3.032  1.00  0.00     0.010 A 
ENDBRANCH  22  23
ENDBRANCH  19  22
ENDBRANCH   1  19
TORSDOF 6
ENDMDL
MODEL 2
REMARK VINA RESULT:      -8.5      3.184      7.820
REMARK  6 active torsions:
REMARK  status: ('A' for Active; 'I' for Inactive)
REMARK    1  A    between atoms: C_2  and  N_3 
REMARK    2  A    between atoms: C_2  and  C_19 
REMARK       I    between atoms: N_3  and  C_4 
REMARK    3  A    between atoms: C_4  and  C_5 
REMARK    4  A    between atoms: C_9  and  C_10 
REMARK    5  A    between atoms: C_13  and  O_14 
REMARK    6  A    between atoms: C_19  and  C_20 
ROOT
HETATM    1  N   UNL     1      41.024 -12.596   0.888  1.00  0.00    -0.347 N 
HETATM    2  C   UNL     1      40.740 -13.480   1.904  1.00  0.00     0.270 C 
HETATM    3  O   UNL     1      39.782 -13.362   2.660  1.00  0.00    -0.266 OA
HETATM    4  H   UNL     1      41.697 -12.908   0.204  1.00  0.00     0.163 HD
ENDROOT
BRANCH   2   5
HETATM    5  C   UNL     1      41.633 -14.606   1.984  1.00  0.00     0.120 A 
HETATM    6  N   UNL     1      42.926 -14.534   1.548  1.00  0.00    -0.272 N 
HETATM    7  H   UNL     1      43.381 -13.732   1.121  1.00  0.00     0.189 HD
HETATM    8  N   UNL     1      43.637 -15.656   1.745  1.00  0.00    -0.174 NA
HETATM    9  C   UNL     1      42.773 -16.513   2.312  1.00  0.00     0.089 A 
HETATM   10  C   UNL     1      41.501 -15.893   2.463  1.00  0.00     0.071 A 
BRANCH   9  11
HETATM   11  C   UNL     1      43.170 -17.870   2.708  1.00  0.00    -0.005 A 
HETATM   12  C   UNL     1      43.792 -18.099   3.946  1.00  0.00     0.016 A 
HETATM   13  C   UNL     1      44.154 -19.390   4.344  1.00  0.00     0.037 A 
HETATM   14  C   UNL     1      43.897 -20.462   3.498  1.00  0.00     0.065 A 
HETATM   15  C   UNL     1      43.289 -20.263   2.267  1.00  0.00     0.037 A 
HETATM   16  C   UNL     1      42.927 -18.972   1.871  1.00  0.00     0.016 A 
BRANCH  14  17
HETATM   17  O   UNL     1      44.225 -21.738   3.845  1.00  0.00    -0.361 OA
HETATM   18  H   UNL     1      44.091 -21.842   4.801  1.00  0.00     0.217 HD
ENDBRANCH  14  17
ENDBRANCH   9  11
ENDBRANCH   2   5
BRANCH   1  19
HETATM   19  C   UNL     1      40.145 -11.496   0.452  1.00  0.00     0.030 C 
HETATM   20  C   UNL     1      40.108 -10.371   1.507  1.00  0.00     0.038 C 
HETATM   21  C   UNL     1      40.765 -10.889  -0.825  1.00  0.00     0.038 C 
BRANCH  19  22
HETATM   22  C   UNL     1      38.688 -11.983   0.181  1.00  0.00     0.069 C 
BRANCH  22  23
HETATM   23  C   UNL     1      38.492 -12.813  -1.072  1.00  0.00    -0.056 A 
HETATM   24  C   UNL     1      37.552 -12.422  -2.040  1.00  0.00     0.010 A 
HETATM   25  C   UNL     1      37.351 -13.192  -3.186  1.00  0.00     0.043 A 
HETATM   26  C   UNL     1      38.096 -14.348  -3.372  1.00  0.00     0.116 A 
HETATM   27  F   UNL     1      37.903 -15.088  -4.472  1.00  0.00    -0.206 F 
HETATM   28  C   UNL     1      39.042 -14.748  -2.436  1.00  0.00     0.043 A 
HETATM   29  C   UNL     1      39.243 -13.979  -1.288  1.00  0.00     0.010 A 
ENDBRANCH  22  23
ENDBRANCH  19  22
ENDBRANCH   1  19
TORSDOF 6
ENDMDL
MODEL 3
REMARK VINA RESULT:      -8.4      4.261      7.244
REMARK  6 active torsions:
REMARK  status: ('A' for Active; 'I' for Inactive)
REMARK    1  A    between atoms: C_2  and  N_3 
REMARK    2  A    between atoms: C_2  and  C_19 
REMARK       I    between atoms: N_3  and  C_4 
REMARK    3  A    between atoms: C_4  and  C_5 
REMARK    4  A    between atoms: C_9  and  C_10 
REMARK    5  A    between atoms: C_13  and  O_14 
REMARK    6  A    between atoms: C_19  and  C_20 
ROOT
HETATM    1  N   UNL     1      41.119 -12.842   4.082  1.00  0.00    -0.347 N 
HETATM    2  C   UNL     1      41.689 -13.000   2.839  1.00  0.00     0.270 C 
HETATM    3  O   UNL     1      41.769 -12.102   2.009  1.00  0.00    -0.266 OA
HETATM    4  H   UNL     1      41.304 -13.575   4.751  1.00  0.00     0.163 HD
ENDROOT
BRANCH   2   5
HETATM    5  C   UNL     1      42.244 -14.306   2.597  1.00  0.00     0.120 A 
HETATM    6  N   UNL     1      43.054 -14.561   1.527  1.00  0.00    -0.272 N 
HETATM    7  H   UNL     1      43.330 -13.903   0.803  1.00  0.00     0.189 HD
HETATM    8  N   UNL     1      43.528 -15.815   1.480  1.00  0.00    -0.174 NA
HETATM    9  C   UNL     1      42.991 -16.424   2.549  1.00  0.00     0.089 A 
HETATM   10  C   UNL     1      42.167 -15.511   3.265  1.00  0.00     0.071 A 
BRANCH   9  11
HETATM   11  C   UNL     1      43.280 -17.826   2.874  1.00  0.00    -0.005 A 
HETATM   12  C   UNL     1      42.952 -18.850   1.969  1.00  0.00     0.016 A 
HETATM   13  C   UNL     1      43.243 -20.188   2.257  1.00  0.00     0.037 A 
HETATM   14  C   UNL     1      43.862 -20.508   3.459  1.00  0.00     0.065 A 
HETATM   15  C   UNL     1      44.191 -19.517   4.373  1.00  0.00     0.037 A 
HETATM   16  C   UNL     1      43.901 -18.180   4.083  1.00  0.00     0.016 A 
BRANCH  14  17
HETATM   17  O   UNL     1      44.171 -21.795   3.781  1.00  0.00    -0.361 OA
HETATM   18  H   UNL     1      45.018 -22.023   3.364  1.00  0.00     0.217 HD
ENDBRANCH  14  17
ENDBRANCH   9  11
ENDBRANCH   2   5
BRANCH   1  19
HETATM   19  C   UNL     1      40.686 -11.558   4.658  1.00  0.00     0.030 C 
HETATM   20  C   UNL     1      39.459 -11.002   3.905  1.00  0.00     0.038 C 
HETATM   21  C   UNL     1      40.232 -11.831   6.108  1.00  0.00     0.038 C 
BRANCH  19  22
HETATM   22  C   UNL     1      41.822 -10.489   4.627  1.00  0.00     0.069 C 
BRANCH  22  23
HETATM   23  C   UNL     1      42.920 -10.664   5.657  1.00  0.00    -0.056 A 
HETATM   24  C   UNL     1      42.841 -10.003   6.895  1.00  0.00     0.010 A 
HETATM   25  C   UNL     1      43.857 -10.143   7.840  1.00  0.00     0.043 A 
HETATM   26  C   UNL     1      44.949 -10.950   7.556  1.00  0.00     0.116 A 
HETATM   27  F   UNL     1      45.926 -11.085   8.463  1.00  0.00    -0.206 F 
HETATM   28  C   UNL     1      45.043 -11.626   6.345  1.00  0.00     0.043 A 
HETATM   29  C   UNL     1      44.027 -11.486   5.397  1.00  0.00     0.010 A 
ENDBRANCH  22  23
ENDBRANCH  19  22
ENDBRANCH   1  19
TORSDOF 6
ENDMDL
MODEL 4
REMARK VINA RESULT:      -8.3      6.516      9.774
REMARK  6 active torsions:
REMARK  status: ('A' for Active; 'I' for Inactive)
REMARK    1  A    between atoms: C_2  and  N_3 
REMARK    2  A    between atoms: C_2  and  C_19 
REMARK       I    between atoms: N_3  and  C_4 
REMARK    3  A    between atoms: C_4  and  C_5 
REMARK    4  A    between atoms: C_9  and  C_10 
REMARK    5  A    between atoms: C_13  and  O_14 
REMARK    6  A    between atoms: C_19  and  C_20 
ROOT
HETATM    1  N   UNL     1      42.961 -10.464   8.338  1.00  0.00    -0.347 N 
HETATM    2  C   UNL     1      43.951 -11.309   7.889  1.00  0.00     0.270 C 
HETATM    3  O   UNL     1      45.125 -11.219   8.227  1.00  0.00    -0.266 OA
HETATM    4  H   UNL     1      42.012 -10.764   8.168  1.00  0.00     0.163 HD
ENDROOT
BRANCH   2   5
HETATM    5  C   UNL     1      43.491 -12.360   7.019  1.00  0.00     0.120 A 
HETATM    6  N   UNL     1      42.258 -12.324   6.432  1.00  0.00    -0.272 N 
HETATM    7  H   UNL     1      41.550 -11.604   6.547  1.00  0.00     0.189 HD
HETATM    8  N   UNL     1      42.009 -13.355   5.610  1.00  0.00    -0.174 NA
HETATM    9  C   UNL     1      43.113 -14.117   5.674  1.00  0.00     0.089 A 
HETATM   10  C   UNL     1      44.058 -13.532   6.562  1.00  0.00     0.071 A 
BRANCH   9  11
HETATM   11  C   UNL     1      43.252 -15.353   4.893  1.00  0.00    -0.005 A 
HETATM   12  C   UNL     1      43.802 -16.507   5.475  1.00  0.00     0.016 A 
HETATM   13  C   UNL     1      43.918 -17.696   4.747  1.00  0.00     0.037 A 
HETATM   14  C   UNL     1      43.487 -17.734   3.427  1.00  0.00     0.065 A 
HETATM   15  C   UNL     1      42.946 -16.606   2.826  1.00  0.00     0.037 A 
HETATM   16  C   UNL     1      42.829 -15.419   3.555  1.00  0.00     0.016 A 
BRANCH  14  17
HETATM   17  O   UNL     1      43.574 -18.870   2.680  1.00  0.00    -0.361 OA
HETATM   18  H   UNL     1      43.533 -18.626   1.741  1.00  0.00     0.217 HD
ENDBRANCH  14  17
ENDBRANCH   9  11
ENDBRANCH   2   5
BRANCH   1  19
HETATM   19  C   UNL     1      43.124  -9.458   9.401  1.00  0.00     0.030 C 
HETATM   20  C   UNL     1      44.185  -8.408   9.008  1.00  0.00     0.038 C 
HETATM   21  C   UNL     1      41.783  -8.706   9.536  1.00  0.00     0.038 C 
BRANCH  19  22
HETATM   22  C   UNL     1      43.535 -10.103  10.761  1.00  0.00     0.069 C 
BRANCH  22  23
HETATM   23  C   UNL     1      43.006  -9.414  12.004  1.00  0.00    -0.056 A 
HETATM   24  C   UNL     1      43.573  -8.203  12.437  1.00  0.00     0.010 A 
HETATM   25  C   UNL     1      43.106  -7.574  13.591  1.00  0.00     0.043 A 
HETATM   26  C   UNL     1      42.066  -8.147  14.309  1.00  0.00     0.116 A 
HETATM   27  F   UNL     1      41.617  -7.543  15.417  1.00  0.00    -0.206 F 
HETATM   28  C   UNL     1      41.480  -9.336  13.892  1.00  0.00     0.043 A 
HETATM   29  C   UNL     1      41.946  -9.968  12.739  1.00  0.00     0.010 A 
ENDBRANCH  22  23
ENDBRANCH  19  22
ENDBRANCH   1  19
TORSDOF 6
ENDMDL
MODEL 5
REMARK VINA RESULT:      -8.0      4.495      8.777
REMARK  6 active torsions:
REMARK  status: ('A' for Active; 'I' for Inactive)
REMARK    1  A    between atoms: C_2  and  N_3 
REMARK    2  A    between atoms: C_2  and  C_19 
REMARK       I    between atoms: N_3  and  C_4 
REMARK    3  A    between atoms: C_4  and  C_5 
REMARK    4  A    between atoms: C_9  and  C_10 
REMARK    5  A    between atoms: C_13  and  O_14 
REMARK    6  A    between atoms: C_19  and  C_20 
ROOT
HETATM    1  N   UNL     1      42.843 -13.068   4.734  1.00  0.00    -0.347 N 
HETATM    2  C   UNL     1      43.614 -11.931   4.824  1.00  0.00     0.270 C 
HETATM    3  O   UNL     1      44.003 -11.296   3.851  1.00  0.00    -0.266 OA
HETATM    4  H   UNL     1      42.406 -13.376   5.590  1.00  0.00     0.163 HD
ENDROOT
BRANCH   2   5
HETATM    5  C   UNL     1      43.892 -11.502   6.169  1.00  0.00     0.120 A 
HETATM    6  N   UNL     1      45.062 -11.816   6.801  1.00  0.00    -0.272 N 
HETATM    7  H   UNL     1      45.824 -12.374   6.427  1.00  0.00     0.189 HD
HETATM    8  N   UNL     1      45.182 -11.293   8.031  1.00  0.00    -0.174 NA
HETATM    9  C   UNL     1      44.034 -10.626   8.232  1.00  0.00     0.089 A 
HETATM   10  C   UNL     1      43.194 -10.748   7.091  1.00  0.00     0.071 A 
BRANCH   9  11
HETATM   11  C   UNL     1      43.771  -9.884   9.472  1.00  0.00    -0.005 A 
HETATM   12  C   UNL     1      43.549  -8.497   9.441  1.00  0.00     0.016 A 
HETATM   13  C   UNL     1      43.275  -7.784  10.613  1.00  0.00     0.037 A 
HETATM   14  C   UNL     1      43.226  -8.458  11.827  1.00  0.00     0.065 A 
HETATM   15  C   UNL     1      43.448  -9.827  11.886  1.00  0.00     0.037 A 
HETATM   16  C   UNL     1      43.720 -10.539  10.714  1.00  0.00     0.016 A 
BRANCH  14  17
HETATM   17  O   UNL     1      42.957  -7.808  12.993  1.00  0.00    -0.361 OA
HETATM   18  H   UNL     1      42.725  -6.888  12.787  1.00  0.00     0.217 HD
ENDBRANCH  14  17
ENDBRANCH   9  11
ENDBRANCH   2   5
BRANCH   1  19
HETATM   19  C   UNL     1      42.236 -13.584   3.495  1.00  0.00     0.030 C 
HETATM   20  C   UNL     1      41.268 -12.550   2.884  1.00  0.00     0.038 C 
HETATM   21  C   UNL     1      43.375 -13.787   2.472  1.00  0.00     0.038 C 
BRANCH  19  22
HETATM   22  C   UNL     1      41.463 -14.918   3.733  1.00  0.00     0.069 C 
BRANCH  22  23
HETATM   23  C   UNL     1      42.278 -16.188   3.583  1.00  0.00    -0.056 A 
HETATM   24  C   UNL     1      42.136 -16.988   2.436  1.00  0.00     0.010 A 
HETATM   25  C   UNL     1      42.867 -18.169   2.300  1.00  0.00     0.043 A 
HETATM   26  C   UNL     1      43.748 -18.547   3.303  1.00  0.00     0.116 A 
HETATM   27  F   UNL     1      44.450 -19.681   3.173  1.00  0.00    -0.206 F 
HETATM   28  C   UNL     1      43.917 -17.765   4.439  1.00  0.00     0.043 A 
HETATM   29  C   UNL     1      43.186 -16.584   4.578  1.00  0.00     0.010 A 
ENDBRANCH  22  23
ENDBRANCH  19  22
ENDBRANCH   1  19
TORSDOF 6
ENDMDL
MODEL 6
REMARK VINA RESULT:      -7.9      3.313      7.464
REMARK  6 active torsions:
REMARK  status: ('A' for Active; 'I' for Inactive)
REMARK    1  A    between atoms: C_2  and  N_3 
REMARK    2  A    between atoms: C_2  and  C_19 
REMARK       I    between atoms: N_3  and  C_4 
REMARK    3  A    between atoms: C_4  and  C_5 
REMARK    4  A    between atoms: C_9  and  C_10 
REMARK    5  A    between atoms: C_13  and  O_14 
REMARK    6  A    between atoms: C_19  and  C_20 
ROOT
HETATM    1  N   UNL     1      42.274 -14.403   2.749  1.00  0.00    -0.347 N 
HETATM    2  C   UNL     1      41.473 -13.493   3.400  1.00  0.00     0.270 C 
HETATM    3  O   UNL     1      40.249 -13.501   3.341  1.00  0.00    -0.266 OA
HETATM    4  H   UNL     1      43.239 -14.433   3.043  1.00  0.00     0.163 HD
ENDROOT
BRANCH   2   5
HETATM    5  C   UNL     1      42.185 -12.544   4.215  1.00  0.00     0.120 A 
HETATM    6  N   UNL     1      42.489 -11.290   3.767  1.00  0.00    -0.272 N 
HETATM    7  H   UNL     1      42.279 -10.905   2.850  1.00  0.00     0.189 HD
HETATM    8  N   UNL     1      43.108 -10.516   4.671  1.00  0.00    -0.174 NA
HETATM    9  C   UNL     1      43.242 -11.298   5.755  1.00  0.00     0.089 A 
HETATM   10  C   UNL     1      42.689 -12.583   5.500  1.00  0.00     0.071 A 
BRANCH   9  11
HETATM   11  C   UNL     1      43.865 -10.812   6.993  1.00  0.00    -0.005 A 
HETATM   12  C   UNL     1      45.232 -11.024   7.235  1.00  0.00     0.016 A 
HETATM   13  C   UNL     1      45.841 -10.546   8.400  1.00  0.00     0.037 A 
HETATM   14  C   UNL     1      45.080  -9.853   9.333  1.00  0.00     0.065 A 
HETATM   15  C   UNL     1      43.726  -9.635   9.121  1.00  0.00     0.037 A 
HETATM   16  C   UNL     1      43.119 -10.112   7.956  1.00  0.00     0.016 A 
BRANCH  14  17
HETATM   17  O   UNL     1      45.630  -9.363  10.480  1.00  0.00    -0.361 OA
HETATM   18  H   UNL     1      44.953  -8.851  10.951  1.00  0.00     0.217 HD
ENDBRANCH  14  17
ENDBRANCH   9  11
ENDBRANCH   2   5
BRANCH   1  19
HETATM   19  C   UNL     1      41.792 -15.602   2.041  1.00  0.00     0.030 C 
HETATM   20  C   UNL     1      40.837 -16.421   2.933  1.00  0.00     0.038 C 
HETATM   21  C   UNL     1      40.967 -15.122   0.828  1.00  0.00     0.038 C 
BRANCH  19  22
HETATM   22  C   UNL     1      42.966 -16.522   1.581  1.00  0.00     0.069 C 
BRANCH  22  23
HETATM   23  C   UNL     1      43.380 -17.601   2.562  1.00  0.00    -0.056 A 
HETATM   24  C   UNL     1      43.309 -18.956   2.194  1.00  0.00     0.010 A 
HETATM   25  C   UNL     1      43.669 -19.956   3.098  1.00  0.00     0.043 A 
HETATM   26  C   UNL     1      44.110 -19.606   4.366  1.00  0.00     0.116 A 
HETATM   27  F   UNL     1      44.455 -20.565   5.235  1.00  0.00    -0.206 F 
HETATM   28  C   UNL     1      44.202 -18.272   4.748  1.00  0.00     0.043 A 
HETATM   29  C   UNL     1      43.841 -17.270   3.846  1.00  0.00     0.010 A 
ENDBRANCH  22  23
ENDBRANCH  19  22
ENDBRANCH   1  19
TORSDOF 6
ENDMDL
MODEL 7
REMARK VINA RESULT:      -7.8      3.849      7.954
REMARK  6 active torsions:
REMARK  status: ('A' for Active; 'I' for Inactive)
REMARK    1  A    between atoms: C_2  and  N_3 
REMARK    2  A    between atoms: C_2  and  C_19 
REMARK       I    between atoms: N_3  and  C_4 
REMARK    3  A    between atoms: C_4  and  C_5 
REMARK    4  A    between atoms: C_9  and  C_10 
REMARK    5  A    between atoms: C_13  and  O_14 
REMARK    6  A    between atoms: C_19  and  C_20 
ROOT
HETATM    1  N   UNL     1      42.404 -14.172   4.633  1.00  0.00    -0.347 N 
HETATM    2  C   UNL     1      42.983 -12.991   4.225  1.00  0.00     0.270 C 
HETATM    3  O   UNL     1      43.424 -12.805   3.098  1.00  0.00    -0.266 OA
HETATM    4  H   UNL     1      41.887 -14.136   5.499  1.00  0.00     0.163 HD
ENDROOT
BRANCH   2   5
HETATM    5  C   UNL     1      42.984 -11.951   5.220  1.00  0.00     0.120 A 
HETATM    6  N   UNL     1      42.465 -10.712   4.972  1.00  0.00    -0.272 N 
HETATM    7  H   UNL     1      42.056 -10.388   4.100  1.00  0.00     0.189 HD
HETATM    8  N   UNL     1      42.498  -9.879   6.023  1.00  0.00    -0.174 NA
HETATM    9  C   UNL     1      43.086 -10.587   7.001  1.00  0.00     0.089 A 
HETATM   10  C   UNL     1      43.419 -11.887   6.528  1.00  0.00     0.071 A 
BRANCH   9  11
HETATM   11  C   UNL     1      43.299 -10.032   8.344  1.00  0.00    -0.005 A 
HETATM   12  C   UNL     1      42.305  -9.255   8.961  1.00  0.00     0.016 A 
HETATM   13  C   UNL     1      42.487  -8.739  10.248  1.00  0.00     0.037 A 
HETATM   14  C   UNL     1      43.672  -8.998  10.926  1.00  0.00     0.065 A 
HETATM   15  C   UNL     1      44.673  -9.757  10.337  1.00  0.00     0.037 A 
HETATM   16  C   UNL     1      44.489 -10.273   9.050  1.00  0.00     0.016 A 
BRANCH  14  17
HETATM   17  O   UNL     1      43.893  -8.523  12.183  1.00  0.00    -0.361 OA
HETATM   18  H   UNL     1      44.550  -7.809  12.132  1.00  0.00     0.217 HD
ENDBRANCH  14  17
ENDBRANCH   9  11
ENDBRANCH   2   5
BRANCH   1  19
HETATM   19  C   UNL     1      42.077 -15.304   3.749  1.00  0.00     0.030 C 
HETATM   20  C   UNL     1      41.352 -16.420   4.530  1.00  0.00     0.038 C 
HETATM   21  C   UNL     1      41.083 -14.788   2.686  1.00  0.00     0.038 C 
BRANCH  19  22
HETATM   22  C   UNL     1      43.347 -15.906   3.072  1.00  0.00     0.069 C 
BRANCH  22  23
HETATM   23  C   UNL     1      43.502 -17.410   3.182  1.00  0.00    -0.056 A 
HETATM   24  C   UNL     1      44.100 -17.979   4.319  1.00  0.00     0.010 A 
HETATM   25  C   UNL     1      44.264 -19.360   4.419  1.00  0.00     0.043 A 
HETATM   26  C   UNL     1      43.824 -20.178   3.387  1.00  0.00     0.116 A 
HETATM   27  F   UNL     1      43.982 -21.504   3.481  1.00  0.00    -0.206 F 
HETATM   28  C   UNL     1      43.217 -19.639   2.258  1.00  0.00     0.043 A 
HETATM   29  C   UNL     1      43.052 -18.257   2.157  1.00  0.00     0.010 A 
ENDBRANCH  22  23
ENDBRANCH  19  22
ENDBRANCH   1  19
TORSDOF 6
ENDMDL
MODEL 8
REMARK VINA RESULT:      -7.7      6.431      9.129
REMARK  6 active torsions:
REMARK  status: ('A' for Active; 'I' for Inactive)
REMARK    1  A    between atoms: C_2  and  N_3 
REMARK    2  A    between atoms: C_2  and  C_19 
REMARK       I    between atoms: N_3  and  C_4 
REMARK    3  A    between atoms: C_4  and  C_5 
REMARK    4  A    between atoms: C_9  and  C_10 
REMARK    5  A    between atoms: C_13  and  O_14 
REMARK    6  A    between atoms: C_19  and  C_20 
ROOT
HETATM    1  N   UNL     1      43.039 -10.461   8.217  1.00  0.00    -0.347 N 
HETATM    2  C   UNL     1      43.927 -11.410   7.766  1.00  0.00     0.270 C 
HETATM    3  O   UNL     1      45.122 -11.408   8.040  1.00  0.00    -0.266 OA
HETATM    4  H   UNL     1      42.060 -10.684   8.112  1.00  0.00     0.163 HD
ENDROOT
BRANCH   2   5
HETATM    5  C   UNL     1      43.333 -12.458   6.979  1.00  0.00     0.120 A 
HETATM    6  N   UNL     1      43.250 -13.744   7.432  1.00  0.00    -0.272 N 
HETATM    7  H   UNL     1      43.594 -14.100   8.319  1.00  0.00     0.189 HD
HETATM    8  N   UNL     1      42.620 -14.584   6.596  1.00  0.00    -0.174 NA
HETATM    9  C   UNL     1      42.295 -13.829   5.534  1.00  0.00     0.089 A 
HETATM   10  C   UNL     1      42.741 -12.493   5.733  1.00  0.00     0.071 A 
BRANCH   9  11
HETATM   11  C   UNL     1      41.566 -14.376   4.383  1.00  0.00    -0.005 A 
HETATM   12  C   UNL     1      40.641 -13.585   3.682  1.00  0.00     0.016 A 
HETATM   13  C   UNL     1      39.957 -14.088   2.570  1.00  0.00     0.037 A 
HETATM   14  C   UNL     1      40.193 -15.393   2.157  1.00  0.00     0.065 A 
HETATM   15  C   UNL     1      41.097 -16.199   2.836  1.00  0.00     0.037 A 
HETATM   16  C   UNL     1      41.781 -15.694   3.946  1.00  0.00     0.016 A 
BRANCH  14  17
HETATM   17  O   UNL     1      39.556 -15.925   1.077  1.00  0.00    -0.361 OA
HETATM   18  H   UNL     1      39.628 -16.893   1.123  1.00  0.00     0.217 HD
ENDBRANCH  14  17
ENDBRANCH   9  11
ENDBRANCH   2   5
BRANCH   1  19
HETATM   19  C   UNL     1      43.345  -9.421   9.215  1.00  0.00     0.030 C 
HETATM   20  C   UNL     1      44.407  -8.438   8.678  1.00  0.00     0.038 C 
HETATM   21  C   UNL     1      42.055  -8.603   9.441  1.00  0.00     0.038 C 
BRANCH  19  22
HETATM   22  C   UNL     1      43.856 -10.030  10.558  1.00  0.00     0.069 C 
BRANCH  22  23
HETATM   23  C   UNL     1      43.248  -9.447  11.819  1.00  0.00    -0.056 A 
HETATM   24  C   UNL     1      42.224 -10.134  12.493  1.00  0.00     0.010 A 
HETATM   25  C   UNL     1      41.645  -9.595  13.643  1.00  0.00     0.043 A 
HETATM   26  C   UNL     1      42.095  -8.374  14.126  1.00  0.00     0.116 A 
HETATM   27  F   UNL     1      41.540  -7.855  15.230  1.00  0.00    -0.206 F 
HETATM   28  C   UNL     1      43.117  -7.683  13.485  1.00  0.00     0.043 A 
HETATM   29  C   UNL     1      43.696  -8.221  12.335  1.00  0.00     0.010 A 
ENDBRANCH  22  23
ENDBRANCH  19  22
ENDBRANCH   1  19
TORSDOF 6
ENDMDL
MODEL 9
REMARK VINA RESULT:      -7.6      2.553      3.320
REMARK  6 active torsions:
REMARK  status: ('A' for Active; 'I' for Inactive)
REMARK    1  A    between atoms: C_2  and  N_3 
REMARK    2  A    between atoms: C_2  and  C_19 
REMARK       I    between atoms: N_3  and  C_4 
REMARK    3  A    between atoms: C_4  and  C_5 
REMARK    4  A    between atoms: C_9  and  C_10 
REMARK    5  A    between atoms: C_13  and  O_14 
REMARK    6  A    between atoms: C_19  and  C_20 
ROOT
HETATM    1  N   UNL     1      41.395 -14.596   1.991  1.00  0.00    -0.347 N 
HETATM    2  C   UNL     1      40.444 -15.181   1.187  1.00  0.00     0.270 C 
HETATM    3  O   UNL     1      39.911 -16.256   1.436  1.00  0.00    -0.266 OA
HETATM    4  H   UNL     1      41.598 -13.625   1.803  1.00  0.00     0.163 HD
ENDROOT
BRANCH   2   5
HETATM    5  C   UNL     1      40.071 -14.401   0.036  1.00  0.00     0.120 A 
HETATM    6  N   UNL     1      39.195 -14.869  -0.902  1.00  0.00    -0.272 N 
HETATM    7  H   UNL     1      38.742 -15.778  -0.911  1.00  0.00     0.189 HD
HETATM    8  N   UNL     1      38.917 -13.995  -1.881  1.00  0.00    -0.174 NA
HETATM    9  C   UNL     1      39.658 -12.913  -1.594  1.00  0.00     0.089 A 
HETATM   10  C   UNL     1      40.407 -13.138  -0.406  1.00  0.00     0.071 A 
BRANCH   9  11
HETATM   11  C   UNL     1      39.625 -11.703  -2.426  1.00  0.00    -0.005 A 
HETATM   12  C   UNL     1      38.402 -11.099  -2.760  1.00  0.00     0.016 A 
HETATM   13  C   UNL     1      38.360  -9.934  -3.534  1.00  0.00     0.037 A 
HETATM   14  C   UNL     1      39.547  -9.369  -3.982  1.00  0.00     0.065 A 
HETATM   15  C   UNL     1      40.769  -9.949  -3.672  1.00  0.00     0.037 A 
HETATM   16  C   UNL     1      40.810 -11.113  -2.897  1.00  0.00     0.016 A 
BRANCH  14  17
HETATM   17  O   UNL     1      39.557  -8.232  -4.732  1.00  0.00    -0.361 OA
HETATM   18  H   UNL     1      40.439  -7.829  -4.669  1.00  0.00     0.217 HD
ENDBRANCH  14  17
ENDBRANCH   9  11
ENDBRANCH   2   5
BRANCH   1  19
HETATM   19  C   UNL     1      41.783 -15.074   3.329  1.00  0.00     0.030 C 
HETATM   20  C   UNL     1      41.615 -13.957   4.382  1.00  0.00     0.038 C 
HETATM   21  C   UNL     1      40.804 -16.202   3.719  1.00  0.00     0.038 C 
BRANCH  19  22
HETATM   22  C   UNL     1      43.257 -15.584   3.366  1.00  0.00     0.069 C 
BRANCH  22  23
HETATM   23  C   UNL     1      43.434 -17.089   3.360  1.00  0.00    -0.056 A 
HETATM   24  C   UNL     1      43.065 -17.840   2.231  1.00  0.00     0.010 A 
HETATM   25  C   UNL     1      43.206 -19.229   2.225  1.00  0.00     0.043 A 
HETATM   26  C   UNL     1      43.723 -19.868   3.343  1.00  0.00     0.116 A 
HETATM   27  F   UNL     1      43.858 -21.201   3.339  1.00  0.00    -0.206 F 
HETATM   28  C   UNL     1      44.109 -19.145   4.466  1.00  0.00     0.043 A 
HETATM   29  C   UNL     1      43.968 -17.756   4.474  1.00  0.00     0.010 A 
ENDBRANCH  22  23
ENDBRANCH  19  22
ENDBRANCH   1  19
TORSDOF 6
ENDMDL
MODEL 10
REMARK VINA RESULT:      -7.4      5.270      7.958
REMARK  6 active torsions:
REMARK  status: ('A' for Active; 'I' for Inactive)
REMARK    1  A    between atoms: C_2  and  N_3 
REMARK    2  A    between atoms: C_2  and  C_19 
REMARK       I    between atoms: N_3  and  C_4 
REMARK    3  A    between atoms: C_4  and  C_5 
REMARK    4  A    between atoms: C_9  and  C_10 
REMARK    5  A    between atoms: C_13  and  O_14 
REMARK    6  A    between atoms: C_19  and  C_20 
ROOT
HETATM    1  N   UNL     1      41.306 -11.814   6.145  1.00  0.00    -0.347 N 
HETATM    2  C   UNL     1      40.662 -13.015   5.951  1.00  0.00     0.270 C 
HETATM    3  O   UNL     1      39.445 -13.149   6.003  1.00  0.00    -0.266 OA
HETATM    4  H   UNL     1      42.275 -11.780   5.865  1.00  0.00     0.163 HD
ENDROOT
BRANCH   2   5
HETATM    5  C   UNL     1      41.532 -14.113   5.624  1.00  0.00     0.120 A 
HETATM    6  N   UNL     1      42.673 -14.368   6.332  1.00  0.00    -0.272 N 
HETATM    7  H   UNL     1      43.033 -13.833   7.117  1.00  0.00     0.189 HD
HETATM    8  N   UNL     1      43.340 -15.460   5.929  1.00  0.00    -0.174 NA
HETATM    9  C   UNL     1      42.626 -15.934   4.895  1.00  0.00     0.089 A 
HETATM   10  C   UNL     1      41.493 -15.105   4.665  1.00  0.00     0.071 A 
BRANCH   9  11
HETATM   11  C   UNL     1      43.016 -17.152   4.173  1.00  0.00    -0.005 A 
HETATM   12  C   UNL     1      43.846 -18.108   4.782  1.00  0.00     0.016 A 
HETATM   13  C   UNL     1      44.206 -19.282   4.112  1.00  0.00     0.037 A 
HETATM   14  C   UNL     1      43.738 -19.503   2.823  1.00  0.00     0.065 A 
HETATM   15  C   UNL     1      42.922 -18.573   2.196  1.00  0.00     0.037 A 
HETATM   16  C   UNL     1      42.562 -17.400   2.867  1.00  0.00     0.016 A 
BRANCH  14  17
HETATM   17  O   UNL     1      44.056 -20.635   2.133  1.00  0.00    -0.361 OA
HETATM   18  H   UNL     1      43.307 -21.250   2.188  1.00  0.00     0.217 HD
ENDBRANCH  14  17
ENDBRANCH   9  11
ENDBRANCH   2   5
BRANCH   1  19
HETATM   19  C   UNL     1      40.639 -10.505   6.267  1.00  0.00     0.030 C 
HETATM   20  C   UNL     1      39.898 -10.141   4.963  1.00  0.00     0.038 C 
HETATM   21  C   UNL     1      39.565 -10.635   7.368  1.00  0.00     0.038 C 
BRANCH  19  22
HETATM   22  C   UNL     1      41.647  -9.364   6.609  1.00  0.00     0.069 C 
BRANCH  22  23
HETATM   23  C   UNL     1      42.663  -9.684   7.688  1.00  0.00    -0.056 A 
HETATM   24  C   UNL     1      42.427  -9.300   9.019  1.00  0.00     0.010 A 
HETATM   25  C   UNL     1      43.367  -9.572  10.013  1.00  0.00     0.043 A 
HETATM   26  C   UNL     1      44.540 -10.237   9.682  1.00  0.00     0.116 A 
HETATM   27  F   UNL     1      45.443 -10.499  10.637  1.00  0.00    -0.206 F 
HETATM   28  C   UNL     1      44.788 -10.640   8.376  1.00  0.00     0.043 A 
HETATM   29  C   UNL     1      43.850 -10.368   7.379  1.00  0.00     0.010 A 
ENDBRANCH  22  23
ENDBRANCH  19  22
ENDBRANCH   1  19
TORSDOF 6
ENDMDL
