MODEL 1
REMARK VINA RESULT:      -8.9      0.000      0.000
REMARK  5 active torsions:
REMARK  status: ('A' for Active; 'I' for Inactive)
REMARK    1  A    between atoms: O_2  and  C_3 
REMARK    2  A    between atoms: C_7  and  C_8 
REMARK    3  A    between atoms: C_8  and  N_9 
REMARK       I    between atoms: N_9  and  C_10 
REMARK    4  A    between atoms: C_10  and  C_12 
REMARK    5  A    between atoms: C_18  and  C_22 
ROOT
HETATM    1  C   UNL     1      40.574 -14.531   4.821  1.00  0.00     0.061 A 
HETATM    2  C   UNL     1      40.121 -13.237   5.058  1.00  0.00     0.108 A 
HETATM    3  N   UNL     1      39.798 -12.662   3.855  1.00  0.00    -0.349 N 
HETATM    4  H   UNL     1      39.447 -11.726   3.708  1.00  0.00     0.167 HD
HETATM    5  C   UNL     1      40.029 -13.546   2.842  1.00  0.00     0.139 A 
HETATM    6  N   UNL     1      39.809 -13.276   1.544  1.00  0.00    -0.230 NA
HETATM    7  C   UNL     1      40.120 -14.295   0.701  1.00  0.00     0.069 A 
HETATM    8  C   UNL     1      40.612 -15.529   1.142  1.00  0.00     0.033 A 
HETATM    9  C   UNL     1      40.820 -15.758   2.506  1.00  0.00     0.018 A 
HETATM   10  C   UNL     1      40.517 -14.718   3.399  1.00  0.00     0.027 A 
ENDROOT
BRANCH   1  11
HETATM   11  C   UNL     1      41.035 -15.507   5.809  1.00  0.00     0.254 C 
HETATM   12  N   UNL     1      42.359 -15.863   5.708  1.00  0.00    -0.353 N 
HETATM   13  H   UNL     1      42.967 -15.357   5.081  1.00  0.00     0.163 HD
HETATM   14  O   UNL     1      40.297 -15.970   6.672  1.00  0.00    -0.268 OA
BRANCH  12  15
HETATM   15  C   UNL     1      42.955 -16.781   6.646  1.00  0.00     0.161 C 
BRANCH  15  16
HETATM   16  C   UNL     1      43.365 -18.053   5.955  1.00  0.00    -0.038 A 
HETATM   17  C   UNL     1      43.407 -19.259   6.671  1.00  0.00     0.009 A 
HETATM   18  C   UNL     1      43.757 -20.445   6.031  1.00  0.00     0.003 A 
HETATM   19  C   UNL     1      44.065 -20.436   4.671  1.00  0.00     0.037 A 
HETATM   20  C   UNL     1      44.024 -19.247   3.938  1.00  0.00     0.068 A 
HETATM   21  C   UNL     1      43.670 -18.059   4.583  1.00  0.00     0.045 A 
BRANCH  20  22
HETATM   22  O   UNL     1      44.344 -19.382   2.616  1.00  0.00    -0.356 OA
HETATM   23  C   UNL     1      43.596 -20.329   1.864  1.00  0.00     0.210 C 
ENDBRANCH  20  22
ENDBRANCH  15  16
ENDBRANCH  12  15
ENDBRANCH   1  11
BRANCH   7  24
HETATM   24  C   UNL     1      39.887 -14.006  -0.732  1.00  0.00    -0.005 A 
HETATM   25  C   UNL     1      39.146 -14.860  -1.560  1.00  0.00     0.033 A 
HETATM   26  C   UNL     1      38.966 -14.527  -2.896  1.00  0.00     0.117 A 
HETATM   27  N   UNL     1      39.466 -13.413  -3.467  1.00  0.00    -0.273 NA
HETATM   28  C   UNL     1      40.187 -12.602  -2.668  1.00  0.00     0.117 A 
HETATM   29  C   UNL     1      40.420 -12.851  -1.324  1.00  0.00     0.033 A 
ENDBRANCH   7  24
TORSDOF 5
ENDMDL
MODEL 2
REMARK VINA RESULT:      -8.7      3.054      7.940
REMARK  5 active torsions:
REMARK  status: ('A' for Active; 'I' for Inactive)
REMARK    1  A    between atoms: O_2  and  C_3 
REMARK    2  A    between atoms: C_7  and  C_8 
REMARK    3  A    between atoms: C_8  and  N_9 
REMARK       I    between atoms: N_9  and  C_10 
REMARK    4  A    between atoms: C_10  and  C_12 
REMARK    5  A    between atoms: C_18  and  C_22 
ROOT
HETATM    1  C   UNL     1      42.680 -12.968   3.655  1.00  0.00     0.061 A 
HETATM    2  C   UNL     1      42.545 -13.045   5.037  1.00  0.00     0.108 A 
HETATM    3  N   UNL     1      42.712 -14.352   5.420  1.00  0.00    -0.349 N 
HETATM    4  H   UNL     1      42.664 -14.716   6.361  1.00  0.00     0.167 HD
HETATM    5  C   UNL     1      42.951 -15.129   4.324  1.00  0.00     0.139 A 
HETATM    6  N   UNL     1      43.157 -16.455   4.373  1.00  0.00    -0.230 NA
HETATM    7  C   UNL     1      43.363 -17.034   3.161  1.00  0.00     0.069 A 
HETATM    8  C   UNL     1      43.377 -16.313   1.962  1.00  0.00     0.033 A 
HETATM    9  C   UNL     1      43.160 -14.931   1.968  1.00  0.00     0.018 A 
HETATM   10  C   UNL     1      42.934 -14.308   3.206  1.00  0.00     0.027 A 
ENDROOT
BRANCH   1  11
HETATM   11  C   UNL     1      42.569 -11.776   2.814  1.00  0.00     0.254 C 
HETATM   12  N   UNL     1      41.595 -11.830   1.846  1.00  0.00    -0.353 N 
HETATM   13  H   UNL     1      40.934 -12.591   1.843  1.00  0.00     0.163 HD
HETATM   14  O   UNL     1      43.287 -10.793   2.967  1.00  0.00    -0.268 OA
BRANCH  12  15
HETATM   15  C   UNL     1      41.349 -10.706   0.978  1.00  0.00     0.161 C 
BRANCH  15  16
HETATM   16  C   UNL     1      41.049 -11.171  -0.422  1.00  0.00    -0.038 A 
HETATM   17  C   UNL     1      41.190 -10.287  -1.501  1.00  0.00     0.009 A 
HETATM   18  C   UNL     1      40.942 -10.719  -2.801  1.00  0.00     0.003 A 
HETATM   19  C   UNL     1      40.555 -12.039  -3.032  1.00  0.00     0.037 A 
HETATM   20  C   UNL     1      40.414 -12.937  -1.972  1.00  0.00     0.068 A 
HETATM   21  C   UNL     1      40.665 -12.501  -0.669  1.00  0.00     0.045 A 
BRANCH  20  22
HETATM   22  O   UNL     1      40.033 -14.198  -2.340  1.00  0.00    -0.356 OA
HETATM   23  C   UNL     1      38.820 -14.319  -3.072  1.00  0.00     0.210 C 
ENDBRANCH  20  22
ENDBRANCH  15  16
ENDBRANCH  12  15
ENDBRANCH   1  11
BRANCH   7  24
HETATM   24  C   UNL     1      43.584 -18.497   3.204  1.00  0.00    -0.005 A 
HETATM   25  C   UNL     1      44.025 -19.156   4.360  1.00  0.00     0.033 A 
HETATM   26  C   UNL     1      44.212 -20.532   4.330  1.00  0.00     0.117 A 
HETATM   27  N   UNL     1      43.994 -21.297   3.242  1.00  0.00    -0.273 NA
HETATM   28  C   UNL     1      43.582 -20.655   2.131  1.00  0.00     0.117 A 
HETATM   29  C   UNL     1      43.369 -19.287   2.066  1.00  0.00     0.033 A 
ENDBRANCH   7  24
TORSDOF 5
ENDMDL
MODEL 3
REMARK VINA RESULT:      -8.5      4.550      8.045
REMARK  5 active torsions:
REMARK  status: ('A' for Active; 'I' for Inactive)
REMARK    1  A    between atoms: O_2  and  C_3 
REMARK    2  A    between atoms: C_7  and  C_8 
REMARK    3  A    between atoms: C_8  and  N_9 
REMARK       I    between atoms: N_9  and  C_10 
REMARK    4  A    between atoms: C_10  and  C_12 
REMARK    5  A    between atoms: C_18  and  C_22 
ROOT
HETATM    1  C   UNL     1      42.503 -13.082   4.313  1.00  0.00     0.061 A 
HETATM    2  C   UNL     1      42.903 -12.766   3.018  1.00  0.00     0.108 A 
HETATM    3  N   UNL     1      43.253 -13.926   2.375  1.00  0.00    -0.349 N 
HETATM    4  H   UNL     1      43.589 -14.012   1.426  1.00  0.00     0.167 HD
HETATM    5  C   UNL     1      43.094 -14.989   3.216  1.00  0.00     0.139 A 
HETATM    6  N   UNL     1      43.355 -16.262   2.876  1.00  0.00    -0.230 NA
HETATM    7  C   UNL     1      43.139 -17.161   3.871  1.00  0.00     0.069 A 
HETATM    8  C   UNL     1      42.669 -16.800   5.139  1.00  0.00     0.033 A 
HETATM    9  C   UNL     1      42.410 -15.459   5.439  1.00  0.00     0.018 A 
HETATM   10  C   UNL     1      42.634 -14.507   4.432  1.00  0.00     0.027 A 
ENDROOT
BRANCH   1  11
HETATM   11  C   UNL     1      42.056 -12.160   5.357  1.00  0.00     0.254 C 
HETATM   12  N   UNL     1      42.874 -11.077   5.573  1.00  0.00    -0.353 N 
HETATM   13  H   UNL     1      43.638 -10.892   4.939  1.00  0.00     0.163 HD
HETATM   14  O   UNL     1      41.019 -12.333   5.989  1.00  0.00    -0.268 OA
BRANCH  12  15
HETATM   15  C   UNL     1      42.529 -10.067   6.541  1.00  0.00     0.161 C 
BRANCH  15  16
HETATM   16  C   UNL     1      43.495 -10.084   7.694  1.00  0.00    -0.038 A 
HETATM   17  C   UNL     1      44.825 -10.482   7.491  1.00  0.00     0.009 A 
HETATM   18  C   UNL     1      45.731 -10.472   8.548  1.00  0.00     0.003 A 
HETATM   19  C   UNL     1      45.316 -10.061   9.815  1.00  0.00     0.037 A 
HETATM   20  C   UNL     1      43.998  -9.656  10.037  1.00  0.00     0.068 A 
HETATM   21  C   UNL     1      43.092  -9.665   8.974  1.00  0.00     0.045 A 
BRANCH  20  22
HETATM   22  O   UNL     1      43.729  -9.275  11.323  1.00  0.00    -0.356 OA
HETATM   23  C   UNL     1      42.896 -10.136  12.090  1.00  0.00     0.210 C 
ENDBRANCH  20  22
ENDBRANCH  15  16
ENDBRANCH  12  15
ENDBRANCH   1  11
BRANCH   7  24
HETATM   24  C   UNL     1      43.430 -18.566   3.509  1.00  0.00    -0.005 A 
HETATM   25  C   UNL     1      43.269 -19.055   2.205  1.00  0.00     0.033 A 
HETATM   26  C   UNL     1      43.561 -20.385   1.934  1.00  0.00     0.117 A 
HETATM   27  N   UNL     1      43.999 -21.262   2.859  1.00  0.00    -0.273 NA
HETATM   28  C   UNL     1      44.141 -20.789   4.113  1.00  0.00     0.117 A 
HETATM   29  C   UNL     1      43.874 -19.478   4.478  1.00  0.00     0.033 A 
ENDBRANCH   7  24
TORSDOF 5
ENDMDL
MODEL 4
REMARK VINA RESULT:      -8.5      3.569      8.277
REMARK  5 active torsions:
REMARK  status: ('A' for Active; 'I' for Inactive)
REMARK    1  A    between atoms: O_2  and  C_3 
REMARK    2  A    between atoms: C_7  and  C_8 
REMARK    3  A    between atoms: C_8  and  N_9 
REMARK       I    between atoms: N_9  and  C_10 
REMARK    4  A    between atoms: C_10  and  C_12 
REMARK    5  A    between atoms: C_18  and  C_22 
ROOT
HETATM    1  C   UNL     1      42.685 -12.959   3.649  1.00  0.00     0.061 A 
HETATM    2  C   UNL     1      42.581 -13.027   5.035  1.00  0.00     0.108 A 
HETATM    3  N   UNL     1      42.754 -14.332   5.422  1.00  0.00    -0.349 N 
HETATM    4  H   UNL     1      42.727 -14.690   6.366  1.00  0.00     0.167 HD
HETATM    5  C   UNL     1      42.968 -15.116   4.326  1.00  0.00     0.139 A 
HETATM    6  N   UNL     1      43.173 -16.442   4.379  1.00  0.00    -0.230 NA
HETATM    7  C   UNL     1      43.350 -17.029   3.166  1.00  0.00     0.069 A 
HETATM    8  C   UNL     1      43.338 -16.315   1.962  1.00  0.00     0.033 A 
HETATM    9  C   UNL     1      43.123 -14.933   1.964  1.00  0.00     0.018 A 
HETATM   10  C   UNL     1      42.927 -14.302   3.203  1.00  0.00     0.027 A 
ENDROOT
BRANCH   1  11
HETATM   11  C   UNL     1      42.557 -11.772   2.804  1.00  0.00     0.254 C 
HETATM   12  N   UNL     1      41.561 -11.830   1.858  1.00  0.00    -0.353 N 
HETATM   13  H   UNL     1      40.898 -12.591   1.875  1.00  0.00     0.163 HD
HETATM   14  O   UNL     1      43.279 -10.789   2.934  1.00  0.00    -0.268 OA
BRANCH  12  15
HETATM   15  C   UNL     1      41.296 -10.711   0.989  1.00  0.00     0.161 C 
BRANCH  15  16
HETATM   16  C   UNL     1      41.070 -11.178  -0.424  1.00  0.00    -0.038 A 
HETATM   17  C   UNL     1      40.764 -12.523  -0.679  1.00  0.00     0.009 A 
HETATM   18  C   UNL     1      40.525 -12.955  -1.981  1.00  0.00     0.003 A 
HETATM   19  C   UNL     1      40.585 -12.045  -3.036  1.00  0.00     0.037 A 
HETATM   20  C   UNL     1      40.882 -10.701  -2.804  1.00  0.00     0.068 A 
HETATM   21  C   UNL     1      41.121 -10.270  -1.496  1.00  0.00     0.045 A 
BRANCH  20  22
HETATM   22  O   UNL     1      40.905  -9.919  -3.926  1.00  0.00    -0.356 OA
HETATM   23  C   UNL     1      41.243  -8.549  -3.752  1.00  0.00     0.210 C 
ENDBRANCH  20  22
ENDBRANCH  15  16
ENDBRANCH  12  15
ENDBRANCH   1  11
BRANCH   7  24
HETATM   24  C   UNL     1      43.570 -18.492   3.213  1.00  0.00    -0.005 A 
HETATM   25  C   UNL     1      43.984 -19.152   4.379  1.00  0.00     0.033 A 
HETATM   26  C   UNL     1      44.171 -20.527   4.352  1.00  0.00     0.117 A 
HETATM   27  N   UNL     1      43.979 -21.292   3.259  1.00  0.00    -0.273 NA
HETATM   28  C   UNL     1      43.592 -20.650   2.139  1.00  0.00     0.117 A 
HETATM   29  C   UNL     1      43.380 -19.282   2.070  1.00  0.00     0.033 A 
ENDBRANCH   7  24
TORSDOF 5
ENDMDL
MODEL 5
REMARK VINA RESULT:      -8.0      3.921      8.095
REMARK  5 active torsions:
REMARK  status: ('A' for Active; 'I' for Inactive)
REMARK    1  A    between atoms: O_2  and  C_3 
REMARK    2  A    between atoms: C_7  and  C_8 
REMARK    3  A    between atoms: C_8  and  N_9 
REMARK       I    between atoms: N_9  and  C_10 
REMARK    4  A    between atoms: C_10  and  C_12 
REMARK    5  A    between atoms: C_18  and  C_22 
ROOT
HETATM    1  C   UNL     1      42.292 -15.934   4.401  1.00  0.00     0.061 A 
HETATM    2  C   UNL     1      42.620 -16.729   5.494  1.00  0.00     0.108 A 
HETATM    3  N   UNL     1      43.223 -15.940   6.442  1.00  0.00    -0.349 N 
HETATM    4  H   UNL     1      43.575 -16.237   7.340  1.00  0.00     0.167 HD
HETATM    5  C   UNL     1      43.296 -14.652   5.994  1.00  0.00     0.139 A 
HETATM    6  N   UNL     1      43.834 -13.642   6.696  1.00  0.00    -0.230 NA
HETATM    7  C   UNL     1      43.816 -12.444   6.055  1.00  0.00     0.069 A 
HETATM    8  C   UNL     1      43.270 -12.268   4.778  1.00  0.00     0.033 A 
HETATM    9  C   UNL     1      42.719 -13.355   4.092  1.00  0.00     0.018 A 
HETATM   10  C   UNL     1      42.734 -14.607   4.727  1.00  0.00     0.027 A 
ENDROOT
BRANCH   1  11
HETATM   11  C   UNL     1      41.646 -16.354   3.157  1.00  0.00     0.254 C 
HETATM   12  N   UNL     1      40.574 -15.588   2.766  1.00  0.00    -0.353 N 
HETATM   13  H   UNL     1      40.372 -14.725   3.248  1.00  0.00     0.163 HD
HETATM   14  O   UNL     1      42.037 -17.315   2.503  1.00  0.00    -0.268 OA
BRANCH  12  15
HETATM   15  C   UNL     1      39.874 -15.864   1.536  1.00  0.00     0.161 C 
BRANCH  15  16
HETATM   16  C   UNL     1      40.093 -14.756   0.541  1.00  0.00    -0.038 A 
HETATM   17  C   UNL     1      40.697 -13.557   0.946  1.00  0.00     0.009 A 
HETATM   18  C   UNL     1      40.929 -12.540   0.023  1.00  0.00     0.003 A 
HETATM   19  C   UNL     1      40.561 -12.715  -1.311  1.00  0.00     0.037 A 
HETATM   20  C   UNL     1      39.964 -13.904  -1.736  1.00  0.00     0.068 A 
HETATM   21  C   UNL     1      39.734 -14.923  -0.808  1.00  0.00     0.045 A 
BRANCH  20  22
HETATM   22  O   UNL     1      39.659 -13.943  -3.069  1.00  0.00    -0.356 OA
HETATM   23  C   UNL     1      38.299 -14.173  -3.414  1.00  0.00     0.210 C 
ENDBRANCH  20  22
ENDBRANCH  15  16
ENDBRANCH  12  15
ENDBRANCH   1  11
BRANCH   7  24
HETATM   24  C   UNL     1      44.413 -11.325   6.818  1.00  0.00    -0.005 A 
HETATM   25  C   UNL     1      45.799 -11.143   6.924  1.00  0.00     0.033 A 
HETATM   26  C   UNL     1      46.291 -10.070   7.656  1.00  0.00     0.117 A 
HETATM   27  N   UNL     1      45.512  -9.170   8.288  1.00  0.00    -0.273 NA
HETATM   28  C   UNL     1      44.181  -9.359   8.193  1.00  0.00     0.117 A 
HETATM   29  C   UNL     1      43.598 -10.398   7.485  1.00  0.00     0.033 A 
ENDBRANCH   7  24
TORSDOF 5
ENDMDL
MODEL 6
REMARK VINA RESULT:      -7.9      4.599      8.572
REMARK  5 active torsions:
REMARK  status: ('A' for Active; 'I' for Inactive)
REMARK    1  A    between atoms: O_2  and  C_3 
REMARK    2  A    between atoms: C_7  and  C_8 
REMARK    3  A    between atoms: C_8  and  N_9 
REMARK       I    between atoms: N_9  and  C_10 
REMARK    4  A    between atoms: C_10  and  C_12 
REMARK    5  A    between atoms: C_18  and  C_22 
ROOT
HETATM    1  C   UNL     1      42.916 -13.538   5.909  1.00  0.00     0.061 A 
HETATM    2  C   UNL     1      43.331 -14.012   7.150  1.00  0.00     0.108 A 
HETATM    3  N   UNL     1      43.622 -15.348   7.031  1.00  0.00    -0.349 N 
HETATM    4  H   UNL     1      43.941 -15.964   7.764  1.00  0.00     0.167 HD
HETATM    5  C   UNL     1      43.406 -15.756   5.746  1.00  0.00     0.139 A 
HETATM    6  N   UNL     1      43.602 -17.013   5.314  1.00  0.00    -0.230 NA
HETATM    7  C   UNL     1      43.312 -17.204   4.001  1.00  0.00     0.069 A 
HETATM    8  C   UNL     1      42.864 -16.179   3.160  1.00  0.00     0.033 A 
HETATM    9  C   UNL     1      42.680 -14.886   3.661  1.00  0.00     0.018 A 
HETATM   10  C   UNL     1      42.962 -14.663   5.018  1.00  0.00     0.027 A 
ENDROOT
BRANCH   1  11
HETATM   11  C   UNL     1      42.497 -12.178   5.571  1.00  0.00     0.254 C 
HETATM   12  N   UNL     1      42.390 -11.315   6.636  1.00  0.00    -0.353 N 
HETATM   13  H   UNL     1      42.724 -11.598   7.545  1.00  0.00     0.163 HD
HETATM   14  O   UNL     1      42.267 -11.827   4.418  1.00  0.00    -0.268 OA
BRANCH  12  15
HETATM   15  C   UNL     1      42.030  -9.933   6.439  1.00  0.00     0.161 C 
BRANCH  15  16
HETATM   16  C   UNL     1      42.539  -9.085   7.572  1.00  0.00    -0.038 A 
HETATM   17  C   UNL     1      42.469  -7.687   7.490  1.00  0.00     0.009 A 
HETATM   18  C   UNL     1      42.911  -6.897   8.548  1.00  0.00     0.003 A 
HETATM   19  C   UNL     1      43.424  -7.499   9.697  1.00  0.00     0.037 A 
HETATM   20  C   UNL     1      43.498  -8.889   9.802  1.00  0.00     0.068 A 
HETATM   21  C   UNL     1      43.051  -9.679   8.739  1.00  0.00     0.045 A 
BRANCH  20  22
HETATM   22  O   UNL     1      44.017  -9.345  10.982  1.00  0.00    -0.356 OA
HETATM   23  C   UNL     1      43.651 -10.659  11.384  1.00  0.00     0.210 C 
ENDBRANCH  20  22
ENDBRANCH  15  16
ENDBRANCH  12  15
ENDBRANCH   1  11
BRANCH   7  24
HETATM   24  C   UNL     1      43.519 -18.588   3.517  1.00  0.00    -0.005 A 
HETATM   25  C   UNL     1      43.244 -18.970   2.196  1.00  0.00     0.033 A 
HETATM   26  C   UNL     1      43.461 -20.285   1.809  1.00  0.00     0.117 A 
HETATM   27  N   UNL     1      43.928 -21.245   2.632  1.00  0.00    -0.273 NA
HETATM   28  C   UNL     1      44.178 -20.873   3.904  1.00  0.00     0.117 A 
HETATM   29  C   UNL     1      43.992 -19.585   4.381  1.00  0.00     0.033 A 
ENDBRANCH   7  24
TORSDOF 5
ENDMDL
MODEL 7
REMARK VINA RESULT:      -7.7      3.308      7.908
REMARK  5 active torsions:
REMARK  status: ('A' for Active; 'I' for Inactive)
REMARK    1  A    between atoms: O_2  and  C_3 
REMARK    2  A    between atoms: C_7  and  C_8 
REMARK    3  A    between atoms: C_8  and  N_9 
REMARK       I    between atoms: N_9  and  C_10 
REMARK    4  A    between atoms: C_10  and  C_12 
REMARK    5  A    between atoms: C_18  and  C_22 
ROOT
HETATM    1  C   UNL     1      42.788 -13.099   4.698  1.00  0.00     0.061 A 
HETATM    2  C   UNL     1      43.119 -13.311   6.032  1.00  0.00     0.108 A 
HETATM    3  N   UNL     1      43.415 -14.640   6.202  1.00  0.00    -0.349 N 
HETATM    4  H   UNL     1      43.685 -15.093   7.064  1.00  0.00     0.167 HD
HETATM    5  C   UNL     1      43.285 -15.299   5.014  1.00  0.00     0.139 A 
HETATM    6  N   UNL     1      43.508 -16.615   4.857  1.00  0.00    -0.230 NA
HETATM    7  C   UNL     1      43.306 -17.067   3.592  1.00  0.00     0.069 A 
HETATM    8  C   UNL     1      42.915 -16.237   2.535  1.00  0.00     0.033 A 
HETATM    9  C   UNL     1      42.699 -14.872   2.754  1.00  0.00     0.018 A 
HETATM   10  C   UNL     1      42.891 -14.379   4.055  1.00  0.00     0.027 A 
ENDROOT
BRANCH   1  11
HETATM   11  C   UNL     1      42.393 -11.839   4.067  1.00  0.00     0.254 C 
HETATM   12  N   UNL     1      41.060 -11.733   3.752  1.00  0.00    -0.353 N 
HETATM   13  H   UNL     1      40.411 -12.433   4.078  1.00  0.00     0.163 HD
HETATM   14  O   UNL     1      43.193 -10.936   3.844  1.00  0.00    -0.268 OA
BRANCH  12  15
HETATM   15  C   UNL     1      40.529 -10.527   3.168  1.00  0.00     0.161 C 
BRANCH  15  16
HETATM   16  C   UNL     1      39.591 -10.853   2.037  1.00  0.00    -0.038 A 
HETATM   17  C   UNL     1      38.205 -10.855   2.253  1.00  0.00     0.009 A 
HETATM   18  C   UNL     1      37.330 -11.127   1.204  1.00  0.00     0.003 A 
HETATM   19  C   UNL     1      37.834 -11.394  -0.069  1.00  0.00     0.037 A 
HETATM   20  C   UNL     1      39.211 -11.391  -0.306  1.00  0.00     0.068 A 
HETATM   21  C   UNL     1      40.085 -11.117   0.748  1.00  0.00     0.045 A 
BRANCH  20  22
HETATM   22  O   UNL     1      39.566 -11.665  -1.598  1.00  0.00    -0.356 OA
HETATM   23  C   UNL     1      38.530 -12.080  -2.479  1.00  0.00     0.210 C 
ENDBRANCH  20  22
ENDBRANCH  15  16
ENDBRANCH  12  15
ENDBRANCH   1  11
BRANCH   7  24
HETATM   24  C   UNL     1      43.542 -18.517   3.409  1.00  0.00    -0.005 A 
HETATM   25  C   UNL     1      43.333 -19.163   2.182  1.00  0.00     0.033 A 
HETATM   26  C   UNL     1      43.575 -20.527   2.081  1.00  0.00     0.117 A 
HETATM   27  N   UNL     1      44.007 -21.292   3.102  1.00  0.00    -0.273 NA
HETATM   28  C   UNL     1      44.194 -20.667   4.282  1.00  0.00     0.117 A 
HETATM   29  C   UNL     1      43.979 -19.312   4.478  1.00  0.00     0.033 A 
ENDBRANCH   7  24
TORSDOF 5
ENDMDL
MODEL 8
REMARK VINA RESULT:      -7.7      4.927      8.890
REMARK  5 active torsions:
REMARK  status: ('A' for Active; 'I' for Inactive)
REMARK    1  A    between atoms: O_2  and  C_3 
REMARK    2  A    between atoms: C_7  and  C_8 
REMARK    3  A    between atoms: C_8  and  N_9 
REMARK       I    between atoms: N_9  and  C_10 
REMARK    4  A    between atoms: C_10  and  C_12 
REMARK    5  A    between atoms: C_18  and  C_22 
ROOT
HETATM    1  C   UNL     1      43.509 -13.050   6.126  1.00  0.00     0.061 A 
HETATM    2  C   UNL     1      42.519 -12.711   5.208  1.00  0.00     0.108 A 
HETATM    3  N   UNL     1      42.232 -13.818   4.449  1.00  0.00    -0.349 N 
HETATM    4  H   UNL     1      41.559 -13.877   3.698  1.00  0.00     0.167 HD
HETATM    5  C   UNL     1      43.009 -14.867   4.848  1.00  0.00     0.139 A 
HETATM    6  N   UNL     1      42.959 -16.091   4.296  1.00  0.00    -0.230 NA
HETATM    7  C   UNL     1      43.830 -16.983   4.837  1.00  0.00     0.069 A 
HETATM    8  C   UNL     1      44.694 -16.666   5.891  1.00  0.00     0.033 A 
HETATM    9  C   UNL     1      44.702 -15.376   6.431  1.00  0.00     0.018 A 
HETATM   10  C   UNL     1      43.820 -14.430   5.884  1.00  0.00     0.027 A 
ENDROOT
BRANCH   1  11
HETATM   11  C   UNL     1      44.129 -12.181   7.127  1.00  0.00     0.254 C 
HETATM   12  N   UNL     1      43.252 -11.497   7.935  1.00  0.00    -0.353 N 
HETATM   13  H   UNL     1      42.268 -11.717   7.904  1.00  0.00     0.163 HD
HETATM   14  O   UNL     1      45.346 -12.076   7.245  1.00  0.00    -0.268 OA
BRANCH  12  15
HETATM   15  C   UNL     1      43.729 -10.642   8.992  1.00  0.00     0.161 C 
BRANCH  15  16
HETATM   16  C   UNL     1      43.304  -9.218   8.756  1.00  0.00    -0.038 A 
HETATM   17  C   UNL     1      43.592  -8.231   9.711  1.00  0.00     0.009 A 
HETATM   18  C   UNL     1      43.227  -6.907   9.485  1.00  0.00     0.003 A 
HETATM   19  C   UNL     1      42.575  -6.558   8.302  1.00  0.00     0.037 A 
HETATM   20  C   UNL     1      42.284  -7.524   7.337  1.00  0.00     0.068 A 
HETATM   21  C   UNL     1      42.653  -8.852   7.565  1.00  0.00     0.045 A 
BRANCH  20  22
HETATM   22  O   UNL     1      41.646  -7.044   6.226  1.00  0.00    -0.356 OA
HETATM   23  C   UNL     1      41.617  -5.633   6.056  1.00  0.00     0.210 C 
ENDBRANCH  20  22
ENDBRANCH  15  16
ENDBRANCH  12  15
ENDBRANCH   1  11
BRANCH   7  24
HETATM   24  C   UNL     1      43.788 -18.333   4.231  1.00  0.00    -0.005 A 
HETATM   25  C   UNL     1      43.478 -18.540   2.879  1.00  0.00     0.033 A 
HETATM   26  C   UNL     1      43.457 -19.834   2.376  1.00  0.00     0.117 A 
HETATM   27  N   UNL     1      43.720 -20.932   3.112  1.00  0.00    -0.273 NA
HETATM   28  C   UNL     1      44.005 -20.726   4.413  1.00  0.00     0.117 A 
HETATM   29  C   UNL     1      44.049 -19.473   5.004  1.00  0.00     0.033 A 
ENDBRANCH   7  24
TORSDOF 5
ENDMDL
MODEL 9
REMARK VINA RESULT:      -7.6      2.669      3.444
REMARK  5 active torsions:
REMARK  status: ('A' for Active; 'I' for Inactive)
REMARK    1  A    between atoms: O_2  and  C_3 
REMARK    2  A    between atoms: C_7  and  C_8 
REMARK    3  A    between atoms: C_8  and  N_9 
REMARK       I    between atoms: N_9  and  C_10 
REMARK    4  A    between atoms: C_10  and  C_12 
REMARK    5  A    between atoms: C_18  and  C_22 
ROOT
HETATM    1  C   UNL     1      41.878 -12.319   3.782  1.00  0.00     0.061 A 
HETATM    2  C   UNL     1      42.283 -11.099   4.313  1.00  0.00     0.108 A 
HETATM    3  N   UNL     1      42.289 -10.166   3.306  1.00  0.00    -0.349 N 
HETATM    4  H   UNL     1      42.545  -9.192   3.387  1.00  0.00     0.167 HD
HETATM    5  C   UNL     1      41.901 -10.747   2.134  1.00  0.00     0.139 A 
HETATM    6  N   UNL     1      41.806 -10.091   0.965  1.00  0.00    -0.230 NA
HETATM    7  C   UNL     1      41.414 -10.866  -0.079  1.00  0.00     0.069 A 
HETATM    8  C   UNL     1      41.116 -12.227   0.047  1.00  0.00     0.033 A 
HETATM    9  C   UNL     1      41.228 -12.860   1.289  1.00  0.00     0.018 A 
HETATM   10  C   UNL     1      41.641 -12.086   2.385  1.00  0.00     0.027 A 
ENDROOT
BRANCH   1  11
HETATM   11  C   UNL     1      41.737 -13.594   4.486  1.00  0.00     0.254 C 
HETATM   12  N   UNL     1      42.905 -14.295   4.671  1.00  0.00    -0.353 N 
HETATM   13  H   UNL     1      43.789 -13.861   4.452  1.00  0.00     0.163 HD
HETATM   14  O   UNL     1      40.655 -14.005   4.893  1.00  0.00    -0.268 OA
BRANCH  12  15
HETATM   15  C   UNL     1      42.915 -15.544   5.390  1.00  0.00     0.161 C 
BRANCH  15  16
HETATM   16  C   UNL     1      43.175 -16.693   4.453  1.00  0.00    -0.038 A 
HETATM   17  C   UNL     1      42.923 -16.552   3.081  1.00  0.00     0.009 A 
HETATM   18  C   UNL     1      43.190 -17.602   2.205  1.00  0.00     0.003 A 
HETATM   19  C   UNL     1      43.713 -18.798   2.695  1.00  0.00     0.037 A 
HETATM   20  C   UNL     1      43.976 -18.958   4.057  1.00  0.00     0.068 A 
HETATM   21  C   UNL     1      43.709 -17.902   4.933  1.00  0.00     0.045 A 
BRANCH  20  22
HETATM   22  O   UNL     1      44.490 -20.178   4.399  1.00  0.00    -0.356 OA
HETATM   23  C   UNL     1      43.947 -20.807   5.553  1.00  0.00     0.210 C 
ENDBRANCH  20  22
ENDBRANCH  15  16
ENDBRANCH  12  15
ENDBRANCH   1  11
BRANCH   7  24
HETATM   24  C   UNL     1      41.313 -10.154  -1.373  1.00  0.00    -0.005 A 
HETATM   25  C   UNL     1      40.601 -10.674  -2.463  1.00  0.00     0.033 A 
HETATM   26  C   UNL     1      40.547  -9.952  -3.648  1.00  0.00     0.117 A 
HETATM   27  N   UNL     1      41.146  -8.759  -3.831  1.00  0.00    -0.273 NA
HETATM   28  C   UNL     1      41.839  -8.270  -2.783  1.00  0.00     0.117 A 
HETATM   29  C   UNL     1      41.949  -8.918  -1.562  1.00  0.00     0.033 A 
ENDBRANCH   7  24
TORSDOF 5
ENDMDL
MODEL 10
REMARK VINA RESULT:      -7.5      6.421      9.373
REMARK  5 active torsions:
REMARK  status: ('A' for Active; 'I' for Inactive)
REMARK    1  A    between atoms: O_2  and  C_3 
REMARK    2  A    between atoms: C_7  and  C_8 
REMARK    3  A    between atoms: C_8  and  N_9 
REMARK       I    between atoms: N_9  and  C_10 
REMARK    4  A    between atoms: C_10  and  C_12 
REMARK    5  A    between atoms: C_18  and  C_22 
ROOT
HETATM    1  C   UNL     1      43.601 -11.210   7.475  1.00  0.00     0.061 A 
HETATM    2  C   UNL     1      42.916 -10.308   6.668  1.00  0.00     0.108 A 
HETATM    3  N   UNL     1      42.425 -10.984   5.579  1.00  0.00    -0.349 N 
HETATM    4  H   UNL     1      41.890 -10.593   4.817  1.00  0.00     0.167 HD
HETATM    5  C   UNL     1      42.774 -12.301   5.656  1.00  0.00     0.139 A 
HETATM    6  N   UNL     1      42.439 -13.222   4.736  1.00  0.00    -0.230 NA
HETATM    7  C   UNL     1      42.902 -14.471   5.003  1.00  0.00     0.069 A 
HETATM    8  C   UNL     1      43.650 -14.782   6.144  1.00  0.00     0.033 A 
HETATM    9  C   UNL     1      43.967 -13.785   7.072  1.00  0.00     0.018 A 
HETATM   10  C   UNL     1      43.510 -12.482   6.817  1.00  0.00     0.027 A 
ENDROOT
BRANCH   1  11
HETATM   11  C   UNL     1      44.295 -10.929   8.732  1.00  0.00     0.254 C 
HETATM   12  N   UNL     1      43.482 -10.772   9.829  1.00  0.00    -0.353 N 
HETATM   13  H   UNL     1      42.499 -10.986   9.758  1.00  0.00     0.163 HD
HETATM   14  O   UNL     1      45.518 -10.850   8.807  1.00  0.00    -0.268 OA
BRANCH  12  15
HETATM   15  C   UNL     1      44.038 -10.537  11.138  1.00  0.00     0.161 C 
BRANCH  15  16
HETATM   16  C   UNL     1      43.300  -9.428  11.837  1.00  0.00    -0.038 A 
HETATM   17  C   UNL     1      43.223  -8.156  11.251  1.00  0.00     0.009 A 
HETATM   18  C   UNL     1      42.516  -7.133  11.878  1.00  0.00     0.003 A 
HETATM   19  C   UNL     1      41.878  -7.376  13.095  1.00  0.00     0.037 A 
HETATM   20  C   UNL     1      41.938  -8.636  13.694  1.00  0.00     0.068 A 
HETATM   21  C   UNL     1      42.646  -9.660  13.060  1.00  0.00     0.045 A 
BRANCH  20  22
HETATM   22  O   UNL     1      41.266  -8.735  14.881  1.00  0.00    -0.356 OA
HETATM   23  C   UNL     1      40.863  -7.520  15.498  1.00  0.00     0.210 C 
ENDBRANCH  20  22
ENDBRANCH  15  16
ENDBRANCH  12  15
ENDBRANCH   1  11
BRANCH   7  24
HETATM   24  C   UNL     1      42.545 -15.492   3.992  1.00  0.00    -0.005 A 
HETATM   25  C   UNL     1      43.285 -16.670   3.820  1.00  0.00     0.033 A 
HETATM   26  C   UNL     1      42.893 -17.585   2.853  1.00  0.00     0.117 A 
HETATM   27  N   UNL     1      41.825 -17.418   2.047  1.00  0.00    -0.273 NA
HETATM   28  C   UNL     1      41.125 -16.278   2.210  1.00  0.00     0.117 A 
HETATM   29  C   UNL     1      41.440 -15.307   3.148  1.00  0.00     0.033 A 
ENDBRANCH   7  24
TORSDOF 5
ENDMDL
