MODEL 1
REMARK VINA RESULT:      -8.3      0.000      0.000
REMARK  8 active torsions:
REMARK  status: ('A' for Active; 'I' for Inactive)
REMARK    1  A    between atoms: C_10  and  C_11 
REMARK    2  A    between atoms: C_11  and  C_12 
REMARK       I    between atoms: C_12  and  N_13 
REMARK    3  A    between atoms: N_13  and  N_14 
REMARK       I    between atoms: N_14  and  C_15 
REMARK    4  A    between atoms: C_15  and  C_16 
REMARK    5  A    between atoms: C_16  and  C_17 
REMARK    6  A    between atoms: C_17  and  C_18 
REMARK       I    between atoms: C_18  and  N_19 
REMARK    7  A    between atoms: N_19  and  C_20 
REMARK    8  A    between atoms: C_20  and  C_21 
ROOT
HETATM    1  C   UNL     1      39.967 -14.106   1.264  1.00  0.00     0.240 C 
HETATM    2  N   UNL     1      39.058 -13.076   1.430  1.00  0.00    -0.267 N 
HETATM    3  O   UNL     1      40.849 -14.061   0.405  1.00  0.00    -0.272 OA
HETATM    4  H   UNL     1      38.438 -13.014   2.238  1.00  0.00     0.190 HD
ENDROOT
BRANCH   2   5
HETATM    5  N   UNL     1      39.310 -11.877   0.745  1.00  0.00    -0.268 N 
HETATM    6  C   UNL     1      39.846 -10.826   1.461  1.00  0.00     0.236 C 
HETATM    7  O   UNL     1      39.953 -10.836   2.686  1.00  0.00    -0.272 OA
HETATM    8  H   UNL     1      39.447 -11.972  -0.263  1.00  0.00     0.190 HD
BRANCH   6   9
HETATM    9  C   UNL     1      40.324  -9.687   0.586  1.00  0.00     0.114 C 
BRANCH   9  10
HETATM   10  C   UNL     1      41.615 -10.030  -0.145  1.00  0.00     0.112 C 
BRANCH  10  11
HETATM   11  C   UNL     1      41.347 -10.477  -1.565  1.00  0.00     0.218 C 
HETATM   12  N   UNL     1      41.485 -11.826  -1.768  1.00  0.00    -0.355 N 
HETATM   13  H   UNL     1      41.436 -12.436  -0.950  1.00  0.00     0.162 HD
HETATM   14  O   UNL     1      41.025  -9.685  -2.445  1.00  0.00    -0.274 OA
BRANCH  12  15
HETATM   15  C   UNL     1      41.179 -12.415  -3.050  1.00  0.00     0.187 C 
BRANCH  15  16
HETATM   16  C   UNL     1      39.851 -13.065  -2.967  1.00  0.00     0.070 A 
HETATM   17  O   UNL     1      39.818 -14.422  -3.117  1.00  0.00    -0.325 OA
HETATM   18  C   UNL     1      38.518 -14.800  -3.014  1.00  0.00     0.142 A 
HETATM   19  C   UNL     1      37.712 -13.706  -2.802  1.00  0.00     0.027 A 
HETATM   20  C   UNL     1      38.572 -12.583  -2.772  1.00  0.00     0.036 A 
ENDBRANCH  15  16
ENDBRANCH  12  15
ENDBRANCH  10  11
ENDBRANCH   9  10
ENDBRANCH   6   9
ENDBRANCH   2   5
BRANCH   1  21
HETATM   21  C   UNL     1      39.804 -15.247   2.239  1.00  0.00     0.146 C 
BRANCH  21  22
HETATM   22  C   UNL     1      40.905 -15.449   3.239  1.00  0.00    -0.015 A 
HETATM   23  C   UNL     1      41.923 -16.466   3.323  1.00  0.00     0.000 A 
HETATM   24  C   UNL     1      42.280 -17.586   2.539  1.00  0.00     0.021 A 
HETATM   25  C   UNL     1      42.687 -16.206   4.466  1.00  0.00     0.049 A 
HETATM   26  C   UNL     1      43.355 -18.408   2.914  1.00  0.00    -0.061 A 
HETATM   27  C   UNL     1      43.755 -19.576   2.059  1.00  0.00     0.048 C 
HETATM   28  C   UNL     1      44.089 -18.102   4.061  1.00  0.00     0.015 A 
HETATM   29  C   UNL     1      43.776 -17.000   4.874  1.00  0.00    -0.034 A 
HETATM   30  C   UNL     1      44.617 -16.728   6.088  1.00  0.00     0.050 C 
HETATM   31  N   UNL     1      42.164 -15.074   5.044  1.00  0.00    -0.358 N 
HETATM   32  H   UNL     1      42.528 -14.650   5.885  1.00  0.00     0.166 HD
HETATM   33  C   UNL     1      41.095 -14.609   4.331  1.00  0.00     0.013 A 
HETATM   34  C   UNL     1      40.352 -13.393   4.759  1.00  0.00     0.068 C 
ENDBRANCH  21  22
ENDBRANCH   1  21
TORSDOF 8
ENDMDL
MODEL 2
REMARK VINA RESULT:      -8.3      6.204      9.892
REMARK  8 active torsions:
REMARK  status: ('A' for Active; 'I' for Inactive)
REMARK    1  A    between atoms: C_10  and  C_11 
REMARK    2  A    between atoms: C_11  and  C_12 
REMARK       I    between atoms: C_12  and  N_13 
REMARK    3  A    between atoms: N_13  and  N_14 
REMARK       I    between atoms: N_14  and  C_15 
REMARK    4  A    between atoms: C_15  and  C_16 
REMARK    5  A    between atoms: C_16  and  C_17 
REMARK    6  A    between atoms: C_17  and  C_18 
REMARK       I    between atoms: C_18  and  N_19 
REMARK    7  A    between atoms: N_19  and  C_20 
REMARK    8  A    between atoms: C_20  and  C_21 
ROOT
HETATM    1  C   UNL     1      42.815 -11.447   4.747  1.00  0.00     0.240 C 
HETATM    2  N   UNL     1      42.565 -10.995   6.031  1.00  0.00    -0.267 N 
HETATM    3  O   UNL     1      43.876 -11.207   4.170  1.00  0.00    -0.272 OA
HETATM    4  H   UNL     1      41.776 -11.325   6.587  1.00  0.00     0.190 HD
ENDROOT
BRANCH   2   5
HETATM    5  N   UNL     1      43.645 -10.450   6.744  1.00  0.00    -0.268 N 
HETATM    6  C   UNL     1      44.363 -11.292   7.569  1.00  0.00     0.236 C 
HETATM    7  O   UNL     1      44.003 -12.438   7.834  1.00  0.00    -0.272 OA
HETATM    8  H   UNL     1      44.058  -9.611   6.335  1.00  0.00     0.190 HD
BRANCH   6   9
HETATM    9  C   UNL     1      45.651 -10.679   8.076  1.00  0.00     0.114 C 
BRANCH   9  10
HETATM   10  C   UNL     1      45.397  -9.590   9.109  1.00  0.00     0.112 C 
BRANCH  10  11
HETATM   11  C   UNL     1      44.712 -10.143  10.340  1.00  0.00     0.218 C 
HETATM   12  N   UNL     1      43.499  -9.566  10.617  1.00  0.00    -0.355 N 
HETATM   13  H   UNL     1      43.021  -9.080   9.857  1.00  0.00     0.162 HD
HETATM   14  O   UNL     1      45.212 -11.038  11.014  1.00  0.00    -0.274 OA
BRANCH  12  15
HETATM   15  C   UNL     1      42.686 -10.046  11.709  1.00  0.00     0.187 C 
BRANCH  15  16
HETATM   16  C   UNL     1      42.690  -9.028  12.785  1.00  0.00     0.070 A 
HETATM   17  O   UNL     1      41.950  -9.304  13.898  1.00  0.00    -0.325 OA
HETATM   18  C   UNL     1      42.090  -8.249  14.740  1.00  0.00     0.142 A 
HETATM   19  C   UNL     1      42.910  -7.294  14.184  1.00  0.00     0.027 A 
HETATM   20  C   UNL     1      43.298  -7.796  12.919  1.00  0.00     0.036 A 
ENDBRANCH  15  16
ENDBRANCH  12  15
ENDBRANCH  10  11
ENDBRANCH   9  10
ENDBRANCH   6   9
ENDBRANCH   2   5
BRANCH   1  21
HETATM   21  C   UNL     1      41.704 -12.276   4.149  1.00  0.00     0.146 C 
BRANCH  21  22
HETATM   22  C   UNL     1      42.082 -13.619   3.594  1.00  0.00    -0.015 A 
HETATM   23  C   UNL     1      42.662 -14.772   4.237  1.00  0.00     0.000 A 
HETATM   24  C   UNL     1      43.056 -15.084   5.557  1.00  0.00     0.021 A 
HETATM   25  C   UNL     1      42.836 -15.757   3.259  1.00  0.00     0.049 A 
HETATM   26  C   UNL     1      43.615 -16.336   5.859  1.00  0.00    -0.061 A 
HETATM   27  C   UNL     1      43.998 -16.678   7.270  1.00  0.00     0.048 C 
HETATM   28  C   UNL     1      43.762 -17.287   4.849  1.00  0.00     0.015 A 
HETATM   29  C   UNL     1      43.385 -17.027   3.520  1.00  0.00    -0.034 A 
HETATM   30  C   UNL     1      43.565 -18.103   2.488  1.00  0.00     0.050 C 
HETATM   31  N   UNL     1      42.371 -15.231   2.077  1.00  0.00    -0.358 N 
HETATM   32  H   UNL     1      42.366 -15.731   1.200  1.00  0.00     0.166 HD
HETATM   33  C   UNL     1      41.922 -13.952   2.253  1.00  0.00     0.013 A 
HETATM   34  C   UNL     1      41.372 -13.164   1.118  1.00  0.00     0.068 C 
ENDBRANCH  21  22
ENDBRANCH   1  21
TORSDOF 8
ENDMDL
MODEL 3
REMARK VINA RESULT:      -8.2      1.876      3.888
REMARK  8 active torsions:
REMARK  status: ('A' for Active; 'I' for Inactive)
REMARK    1  A    between atoms: C_10  and  C_11 
REMARK    2  A    between atoms: C_11  and  C_12 
REMARK       I    between atoms: C_12  and  N_13 
REMARK    3  A    between atoms: N_13  and  N_14 
REMARK       I    between atoms: N_14  and  C_15 
REMARK    4  A    between atoms: C_15  and  C_16 
REMARK    5  A    between atoms: C_16  and  C_17 
REMARK    6  A    between atoms: C_17  and  C_18 
REMARK       I    between atoms: C_18  and  N_19 
REMARK    7  A    between atoms: N_19  and  C_20 
REMARK    8  A    between atoms: C_20  and  C_21 
ROOT
HETATM    1  C   UNL     1      40.763 -14.463   0.615  1.00  0.00     0.240 C 
HETATM    2  N   UNL     1      40.145 -14.490  -0.623  1.00  0.00    -0.267 N 
HETATM    3  O   UNL     1      41.654 -13.655   0.878  1.00  0.00    -0.272 OA
HETATM    4  H   UNL     1      39.297 -15.027  -0.803  1.00  0.00     0.190 HD
ENDROOT
BRANCH   2   5
HETATM    5  N   UNL     1      40.403 -13.421  -1.495  1.00  0.00    -0.268 N 
HETATM    6  C   UNL     1      39.495 -12.381  -1.525  1.00  0.00     0.236 C 
HETATM    7  O   UNL     1      38.405 -12.427  -0.959  1.00  0.00    -0.272 OA
HETATM    8  H   UNL     1      41.384 -13.291  -1.748  1.00  0.00     0.190 HD
BRANCH   6   9
HETATM    9  C   UNL     1      39.996 -11.172  -2.287  1.00  0.00     0.114 C 
BRANCH   9  10
HETATM   10  C   UNL     1      41.243 -10.573  -1.652  1.00  0.00     0.112 C 
BRANCH  10  11
HETATM   11  C   UNL     1      40.910  -9.811  -0.388  1.00  0.00     0.218 C 
HETATM   12  N   UNL     1      41.165 -10.499   0.770  1.00  0.00    -0.355 N 
HETATM   13  H   UNL     1      41.817 -11.284   0.721  1.00  0.00     0.162 HD
HETATM   14  O   UNL     1      40.461  -8.669  -0.417  1.00  0.00    -0.274 OA
BRANCH  12  15
HETATM   15  C   UNL     1      40.982  -9.874   2.058  1.00  0.00     0.187 C 
BRANCH  15  16
HETATM   16  C   UNL     1      41.959 -10.451   3.008  1.00  0.00     0.070 A 
HETATM   17  O   UNL     1      42.921 -11.266   2.485  1.00  0.00    -0.325 OA
HETATM   18  C   UNL     1      43.694 -11.684   3.520  1.00  0.00     0.142 A 
HETATM   19  C   UNL     1      43.242 -11.151   4.705  1.00  0.00     0.027 A 
HETATM   20  C   UNL     1      42.120 -10.354   4.376  1.00  0.00     0.036 A 
ENDBRANCH  15  16
ENDBRANCH  12  15
ENDBRANCH  10  11
ENDBRANCH   9  10
ENDBRANCH   6   9
ENDBRANCH   2   5
BRANCH   1  21
HETATM   21  C   UNL     1      40.227 -15.471   1.604  1.00  0.00     0.146 C 
BRANCH  21  22
HETATM   22  C   UNL     1      41.089 -15.783   2.792  1.00  0.00    -0.015 A 
HETATM   23  C   UNL     1      42.009 -16.868   3.026  1.00  0.00     0.000 A 
HETATM   24  C   UNL     1      42.452 -17.979   2.274  1.00  0.00     0.021 A 
HETATM   25  C   UNL     1      42.539 -16.703   4.310  1.00  0.00     0.049 A 
HETATM   26  C   UNL     1      43.380 -18.884   2.814  1.00  0.00    -0.061 A 
HETATM   27  C   UNL     1      43.876 -20.043   1.998  1.00  0.00     0.048 C 
HETATM   28  C   UNL     1      43.883 -18.671   4.098  1.00  0.00     0.015 A 
HETATM   29  C   UNL     1      43.476 -17.581   4.887  1.00  0.00    -0.034 A 
HETATM   30  C   UNL     1      44.069 -17.411   6.256  1.00  0.00     0.050 C 
HETATM   31  N   UNL     1      41.977 -15.560   4.828  1.00  0.00    -0.358 N 
HETATM   32  H   UNL     1      42.188 -15.193   5.744  1.00  0.00     0.166 HD
HETATM   33  C   UNL     1      41.102 -14.999   3.940  1.00  0.00     0.013 A 
HETATM   34  C   UNL     1      40.361 -13.753   4.271  1.00  0.00     0.068 C 
ENDBRANCH  21  22
ENDBRANCH   1  21
TORSDOF 8
ENDMDL
MODEL 4
REMARK VINA RESULT:      -8.0      2.111      3.670
REMARK  8 active torsions:
REMARK  status: ('A' for Active; 'I' for Inactive)
REMARK    1  A    between atoms: C_10  and  C_11 
REMARK    2  A    between atoms: C_11  and  C_12 
REMARK       I    between atoms: C_12  and  N_13 
REMARK    3  A    between atoms: N_13  and  N_14 
REMARK       I    between atoms: N_14  and  C_15 
REMARK    4  A    between atoms: C_15  and  C_16 
REMARK    5  A    between atoms: C_16  and  C_17 
REMARK    6  A    between atoms: C_17  and  C_18 
REMARK       I    between atoms: C_18  and  N_19 
REMARK    7  A    between atoms: N_19  and  C_20 
REMARK    8  A    between atoms: C_20  and  C_21 
ROOT
HETATM    1  C   UNL     1      41.070 -14.441   1.137  1.00  0.00     0.240 C 
HETATM    2  N   UNL     1      40.973 -14.167  -0.216  1.00  0.00    -0.267 N 
HETATM    3  O   UNL     1      40.104 -14.836   1.790  1.00  0.00    -0.272 OA
HETATM    4  H   UNL     1      41.790 -14.008  -0.806  1.00  0.00     0.190 HD
ENDROOT
BRANCH   2   5
HETATM    5  N   UNL     1      39.799 -14.570  -0.873  1.00  0.00    -0.268 N 
HETATM    6  C   UNL     1      39.784 -14.523  -2.252  1.00  0.00     0.236 C 
HETATM    7  O   UNL     1      40.676 -13.994  -2.914  1.00  0.00    -0.272 OA
HETATM    8  H   UNL     1      39.203 -15.211  -0.346  1.00  0.00     0.190 HD
BRANCH   6   9
HETATM    9  C   UNL     1      38.588 -15.223  -2.862  1.00  0.00     0.114 C 
BRANCH   9  10
HETATM   10  C   UNL     1      37.890 -14.359  -3.902  1.00  0.00     0.112 C 
BRANCH  10  11
HETATM   11  C   UNL     1      37.195 -13.175  -3.266  1.00  0.00     0.218 C 
HETATM   12  N   UNL     1      38.040 -12.169  -2.872  1.00  0.00    -0.355 N 
HETATM   13  H   UNL     1      38.968 -12.136  -3.297  1.00  0.00     0.162 HD
HETATM   14  O   UNL     1      35.976 -13.133  -3.131  1.00  0.00    -0.274 OA
BRANCH  12  15
HETATM   15  C   UNL     1      37.519 -10.938  -2.328  1.00  0.00     0.187 C 
BRANCH  15  16
HETATM   16  C   UNL     1      37.610 -10.998  -0.851  1.00  0.00     0.070 A 
HETATM   17  O   UNL     1      38.548 -11.839  -0.324  1.00  0.00    -0.325 OA
HETATM   18  C   UNL     1      38.453 -11.743   1.027  1.00  0.00     0.142 A 
HETATM   19  C   UNL     1      37.466 -10.852   1.379  1.00  0.00     0.027 A 
HETATM   20  C   UNL     1      36.919 -10.370   0.166  1.00  0.00     0.036 A 
ENDBRANCH  15  16
ENDBRANCH  12  15
ENDBRANCH  10  11
ENDBRANCH   9  10
ENDBRANCH   6   9
ENDBRANCH   2   5
BRANCH   1  21
HETATM   21  C   UNL     1      42.452 -14.252   1.715  1.00  0.00     0.146 C 
BRANCH  21  22
HETATM   22  C   UNL     1      42.770 -15.001   2.977  1.00  0.00    -0.015 A 
HETATM   23  C   UNL     1      43.074 -16.393   3.191  1.00  0.00     0.000 A 
HETATM   24  C   UNL     1      43.210 -17.524   2.355  1.00  0.00     0.021 A 
HETATM   25  C   UNL     1      43.269 -16.576   4.564  1.00  0.00     0.049 A 
HETATM   26  C   UNL     1      43.514 -18.783   2.898  1.00  0.00    -0.061 A 
HETATM   27  C   UNL     1      43.694 -19.975   2.003  1.00  0.00     0.048 C 
HETATM   28  C   UNL     1      43.704 -18.911   4.275  1.00  0.00     0.015 A 
HETATM   29  C   UNL     1      43.582 -17.818   5.150  1.00  0.00    -0.034 A 
HETATM   30  C   UNL     1      43.810 -18.031   6.619  1.00  0.00     0.050 C 
HETATM   31  N   UNL     1      43.102 -15.347   5.157  1.00  0.00    -0.358 N 
HETATM   32  H   UNL     1      43.195 -15.181   6.148  1.00  0.00     0.166 HD
HETATM   33  C   UNL     1      42.797 -14.393   4.227  1.00  0.00     0.013 A 
HETATM   34  C   UNL     1      42.565 -12.978   4.622  1.00  0.00     0.068 C 
ENDBRANCH  21  22
ENDBRANCH   1  21
TORSDOF 8
ENDMDL
MODEL 5
REMARK VINA RESULT:      -8.0      6.560     10.418
REMARK  8 active torsions:
REMARK  status: ('A' for Active; 'I' for Inactive)
REMARK    1  A    between atoms: C_10  and  C_11 
REMARK    2  A    between atoms: C_11  and  C_12 
REMARK       I    between atoms: C_12  and  N_13 
REMARK    3  A    between atoms: N_13  and  N_14 
REMARK       I    between atoms: N_14  and  C_15 
REMARK    4  A    between atoms: C_15  and  C_16 
REMARK    5  A    between atoms: C_16  and  C_17 
REMARK    6  A    between atoms: C_17  and  C_18 
REMARK       I    between atoms: C_18  and  N_19 
REMARK    7  A    between atoms: N_19  and  C_20 
REMARK    8  A    between atoms: C_20  and  C_21 
ROOT
HETATM    1  C   UNL     1      43.594 -11.169   5.037  1.00  0.00     0.240 C 
HETATM    2  N   UNL     1      44.591 -11.407   5.967  1.00  0.00    -0.267 N 
HETATM    3  O   UNL     1      42.566 -10.557   5.329  1.00  0.00    -0.272 OA
HETATM    4  H   UNL     1      45.514 -11.754   5.708  1.00  0.00     0.190 HD
ENDROOT
BRANCH   2   5
HETATM    5  N   UNL     1      44.500 -10.735   7.196  1.00  0.00    -0.268 N 
HETATM    6  C   UNL     1      45.676 -10.394   7.833  1.00  0.00     0.236 C 
HETATM    7  O   UNL     1      46.778 -10.796   7.463  1.00  0.00    -0.272 OA
HETATM    8  H   UNL     1      43.633 -10.215   7.345  1.00  0.00     0.190 HD
BRANCH   6   9
HETATM    9  C   UNL     1      45.475  -9.449   8.998  1.00  0.00     0.114 C 
BRANCH   9  10
HETATM   10  C   UNL     1      45.159 -10.191  10.288  1.00  0.00     0.112 C 
BRANCH  10  11
HETATM   11  C   UNL     1      43.710 -10.018  10.689  1.00  0.00     0.218 C 
HETATM   12  N   UNL     1      43.463 -10.233  12.021  1.00  0.00    -0.355 N 
HETATM   13  H   UNL     1      44.254 -10.175  12.665  1.00  0.00     0.162 HD
HETATM   14  O   UNL     1      42.846  -9.700   9.878  1.00  0.00    -0.274 OA
BRANCH  12  15
HETATM   15  C   UNL     1      42.146 -10.022  12.571  1.00  0.00     0.187 C 
BRANCH  15  16
HETATM   16  C   UNL     1      42.219  -8.925  13.564  1.00  0.00     0.070 A 
HETATM   17  O   UNL     1      41.378  -9.007  14.636  1.00  0.00    -0.325 OA
HETATM   18  C   UNL     1      41.605  -7.911  15.404  1.00  0.00     0.142 A 
HETATM   19  C   UNL     1      42.580  -7.121  14.841  1.00  0.00     0.027 A 
HETATM   20  C   UNL     1      42.978  -7.776  13.650  1.00  0.00     0.036 A 
ENDBRANCH  15  16
ENDBRANCH  12  15
ENDBRANCH  10  11
ENDBRANCH   9  10
ENDBRANCH   6   9
ENDBRANCH   2   5
BRANCH   1  21
HETATM   21  C   UNL     1      43.898 -11.683   3.650  1.00  0.00     0.146 C 
BRANCH  21  22
HETATM   22  C   UNL     1      42.863 -12.562   3.010  1.00  0.00    -0.015 A 
HETATM   23  C   UNL     1      42.614 -13.976   3.150  1.00  0.00     0.000 A 
HETATM   24  C   UNL     1      43.189 -15.019   3.909  1.00  0.00     0.021 A 
HETATM   25  C   UNL     1      41.543 -14.300   2.311  1.00  0.00     0.049 A 
HETATM   26  C   UNL     1      42.703 -16.332   3.804  1.00  0.00    -0.061 A 
HETATM   27  C   UNL     1      43.293 -17.431   4.640  1.00  0.00     0.048 C 
HETATM   28  C   UNL     1      41.627 -16.602   2.957  1.00  0.00     0.015 A 
HETATM   29  C   UNL     1      41.019 -15.601   2.181  1.00  0.00    -0.034 A 
HETATM   30  C   UNL     1      39.859 -15.966   1.300  1.00  0.00     0.050 C 
HETATM   31  N   UNL     1      41.149 -13.134   1.699  1.00  0.00    -0.358 N 
HETATM   32  H   UNL     1      40.384 -13.071   1.043  1.00  0.00     0.166 HD
HETATM   33  C   UNL     1      41.929 -12.084   2.097  1.00  0.00     0.013 A 
HETATM   34  C   UNL     1      41.703 -10.712   1.571  1.00  0.00     0.068 C 
ENDBRANCH  21  22
ENDBRANCH   1  21
TORSDOF 8
ENDMDL
MODEL 6
REMARK VINA RESULT:      -8.0      2.164      4.280
REMARK  8 active torsions:
REMARK  status: ('A' for Active; 'I' for Inactive)
REMARK    1  A    between atoms: C_10  and  C_11 
REMARK    2  A    between atoms: C_11  and  C_12 
REMARK       I    between atoms: C_12  and  N_13 
REMARK    3  A    between atoms: N_13  and  N_14 
REMARK       I    between atoms: N_14  and  C_15 
REMARK    4  A    between atoms: C_15  and  C_16 
REMARK    5  A    between atoms: C_16  and  C_17 
REMARK    6  A    between atoms: C_17  and  C_18 
REMARK       I    between atoms: C_18  and  N_19 
REMARK    7  A    between atoms: N_19  and  C_20 
REMARK    8  A    between atoms: C_20  and  C_21 
ROOT
HETATM    1  C   UNL     1      40.374 -14.511   0.582  1.00  0.00     0.240 C 
HETATM    2  N   UNL     1      39.392 -14.277  -0.365  1.00  0.00    -0.267 N 
HETATM    3  O   UNL     1      41.384 -13.811   0.657  1.00  0.00    -0.272 OA
HETATM    4  H   UNL     1      38.478 -14.729  -0.334  1.00  0.00     0.190 HD
ENDROOT
BRANCH   2   5
HETATM    5  N   UNL     1      39.470 -13.078  -1.091  1.00  0.00    -0.268 N 
HETATM    6  C   UNL     1      39.755 -13.159  -2.439  1.00  0.00     0.236 C 
HETATM    7  O   UNL     1      40.104 -14.202  -2.989  1.00  0.00    -0.272 OA
HETATM    8  H   UNL     1      38.952 -12.293  -0.693  1.00  0.00     0.190 HD
BRANCH   6   9
HETATM    9  C   UNL     1      39.552 -11.850  -3.173  1.00  0.00     0.114 C 
BRANCH   9  10
HETATM   10  C   UNL     1      40.833 -11.030  -3.243  1.00  0.00     0.112 C 
BRANCH  10  11
HETATM   11  C   UNL     1      40.905 -10.017  -2.122  1.00  0.00     0.218 C 
HETATM   12  N   UNL     1      40.743  -8.716  -2.525  1.00  0.00    -0.355 N 
HETATM   13  H   UNL     1      40.291  -8.552  -3.426  1.00  0.00     0.162 HD
HETATM   14  O   UNL     1      41.084 -10.352  -0.955  1.00  0.00    -0.274 OA
BRANCH  12  15
HETATM   15  C   UNL     1      40.701  -7.644  -1.560  1.00  0.00     0.187 C 
BRANCH  15  16
HETATM   16  C   UNL     1      41.971  -6.886  -1.639  1.00  0.00     0.070 A 
HETATM   17  O   UNL     1      41.875  -5.527  -1.721  1.00  0.00    -0.325 OA
HETATM   18  C   UNL     1      43.141  -5.043  -1.790  1.00  0.00     0.142 A 
HETATM   19  C   UNL     1      44.054  -6.071  -1.755  1.00  0.00     0.027 A 
HETATM   20  C   UNL     1      43.299  -7.265  -1.658  1.00  0.00     0.036 A 
ENDBRANCH  15  16
ENDBRANCH  12  15
ENDBRANCH  10  11
ENDBRANCH   9  10
ENDBRANCH   6   9
ENDBRANCH   2   5
BRANCH   1  21
HETATM   21  C   UNL     1      40.077 -15.657   1.519  1.00  0.00     0.146 C 
BRANCH  21  22
HETATM   22  C   UNL     1      41.030 -15.868   2.659  1.00  0.00    -0.015 A 
HETATM   23  C   UNL     1      42.000 -16.908   2.893  1.00  0.00     0.000 A 
HETATM   24  C   UNL     1      42.427 -18.051   2.181  1.00  0.00     0.021 A 
HETATM   25  C   UNL     1      42.613 -16.646   4.123  1.00  0.00     0.049 A 
HETATM   26  C   UNL     1      43.420 -18.893   2.707  1.00  0.00    -0.061 A 
HETATM   27  C   UNL     1      43.897 -20.086   1.931  1.00  0.00     0.048 C 
HETATM   28  C   UNL     1      44.005 -18.583   3.936  1.00  0.00     0.015 A 
HETATM   29  C   UNL     1      43.617 -17.458   4.684  1.00  0.00    -0.034 A 
HETATM   30  C   UNL     1      44.298 -17.184   5.994  1.00  0.00     0.050 C 
HETATM   31  N   UNL     1      42.050 -15.490   4.609  1.00  0.00    -0.358 N 
HETATM   32  H   UNL     1      42.312 -15.059   5.483  1.00  0.00     0.166 HD
HETATM   33  C   UNL     1      41.097 -15.012   3.753  1.00  0.00     0.013 A 
HETATM   34  C   UNL     1      40.339 -13.769   4.059  1.00  0.00     0.068 C 
ENDBRANCH  21  22
ENDBRANCH   1  21
TORSDOF 8
ENDMDL
MODEL 7
REMARK VINA RESULT:      -8.0      4.975      8.357
REMARK  8 active torsions:
REMARK  status: ('A' for Active; 'I' for Inactive)
REMARK    1  A    between atoms: C_10  and  C_11 
REMARK    2  A    between atoms: C_11  and  C_12 
REMARK       I    between atoms: C_12  and  N_13 
REMARK    3  A    between atoms: N_13  and  N_14 
REMARK       I    between atoms: N_14  and  C_15 
REMARK    4  A    between atoms: C_15  and  C_16 
REMARK    5  A    between atoms: C_16  and  C_17 
REMARK    6  A    between atoms: C_17  and  C_18 
REMARK       I    between atoms: C_18  and  N_19 
REMARK    7  A    between atoms: N_19  and  C_20 
REMARK    8  A    between atoms: C_20  and  C_21 
ROOT
HETATM    1  C   UNL     1      40.471 -11.816   6.096  1.00  0.00     0.240 C 
HETATM    2  N   UNL     1      39.864 -11.163   7.155  1.00  0.00    -0.267 N 
HETATM    3  O   UNL     1      41.533 -11.421   5.613  1.00  0.00    -0.272 OA
HETATM    4  H   UNL     1      39.087 -11.567   7.678  1.00  0.00     0.190 HD
ENDROOT
BRANCH   2   5
HETATM    5  N   UNL     1      40.608 -10.171   7.813  1.00  0.00    -0.268 N 
HETATM    6  C   UNL     1      40.013  -9.515   8.871  1.00  0.00     0.236 C 
HETATM    7  O   UNL     1      38.822  -9.639   9.152  1.00  0.00    -0.272 OA
HETATM    8  H   UNL     1      41.622 -10.262   7.734  1.00  0.00     0.190 HD
BRANCH   6   9
HETATM    9  C   UNL     1      40.980  -8.668   9.671  1.00  0.00     0.114 C 
BRANCH   9  10
HETATM   10  C   UNL     1      41.300  -9.287  11.024  1.00  0.00     0.112 C 
BRANCH  10  11
HETATM   11  C   UNL     1      42.694  -9.874  11.050  1.00  0.00     0.218 C 
HETATM   12  N   UNL     1      43.475  -9.524   9.979  1.00  0.00    -0.355 N 
HETATM   13  H   UNL     1      43.205  -8.694   9.447  1.00  0.00     0.162 HD
HETATM   14  O   UNL     1      43.078 -10.593  11.968  1.00  0.00    -0.274 OA
BRANCH  12  15
HETATM   15  C   UNL     1      44.856  -9.935   9.905  1.00  0.00     0.187 C 
BRANCH  15  16
HETATM   16  C   UNL     1      45.091 -10.573   8.590  1.00  0.00     0.070 A 
HETATM   17  O   UNL     1      44.271 -11.611   8.253  1.00  0.00    -0.325 OA
HETATM   18  C   UNL     1      44.662 -12.045   7.028  1.00  0.00     0.142 A 
HETATM   19  C   UNL     1      45.726 -11.302   6.570  1.00  0.00     0.027 A 
HETATM   20  C   UNL     1      46.005 -10.350   7.580  1.00  0.00     0.036 A 
ENDBRANCH  15  16
ENDBRANCH  12  15
ENDBRANCH  10  11
ENDBRANCH   9  10
ENDBRANCH   6   9
ENDBRANCH   2   5
BRANCH   1  21
HETATM   21  C   UNL     1      39.745 -13.053   5.626  1.00  0.00     0.146 C 
BRANCH  21  22
HETATM   22  C   UNL     1      40.465 -13.932   4.645  1.00  0.00    -0.015 A 
HETATM   23  C   UNL     1      41.425 -14.987   4.857  1.00  0.00     0.000 A 
HETATM   24  C   UNL     1      42.010 -15.588   5.993  1.00  0.00     0.021 A 
HETATM   25  C   UNL     1      41.805 -15.470   3.600  1.00  0.00     0.049 A 
HETATM   26  C   UNL     1      42.949 -16.622   5.852  1.00  0.00    -0.061 A 
HETATM   27  C   UNL     1      43.542 -17.283   7.062  1.00  0.00     0.048 C 
HETATM   28  C   UNL     1      43.291 -17.072   4.575  1.00  0.00     0.015 A 
HETATM   29  C   UNL     1      42.738 -16.509   3.413  1.00  0.00    -0.034 A 
HETATM   30  C   UNL     1      43.146 -17.052   2.074  1.00  0.00     0.050 C 
HETATM   31  N   UNL     1      41.099 -14.750   2.666  1.00  0.00    -0.358 N 
HETATM   32  H   UNL     1      41.170 -14.895   1.670  1.00  0.00     0.166 HD
HETATM   33  C   UNL     1      40.298 -13.820   3.269  1.00  0.00     0.013 A 
HETATM   34  C   UNL     1      39.435 -12.911   2.468  1.00  0.00     0.068 C 
ENDBRANCH  21  22
ENDBRANCH   1  21
TORSDOF 8
ENDMDL
MODEL 8
REMARK VINA RESULT:      -7.9      1.796      3.960
REMARK  8 active torsions:
REMARK  status: ('A' for Active; 'I' for Inactive)
REMARK    1  A    between atoms: C_10  and  C_11 
REMARK    2  A    between atoms: C_11  and  C_12 
REMARK       I    between atoms: C_12  and  N_13 
REMARK    3  A    between atoms: N_13  and  N_14 
REMARK       I    between atoms: N_14  and  C_15 
REMARK    4  A    between atoms: C_15  and  C_16 
REMARK    5  A    between atoms: C_16  and  C_17 
REMARK    6  A    between atoms: C_17  and  C_18 
REMARK       I    between atoms: C_18  and  N_19 
REMARK    7  A    between atoms: N_19  and  C_20 
REMARK    8  A    between atoms: C_20  and  C_21 
ROOT
HETATM    1  C   UNL     1      40.036 -14.307   1.124  1.00  0.00     0.240 C 
HETATM    2  N   UNL     1      40.748 -14.699   0.004  1.00  0.00    -0.267 N 
HETATM    3  O   UNL     1      39.572 -13.171   1.233  1.00  0.00    -0.272 OA
HETATM    4  H   UNL     1      40.989 -15.673  -0.182  1.00  0.00     0.190 HD
ENDROOT
BRANCH   2   5
HETATM    5  N   UNL     1      40.731 -13.839  -1.105  1.00  0.00    -0.268 N 
HETATM    6  C   UNL     1      39.736 -14.019  -2.045  1.00  0.00     0.236 C 
HETATM    7  O   UNL     1      38.980 -14.988  -2.042  1.00  0.00    -0.272 OA
HETATM    8  H   UNL     1      41.184 -12.935  -0.962  1.00  0.00     0.190 HD
BRANCH   6   9
HETATM    9  C   UNL     1      39.647 -12.886  -3.046  1.00  0.00     0.114 C 
BRANCH   9  10
HETATM   10  C   UNL     1      39.569 -11.527  -2.365  1.00  0.00     0.112 C 
BRANCH  10  11
HETATM   11  C   UNL     1      38.256 -11.346  -1.635  1.00  0.00     0.218 C 
HETATM   12  N   UNL     1      38.385 -10.910  -0.341  1.00  0.00    -0.355 N 
HETATM   13  H   UNL     1      39.262 -10.455  -0.080  1.00  0.00     0.162 HD
HETATM   14  O   UNL     1      37.177 -11.566  -2.175  1.00  0.00    -0.274 OA
BRANCH  12  15
HETATM   15  C   UNL     1      37.221 -10.608   0.457  1.00  0.00     0.187 C 
BRANCH  15  16
HETATM   16  C   UNL     1      37.663  -9.948   1.707  1.00  0.00     0.070 A 
HETATM   17  O   UNL     1      37.293  -8.645   1.880  1.00  0.00    -0.325 OA
HETATM   18  C   UNL     1      37.803  -8.243   3.072  1.00  0.00     0.142 A 
HETATM   19  C   UNL     1      38.499  -9.268   3.670  1.00  0.00     0.027 A 
HETATM   20  C   UNL     1      38.410 -10.372   2.787  1.00  0.00     0.036 A 
ENDBRANCH  15  16
ENDBRANCH  12  15
ENDBRANCH  10  11
ENDBRANCH   9  10
ENDBRANCH   6   9
ENDBRANCH   2   5
BRANCH   1  21
HETATM   21  C   UNL     1      39.853 -15.390   2.160  1.00  0.00     0.146 C 
BRANCH  21  22
HETATM   22  C   UNL     1      40.948 -15.553   3.173  1.00  0.00    -0.015 A 
HETATM   23  C   UNL     1      41.969 -16.564   3.300  1.00  0.00     0.000 A 
HETATM   24  C   UNL     1      42.334 -17.709   2.559  1.00  0.00     0.021 A 
HETATM   25  C   UNL     1      42.724 -16.261   4.438  1.00  0.00     0.049 A 
HETATM   26  C   UNL     1      43.409 -18.514   2.969  1.00  0.00    -0.061 A 
HETATM   27  C   UNL     1      43.817 -19.710   2.159  1.00  0.00     0.048 C 
HETATM   28  C   UNL     1      44.134 -18.166   4.109  1.00  0.00     0.015 A 
HETATM   29  C   UNL     1      43.813 -17.036   4.881  1.00  0.00    -0.034 A 
HETATM   30  C   UNL     1      44.645 -16.719   6.090  1.00  0.00     0.050 C 
HETATM   31  N   UNL     1      42.194 -15.111   4.973  1.00  0.00    -0.358 N 
HETATM   32  H   UNL     1      42.552 -14.656   5.800  1.00  0.00     0.166 HD
HETATM   33  C   UNL     1      41.128 -14.674   4.236  1.00  0.00     0.013 A 
HETATM   34  C   UNL     1      40.380 -13.446   4.615  1.00  0.00     0.068 C 
ENDBRANCH  21  22
ENDBRANCH   1  21
TORSDOF 8
ENDMDL
MODEL 9
REMARK VINA RESULT:      -7.9      2.795      5.785
REMARK  8 active torsions:
REMARK  status: ('A' for Active; 'I' for Inactive)
REMARK    1  A    between atoms: C_10  and  C_11 
REMARK    2  A    between atoms: C_11  and  C_12 
REMARK       I    between atoms: C_12  and  N_13 
REMARK    3  A    between atoms: N_13  and  N_14 
REMARK       I    between atoms: N_14  and  C_15 
REMARK    4  A    between atoms: C_15  and  C_16 
REMARK    5  A    between atoms: C_16  and  C_17 
REMARK    6  A    between atoms: C_17  and  C_18 
REMARK       I    between atoms: C_18  and  N_19 
REMARK    7  A    between atoms: N_19  and  C_20 
REMARK    8  A    between atoms: C_20  and  C_21 
ROOT
HETATM    1  C   UNL     1      40.597 -15.353   1.226  1.00  0.00     0.240 C 
HETATM    2  N   UNL     1      39.453 -14.687   1.630  1.00  0.00    -0.267 N 
HETATM    3  O   UNL     1      41.375 -14.866   0.405  1.00  0.00    -0.272 OA
HETATM    4  H   UNL     1      38.892 -14.990   2.427  1.00  0.00     0.190 HD
ENDROOT
BRANCH   2   5
HETATM    5  N   UNL     1      39.321 -13.342   1.250  1.00  0.00    -0.268 N 
HETATM    6  C   UNL     1      39.187 -12.401   2.250  1.00  0.00     0.236 C 
HETATM    7  O   UNL     1      39.010 -12.698   3.431  1.00  0.00    -0.272 OA
HETATM    8  H   UNL     1      39.709 -13.108   0.335  1.00  0.00     0.190 HD
BRANCH   6   9
HETATM    9  C   UNL     1      39.322 -10.977   1.754  1.00  0.00     0.114 C 
BRANCH   9  10
HETATM   10  C   UNL     1      40.183 -10.129   2.680  1.00  0.00     0.112 C 
BRANCH  10  11
HETATM   11  C   UNL     1      41.635 -10.551   2.631  1.00  0.00     0.218 C 
HETATM   12  N   UNL     1      42.162 -10.901   3.847  1.00  0.00    -0.355 N 
HETATM   13  H   UNL     1      41.510 -11.153   4.592  1.00  0.00     0.162 HD
HETATM   14  O   UNL     1      42.266 -10.582   1.580  1.00  0.00    -0.274 OA
BRANCH  12  15
HETATM   15  C   UNL     1      43.509 -11.409   3.950  1.00  0.00     0.187 C 
BRANCH  15  16
HETATM   16  C   UNL     1      43.952 -11.294   5.358  1.00  0.00     0.070 A 
HETATM   17  O   UNL     1      43.214 -10.485   6.173  1.00  0.00    -0.325 OA
HETATM   18  C   UNL     1      43.794 -10.521   7.400  1.00  0.00     0.142 A 
HETATM   19  C   UNL     1      44.899 -11.341   7.387  1.00  0.00     0.027 A 
HETATM   20  C   UNL     1      45.003 -11.841   6.067  1.00  0.00     0.036 A 
ENDBRANCH  15  16
ENDBRANCH  12  15
ENDBRANCH  10  11
ENDBRANCH   9  10
ENDBRANCH   6   9
ENDBRANCH   2   5
BRANCH   1  21
HETATM   21  C   UNL     1      40.816 -16.685   1.901  1.00  0.00     0.146 C 
BRANCH  21  22
HETATM   22  C   UNL     1      41.822 -16.726   3.015  1.00  0.00    -0.015 A 
HETATM   23  C   UNL     1      41.963 -15.893   4.183  1.00  0.00     0.000 A 
HETATM   24  C   UNL     1      41.248 -14.800   4.720  1.00  0.00     0.021 A 
HETATM   25  C   UNL     1      43.084 -16.342   4.889  1.00  0.00     0.049 A 
HETATM   26  C   UNL     1      41.668 -14.186   5.912  1.00  0.00    -0.061 A 
HETATM   27  C   UNL     1      40.884 -13.048   6.499  1.00  0.00     0.048 C 
HETATM   28  C   UNL     1      42.790 -14.676   6.581  1.00  0.00     0.015 A 
HETATM   29  C   UNL     1      43.536 -15.762   6.090  1.00  0.00    -0.034 A 
HETATM   30  C   UNL     1      44.727 -16.240   6.869  1.00  0.00     0.050 C 
HETATM   31  N   UNL     1      43.594 -17.409   4.187  1.00  0.00    -0.358 N 
HETATM   32  H   UNL     1      44.405 -17.938   4.474  1.00  0.00     0.166 HD
HETATM   33  C   UNL     1      42.859 -17.651   3.061  1.00  0.00     0.013 A 
HETATM   34  C   UNL     1      43.214 -18.755   2.130  1.00  0.00     0.068 C 
ENDBRANCH  21  22
ENDBRANCH   1  21
TORSDOF 8
ENDMDL
MODEL 10
REMARK VINA RESULT:      -7.8      5.637      9.232
REMARK  8 active torsions:
REMARK  status: ('A' for Active; 'I' for Inactive)
REMARK    1  A    between atoms: C_10  and  C_11 
REMARK    2  A    between atoms: C_11  and  C_12 
REMARK       I    between atoms: C_12  and  N_13 
REMARK    3  A    between atoms: N_13  and  N_14 
REMARK       I    between atoms: N_14  and  C_15 
REMARK    4  A    between atoms: C_15  and  C_16 
REMARK    5  A    between atoms: C_16  and  C_17 
REMARK    6  A    between atoms: C_17  and  C_18 
REMARK       I    between atoms: C_18  and  N_19 
REMARK    7  A    between atoms: N_19  and  C_20 
REMARK    8  A    between atoms: C_20  and  C_21 
ROOT
HETATM    1  C   UNL     1      42.099 -13.552   6.652  1.00  0.00     0.240 C 
HETATM    2  N   UNL     1      43.254 -13.213   7.335  1.00  0.00    -0.267 N 
HETATM    3  O   UNL     1      41.500 -12.740   5.947  1.00  0.00    -0.272 OA
HETATM    4  H   UNL     1      43.854 -13.908   7.780  1.00  0.00     0.190 HD
ENDROOT
BRANCH   2   5
HETATM    5  N   UNL     1      43.851 -11.983   7.021  1.00  0.00    -0.268 N 
HETATM    6  C   UNL     1      44.337 -11.218   8.062  1.00  0.00     0.236 C 
HETATM    7  O   UNL     1      44.123 -11.483   9.244  1.00  0.00    -0.272 OA
HETATM    8  H   UNL     1      44.227 -11.910   6.074  1.00  0.00     0.190 HD
BRANCH   6   9
HETATM    9  C   UNL     1      45.191 -10.055   7.603  1.00  0.00     0.114 C 
BRANCH   9  10
HETATM   10  C   UNL     1      45.663  -9.198   8.769  1.00  0.00     0.112 C 
BRANCH  10  11
HETATM   11  C   UNL     1      44.635  -8.154   9.144  1.00  0.00     0.218 C 
HETATM   12  N   UNL     1      43.743  -8.559  10.104  1.00  0.00    -0.355 N 
HETATM   13  H   UNL     1      44.008  -9.349  10.694  1.00  0.00     0.162 HD
HETATM   14  O   UNL     1      44.623  -7.040   8.629  1.00  0.00    -0.274 OA
BRANCH  12  15
HETATM   15  C   UNL     1      42.756  -7.646  10.628  1.00  0.00     0.187 C 
BRANCH  15  16
HETATM   16  C   UNL     1      41.783  -8.414  11.438  1.00  0.00     0.070 A 
HETATM   17  O   UNL     1      42.294  -9.354  12.286  1.00  0.00    -0.325 OA
HETATM   18  C   UNL     1      41.240  -9.935  12.916  1.00  0.00     0.142 A 
HETATM   19  C   UNL     1      40.056  -9.382  12.484  1.00  0.00     0.027 A 
HETATM   20  C   UNL     1      40.406  -8.399  11.528  1.00  0.00     0.036 A 
ENDBRANCH  15  16
ENDBRANCH  12  15
ENDBRANCH  10  11
ENDBRANCH   9  10
ENDBRANCH   6   9
ENDBRANCH   2   5
BRANCH   1  21
HETATM   21  C   UNL     1      41.674 -14.992   6.818  1.00  0.00     0.146 C 
BRANCH  21  22
HETATM   22  C   UNL     1      42.310 -15.998   5.904  1.00  0.00    -0.015 A 
HETATM   23  C   UNL     1      42.055 -16.302   4.518  1.00  0.00     0.000 A 
HETATM   24  C   UNL     1      41.182 -15.794   3.531  1.00  0.00     0.021 A 
HETATM   25  C   UNL     1      42.911 -17.345   4.150  1.00  0.00     0.049 A 
HETATM   26  C   UNL     1      41.174 -16.335   2.236  1.00  0.00    -0.061 A 
HETATM   27  C   UNL     1      40.271 -15.768   1.179  1.00  0.00     0.048 C 
HETATM   28  C   UNL     1      42.053 -17.371   1.917  1.00  0.00     0.015 A 
HETATM   29  C   UNL     1      42.942 -17.913   2.862  1.00  0.00    -0.034 A 
HETATM   30  C   UNL     1      43.865 -19.020   2.443  1.00  0.00     0.050 C 
HETATM   31  N   UNL     1      43.663 -17.653   5.259  1.00  0.00    -0.358 N 
HETATM   32  H   UNL     1      44.375 -18.368   5.278  1.00  0.00     0.166 HD
HETATM   33  C   UNL     1      43.315 -16.864   6.321  1.00  0.00     0.013 A 
HETATM   34  C   UNL     1      43.985 -17.008   7.641  1.00  0.00     0.068 C 
ENDBRANCH  21  22
ENDBRANCH   1  21
TORSDOF 8
ENDMDL
