MODEL 1
REMARK VINA RESULT:      -8.8      0.000      0.000
REMARK  4 active torsions:
REMARK  status: ('A' for Active; 'I' for Inactive)
REMARK    1  A    between atoms: O_2  and  C_3 
REMARK    2  A    between atoms: C_4  and  C_5 
REMARK    3  A    between atoms: C_9  and  N_10 
REMARK    4  A    between atoms: C_13  and  C_14 
ROOT
HETATM    1  C   UNL     1      42.114 -16.317   2.637  1.00  0.00     0.167 C 
HETATM    2  N   UNL     1      41.592 -15.752   3.879  1.00  0.00    -0.074 N 
HETATM    3  C   UNL     1      41.525 -14.408   4.134  1.00  0.00     0.736 A 
HETATM    4  N   UNL     1      40.875 -14.217   5.252  1.00  0.00     0.131 NA
HETATM    5  C   UNL     1      40.520 -15.479   5.621  1.00  0.00     0.753 A 
HETATM    6  N   UNL     1      40.917 -16.455   4.809  1.00  0.00     0.037 NA
HETATM    7  N   UNL     1      42.028 -13.497   3.275  1.00  0.00    -0.214 N 
HETATM    8  C   UNL     1      42.420 -13.886   1.926  1.00  0.00     0.135 C 
HETATM    9  C   UNL     1      43.029 -15.299   1.930  1.00  0.00     0.063 C 
HETATM   10  H   UNL     1      41.718 -12.536   3.391  1.00  0.00     0.178 HD
ENDROOT
BRANCH   1  11
HETATM   11  C   UNL     1      42.839 -17.638   2.864  1.00  0.00     0.001 A 
HETATM   12  C   UNL     1      43.814 -17.762   3.870  1.00  0.00     0.076 A 
HETATM   13  C   UNL     1      44.450 -18.990   4.087  1.00  0.00     0.037 A 
HETATM   14  C   UNL     1      44.146 -20.094   3.290  1.00  0.00     0.003 A 
HETATM   15  C   UNL     1      43.199 -19.979   2.278  1.00  0.00     0.001 A 
HETATM   16  C   UNL     1      42.550 -18.763   2.066  1.00  0.00     0.012 A 
BRANCH  12  17
HETATM   17  O   UNL     1      44.058 -16.660   4.648  1.00  0.00    -0.355 OA
HETATM   18  C   UNL     1      44.324 -16.948   6.019  1.00  0.00     0.210 C 
ENDBRANCH  12  17
ENDBRANCH   1  11
BRANCH   8  19
HETATM   19  C   UNL     1      41.309 -13.717   0.899  1.00  0.00    -0.035 A 
HETATM   20  C   UNL     1      40.951 -12.413   0.504  1.00  0.00     0.010 A 
HETATM   21  C   UNL     1      39.952 -12.196  -0.447  1.00  0.00     0.019 A 
HETATM   22  C   UNL     1      39.299 -13.282  -1.022  1.00  0.00     0.011 A 
HETATM   23 BR   UNL     1      37.948 -12.992  -2.312  1.00  0.00    -0.051 Br
HETATM   24  C   UNL     1      39.636 -14.580  -0.651  1.00  0.00     0.019 A 
HETATM   25  C   UNL     1      40.634 -14.796   0.304  1.00  0.00     0.010 A 
ENDBRANCH   8  19
BRANCH   5  26
HETATM   26  N   UNL     1      39.824 -15.644   6.743  1.00  0.00    -0.229 N 
HETATM   27  H   UNL     1      38.863 -15.333   6.725  1.00  0.00     0.174 HD
HETATM   28  H   UNL     1      40.317 -15.458   7.606  1.00  0.00     0.174 HD
ENDBRANCH   5  26
TORSDOF 4
ENDMDL
MODEL 2
REMARK VINA RESULT:      -8.5      3.255      5.019
REMARK  4 active torsions:
REMARK  status: ('A' for Active; 'I' for Inactive)
REMARK    1  A    between atoms: O_2  and  C_3 
REMARK    2  A    between atoms: C_4  and  C_5 
REMARK    3  A    between atoms: C_9  and  N_10 
REMARK    4  A    between atoms: C_13  and  C_14 
ROOT
HETATM    1  C   UNL     1      42.399 -15.852   3.886  1.00  0.00     0.167 C 
HETATM    2  N   UNL     1      41.653 -15.239   2.790  1.00  0.00    -0.074 N 
HETATM    3  C   UNL     1      40.574 -14.414   2.972  1.00  0.00     0.736 A 
HETATM    4  N   UNL     1      40.224 -13.907   1.819  1.00  0.00     0.131 NA
HETATM    5  C   UNL     1      41.155 -14.415   0.965  1.00  0.00     0.753 A 
HETATM    6  N   UNL     1      42.063 -15.221   1.507  1.00  0.00     0.037 NA
HETATM    7  N   UNL     1      40.060 -14.179   4.198  1.00  0.00    -0.214 N 
HETATM    8  C   UNL     1      40.790 -14.573   5.396  1.00  0.00     0.135 C 
HETATM    9  C   UNL     1      41.535 -15.898   5.161  1.00  0.00     0.063 C 
HETATM   10  H   UNL     1      39.447 -13.374   4.291  1.00  0.00     0.178 HD
ENDROOT
BRANCH   1  11
HETATM   11  C   UNL     1      42.916 -17.240   3.525  1.00  0.00     0.001 A 
HETATM   12  C   UNL     1      43.894 -17.872   4.313  1.00  0.00     0.076 A 
HETATM   13  C   UNL     1      44.336 -19.160   3.987  1.00  0.00     0.037 A 
HETATM   14  C   UNL     1      43.834 -19.816   2.863  1.00  0.00     0.003 A 
HETATM   15  C   UNL     1      42.882 -19.193   2.063  1.00  0.00     0.001 A 
HETATM   16  C   UNL     1      42.426 -17.917   2.390  1.00  0.00     0.012 A 
BRANCH  12  17
HETATM   17  O   UNL     1      44.335 -17.203   5.425  1.00  0.00    -0.355 OA
HETATM   18  C   UNL     1      43.870 -17.737   6.663  1.00  0.00     0.210 C 
ENDBRANCH  12  17
ENDBRANCH   1  11
BRANCH   8  19
HETATM   19  C   UNL     1      41.686 -13.474   5.950  1.00  0.00    -0.035 A 
HETATM   20  C   UNL     1      42.894 -13.841   6.575  1.00  0.00     0.010 A 
HETATM   21  C   UNL     1      43.764 -12.877   7.086  1.00  0.00     0.019 A 
HETATM   22  C   UNL     1      43.442 -11.527   6.975  1.00  0.00     0.011 A 
HETATM   23 BR   UNL     1      44.620 -10.220   7.663  1.00  0.00    -0.051 Br
HETATM   24  C   UNL     1      42.257 -11.138   6.360  1.00  0.00     0.019 A 
HETATM   25  C   UNL     1      41.384 -12.105   5.851  1.00  0.00     0.010 A 
ENDBRANCH   8  19
BRANCH   5  26
HETATM   26  N   UNL     1      41.088 -14.082  -0.322  1.00  0.00    -0.229 N 
HETATM   27  H   UNL     1      40.305 -13.507  -0.597  1.00  0.00     0.174 HD
HETATM   28  H   UNL     1      41.341 -14.803  -0.984  1.00  0.00     0.174 HD
ENDBRANCH   5  26
TORSDOF 4
ENDMDL
MODEL 3
REMARK VINA RESULT:      -8.3      3.904      7.116
REMARK  4 active torsions:
REMARK  status: ('A' for Active; 'I' for Inactive)
REMARK    1  A    between atoms: O_2  and  C_3 
REMARK    2  A    between atoms: C_4  and  C_5 
REMARK    3  A    between atoms: C_9  and  N_10 
REMARK    4  A    between atoms: C_13  and  C_14 
ROOT
HETATM    1  C   UNL     1      42.386 -12.359   4.662  1.00  0.00     0.167 C 
HETATM    2  N   UNL     1      43.465 -12.029   5.590  1.00  0.00    -0.074 N 
HETATM    3  C   UNL     1      43.726 -12.734   6.735  1.00  0.00     0.736 A 
HETATM    4  N   UNL     1      44.837 -12.293   7.264  1.00  0.00     0.131 NA
HETATM    5  C   UNL     1      45.247 -11.346   6.375  1.00  0.00     0.753 A 
HETATM    6  N   UNL     1      44.455 -11.155   5.324  1.00  0.00     0.037 NA
HETATM    7  N   UNL     1      42.934 -13.749   7.139  1.00  0.00    -0.214 N 
HETATM    8  C   UNL     1      41.929 -14.308   6.244  1.00  0.00     0.135 C 
HETATM    9  C   UNL     1      41.309 -13.201   5.374  1.00  0.00     0.063 C 
HETATM   10  H   UNL     1      43.320 -14.384   7.832  1.00  0.00     0.178 HD
ENDROOT
BRANCH   1  11
HETATM   11  C   UNL     1      41.775 -11.117   4.023  1.00  0.00     0.001 A 
HETATM   12  C   UNL     1      41.711 -10.983   2.625  1.00  0.00     0.076 A 
HETATM   13  C   UNL     1      41.118  -9.851   2.053  1.00  0.00     0.037 A 
HETATM   14  C   UNL     1      40.614  -8.833   2.862  1.00  0.00     0.003 A 
HETATM   15  C   UNL     1      40.690  -8.943   4.246  1.00  0.00     0.001 A 
HETATM   16  C   UNL     1      41.265 -10.075   4.824  1.00  0.00     0.012 A 
BRANCH  12  17
HETATM   17  O   UNL     1      42.191 -12.022   1.871  1.00  0.00    -0.355 OA
HETATM   18  C   UNL     1      41.197 -12.727   1.129  1.00  0.00     0.210 C 
ENDBRANCH  12  17
ENDBRANCH   1  11
BRANCH   8  19
HETATM   19  C   UNL     1      42.432 -15.494   5.433  1.00  0.00    -0.035 A 
HETATM   20  C   UNL     1      41.733 -15.855   4.264  1.00  0.00     0.010 A 
HETATM   21  C   UNL     1      42.157 -16.922   3.470  1.00  0.00     0.019 A 
HETATM   22  C   UNL     1      43.291 -17.644   3.832  1.00  0.00     0.011 A 
HETATM   23 BR   UNL     1      43.868 -19.088   2.758  1.00  0.00    -0.051 Br
HETATM   24  C   UNL     1      44.000 -17.307   4.980  1.00  0.00     0.019 A 
HETATM   25  C   UNL     1      43.573 -16.239   5.776  1.00  0.00     0.010 A 
ENDBRANCH   8  19
BRANCH   5  26
HETATM   26  N   UNL     1      46.378 -10.690   6.619  1.00  0.00    -0.229 N 
HETATM   27  H   UNL     1      46.992 -10.545   5.830  1.00  0.00     0.174 HD
HETATM   28  H   UNL     1      46.845 -10.910   7.488  1.00  0.00     0.174 HD
ENDBRANCH   5  26
TORSDOF 4
ENDMDL
MODEL 4
REMARK VINA RESULT:      -8.1     14.830     16.584
REMARK  4 active torsions:
REMARK  status: ('A' for Active; 'I' for Inactive)
REMARK    1  A    between atoms: O_2  and  C_3 
REMARK    2  A    between atoms: C_4  and  C_5 
REMARK    3  A    between atoms: C_9  and  N_10 
REMARK    4  A    between atoms: C_13  and  C_14 
ROOT
HETATM    1  C   UNL     1      45.345 -29.861  -0.604  1.00  0.00     0.167 C 
HETATM    2  N   UNL     1      45.071 -29.565  -2.008  1.00  0.00    -0.074 N 
HETATM    3  C   UNL     1      45.803 -28.680  -2.756  1.00  0.00     0.736 A 
HETATM    4  N   UNL     1      45.413 -28.749  -4.002  1.00  0.00     0.131 NA
HETATM    5  C   UNL     1      44.471 -29.733  -3.975  1.00  0.00     0.753 A 
HETATM    6  N   UNL     1      44.234 -30.278  -2.786  1.00  0.00     0.037 NA
HETATM    7  N   UNL     1      46.790 -27.938  -2.212  1.00  0.00    -0.214 N 
HETATM    8  C   UNL     1      47.296 -28.240  -0.879  1.00  0.00     0.135 C 
HETATM    9  C   UNL     1      46.154 -28.715   0.036  1.00  0.00     0.063 C 
HETATM   10  H   UNL     1      47.450 -27.511  -2.855  1.00  0.00     0.178 HD
ENDROOT
BRANCH   1  11
HETATM   11  C   UNL     1      44.072 -30.138   0.186  1.00  0.00     0.001 A 
HETATM   12  C   UNL     1      43.654 -31.456   0.442  1.00  0.00     0.076 A 
HETATM   13  C   UNL     1      42.499 -31.695   1.196  1.00  0.00     0.037 A 
HETATM   14  C   UNL     1      41.735 -30.630   1.674  1.00  0.00     0.003 A 
HETATM   15  C   UNL     1      42.124 -29.322   1.408  1.00  0.00     0.001 A 
HETATM   16  C   UNL     1      43.282 -29.076   0.672  1.00  0.00     0.012 A 
BRANCH  12  17
HETATM   17  O   UNL     1      44.454 -32.469  -0.020  1.00  0.00    -0.355 OA
HETATM   18  C   UNL     1      43.805 -33.382  -0.903  1.00  0.00     0.210 C 
ENDBRANCH  12  17
ENDBRANCH   1  11
BRANCH   8  19
HETATM   19  C   UNL     1      48.490 -29.184  -0.883  1.00  0.00    -0.035 A 
HETATM   20  C   UNL     1      48.964 -29.674   0.350  1.00  0.00     0.010 A 
HETATM   21  C   UNL     1      50.045 -30.557   0.408  1.00  0.00     0.019 A 
HETATM   22  C   UNL     1      50.665 -30.968  -0.768  1.00  0.00     0.011 A 
HETATM   23 BR   UNL     1      52.126 -32.164  -0.692  1.00  0.00    -0.051 Br
HETATM   24  C   UNL     1      50.215 -30.500  -1.998  1.00  0.00     0.019 A 
HETATM   25  C   UNL     1      49.135 -29.614  -2.055  1.00  0.00     0.010 A 
ENDBRANCH   8  19
BRANCH   5  26
HETATM   26  N   UNL     1      43.864 -30.064  -5.112  1.00  0.00    -0.229 N 
HETATM   27  H   UNL     1      43.703 -29.316  -5.771  1.00  0.00     0.174 HD
HETATM   28  H   UNL     1      43.112 -30.736  -5.038  1.00  0.00     0.174 HD
ENDBRANCH   5  26
TORSDOF 4
ENDMDL
MODEL 5
REMARK VINA RESULT:      -8.1     14.310     16.167
REMARK  4 active torsions:
REMARK  status: ('A' for Active; 'I' for Inactive)
REMARK    1  A    between atoms: O_2  and  C_3 
REMARK    2  A    between atoms: C_4  and  C_5 
REMARK    3  A    between atoms: C_9  and  N_10 
REMARK    4  A    between atoms: C_13  and  C_14 
ROOT
HETATM    1  C   UNL     1      44.383 -29.837  -0.015  1.00  0.00     0.167 C 
HETATM    2  N   UNL     1      45.544 -29.483   0.797  1.00  0.00    -0.074 N 
HETATM    3  C   UNL     1      45.462 -29.056   2.096  1.00  0.00     0.736 A 
HETATM    4  N   UNL     1      46.668 -28.969   2.594  1.00  0.00     0.131 NA
HETATM    5  C   UNL     1      47.455 -29.403   1.571  1.00  0.00     0.753 A 
HETATM    6  N   UNL     1      46.820 -29.746   0.454  1.00  0.00     0.037 NA
HETATM    7  N   UNL     1      44.274 -28.844   2.699  1.00  0.00    -0.214 N 
HETATM    8  C   UNL     1      43.037 -29.312   2.087  1.00  0.00     0.135 C 
HETATM    9  C   UNL     1      43.111 -29.180   0.556  1.00  0.00     0.063 C 
HETATM   10  H   UNL     1      44.278 -28.787   3.714  1.00  0.00     0.178 HD
ENDROOT
BRANCH   1  11
HETATM   11  C   UNL     1      44.573 -29.472  -1.483  1.00  0.00     0.001 A 
HETATM   12  C   UNL     1      44.333 -30.415  -2.498  1.00  0.00     0.076 A 
HETATM   13  C   UNL     1      44.482 -30.056  -3.843  1.00  0.00     0.037 A 
HETATM   14  C   UNL     1      44.899 -28.771  -4.189  1.00  0.00     0.003 A 
HETATM   15  C   UNL     1      45.162 -27.835  -3.194  1.00  0.00     0.001 A 
HETATM   16  C   UNL     1      45.000 -28.180  -1.853  1.00  0.00     0.012 A 
BRANCH  12  17
HETATM   17  O   UNL     1      43.895 -31.656  -2.112  1.00  0.00    -0.355 OA
HETATM   18  C   UNL     1      44.031 -32.669  -3.105  1.00  0.00     0.210 C 
ENDBRANCH  12  17
ENDBRANCH   1  11
BRANCH   8  19
HETATM   19  C   UNL     1      42.620 -30.702   2.548  1.00  0.00    -0.035 A 
HETATM   20  C   UNL     1      41.484 -31.292   1.961  1.00  0.00     0.010 A 
HETATM   21  C   UNL     1      41.063 -32.572   2.331  1.00  0.00     0.019 A 
HETATM   22  C   UNL     1      41.778 -33.283   3.290  1.00  0.00     0.011 A 
HETATM   23 BR   UNL     1      41.213 -35.016   3.789  1.00  0.00    -0.051 Br
HETATM   24  C   UNL     1      42.905 -32.724   3.882  1.00  0.00     0.019 A 
HETATM   25  C   UNL     1      43.323 -31.441   3.514  1.00  0.00     0.010 A 
ENDBRANCH   8  19
BRANCH   5  26
HETATM   26  N   UNL     1      48.772 -29.444   1.754  1.00  0.00    -0.229 N 
HETATM   27  H   UNL     1      49.336 -28.955   1.073  1.00  0.00     0.174 HD
HETATM   28  H   UNL     1      49.153 -30.326   2.069  1.00  0.00     0.174 HD
ENDBRANCH   5  26
TORSDOF 4
ENDMDL
MODEL 6
REMARK VINA RESULT:      -8.1     14.026     15.390
REMARK  4 active torsions:
REMARK  status: ('A' for Active; 'I' for Inactive)
REMARK    1  A    between atoms: O_2  and  C_3 
REMARK    2  A    between atoms: C_4  and  C_5 
REMARK    3  A    between atoms: C_9  and  N_10 
REMARK    4  A    between atoms: C_13  and  C_14 
ROOT
HETATM    1  C   UNL     1      46.476 -29.699   0.739  1.00  0.00     0.167 C 
HETATM    2  N   UNL     1      45.317 -30.131   1.516  1.00  0.00    -0.074 N 
HETATM    3  C   UNL     1      44.051 -29.642   1.329  1.00  0.00     0.736 A 
HETATM    4  N   UNL     1      43.216 -30.331   2.062  1.00  0.00     0.131 NA
HETATM    5  C   UNL     1      44.016 -31.267   2.644  1.00  0.00     0.753 A 
HETATM    6  N   UNL     1      45.307 -31.202   2.333  1.00  0.00     0.037 NA
HETATM    7  N   UNL     1      43.798 -28.644   0.458  1.00  0.00    -0.214 N 
HETATM    8  C   UNL     1      44.806 -28.229  -0.509  1.00  0.00     0.135 C 
HETATM    9  C   UNL     1      46.212 -28.317   0.109  1.00  0.00     0.063 C 
HETATM   10  H   UNL     1      42.829 -28.513   0.180  1.00  0.00     0.178 HD
ENDROOT
BRANCH   1  11
HETATM   11  C   UNL     1      47.755 -29.685   1.569  1.00  0.00     0.001 A 
HETATM   12  C   UNL     1      48.909 -30.356   1.127  1.00  0.00     0.076 A 
HETATM   13  C   UNL     1      50.085 -30.308   1.885  1.00  0.00     0.037 A 
HETATM   14  C   UNL     1      50.115 -29.623   3.099  1.00  0.00     0.003 A 
HETATM   15  C   UNL     1      48.974 -28.974   3.559  1.00  0.00     0.001 A 
HETATM   16  C   UNL     1      47.804 -29.003   2.801  1.00  0.00     0.012 A 
BRANCH  12  17
HETATM   17  O   UNL     1      48.841 -30.990  -0.087  1.00  0.00    -0.355 OA
HETATM   18  C   UNL     1      49.663 -30.418  -1.103  1.00  0.00     0.210 C 
ENDBRANCH  12  17
ENDBRANCH   1  11
BRANCH   8  19
HETATM   19  C   UNL     1      44.695 -28.946  -1.847  1.00  0.00    -0.035 A 
HETATM   20  C   UNL     1      45.090 -28.260  -3.012  1.00  0.00     0.010 A 
HETATM   21  C   UNL     1      45.027 -28.872  -4.266  1.00  0.00     0.019 A 
HETATM   22  C   UNL     1      44.573 -30.183  -4.372  1.00  0.00     0.011 A 
HETATM   23 BR   UNL     1      44.490 -31.015  -6.067  1.00  0.00    -0.051 Br
HETATM   24  C   UNL     1      44.179 -30.883  -3.236  1.00  0.00     0.019 A 
HETATM   25  C   UNL     1      44.239 -30.268  -1.982  1.00  0.00     0.010 A 
ENDBRANCH   8  19
BRANCH   5  26
HETATM   26  N   UNL     1      43.464 -32.152   3.469  1.00  0.00    -0.229 N 
HETATM   27  H   UNL     1      43.108 -31.792   4.344  1.00  0.00     0.174 HD
HETATM   28  H   UNL     1      43.923 -33.051   3.534  1.00  0.00     0.174 HD
ENDBRANCH   5  26
TORSDOF 4
ENDMDL
MODEL 7
REMARK VINA RESULT:      -8.0     11.252     13.612
REMARK  4 active torsions:
REMARK  status: ('A' for Active; 'I' for Inactive)
REMARK    1  A    between atoms: O_2  and  C_3 
REMARK    2  A    between atoms: C_4  and  C_5 
REMARK    3  A    between atoms: C_9  and  N_10 
REMARK    4  A    between atoms: C_13  and  C_14 
ROOT
HETATM    1  C   UNL     1      42.269  -8.075  12.207  1.00  0.00     0.167 C 
HETATM    2  N   UNL     1      41.265  -9.122  12.381  1.00  0.00    -0.074 N 
HETATM    3  C   UNL     1      40.749  -9.485  13.597  1.00  0.00     0.736 A 
HETATM    4  N   UNL     1      39.770 -10.331  13.410  1.00  0.00     0.131 NA
HETATM    5  C   UNL     1      39.691 -10.414  12.053  1.00  0.00     0.753 A 
HETATM    6  N   UNL     1      40.570  -9.683  11.374  1.00  0.00     0.037 NA
HETATM    7  N   UNL     1      41.208  -8.955  14.750  1.00  0.00    -0.214 N 
HETATM    8  C   UNL     1      42.076  -7.785  14.734  1.00  0.00     0.135 C 
HETATM    9  C   UNL     1      43.029  -7.838  13.527  1.00  0.00     0.063 C 
HETATM   10  H   UNL     1      40.620  -9.065  15.572  1.00  0.00     0.178 HD
ENDROOT
BRANCH   1  11
HETATM   11  C   UNL     1      43.235  -8.387  11.070  1.00  0.00     0.001 A 
HETATM   12  C   UNL     1      43.199  -7.654   9.871  1.00  0.00     0.076 A 
HETATM   13  C   UNL     1      44.113  -7.931   8.847  1.00  0.00     0.037 A 
HETATM   14  C   UNL     1      45.047  -8.956   8.993  1.00  0.00     0.003 A 
HETATM   15  C   UNL     1      45.079  -9.705  10.165  1.00  0.00     0.001 A 
HETATM   16  C   UNL     1      44.182  -9.424  11.196  1.00  0.00     0.012 A 
BRANCH  12  17
HETATM   17  O   UNL     1      42.285  -6.635   9.785  1.00  0.00    -0.355 OA
HETATM   18  C   UNL     1      42.071  -6.139   8.465  1.00  0.00     0.210 C 
ENDBRANCH  12  17
ENDBRANCH   1  11
BRANCH   8  19
HETATM   19  C   UNL     1      41.322  -6.467  14.842  1.00  0.00    -0.035 A 
HETATM   20  C   UNL     1      40.199  -6.402  15.691  1.00  0.00     0.010 A 
HETATM   21  C   UNL     1      39.478  -5.216  15.844  1.00  0.00     0.019 A 
HETATM   22  C   UNL     1      39.872  -4.074  15.153  1.00  0.00     0.011 A 
HETATM   23 BR   UNL     1      38.899  -2.468  15.361  1.00  0.00    -0.051 Br
HETATM   24  C   UNL     1      40.978  -4.111  14.311  1.00  0.00     0.019 A 
HETATM   25  C   UNL     1      41.698  -5.300  14.156  1.00  0.00     0.010 A 
ENDBRANCH   8  19
BRANCH   5  26
HETATM   26  N   UNL     1      38.768 -11.208  11.516  1.00  0.00    -0.229 N 
HETATM   27  H   UNL     1      38.204 -10.808  10.780  1.00  0.00     0.174 HD
HETATM   28  H   UNL     1      38.269 -11.811  12.156  1.00  0.00     0.174 HD
ENDBRANCH   5  26
TORSDOF 4
ENDMDL
MODEL 8
REMARK VINA RESULT:      -7.7     11.554     13.996
REMARK  4 active torsions:
REMARK  status: ('A' for Active; 'I' for Inactive)
REMARK    1  A    between atoms: O_2  and  C_3 
REMARK    2  A    between atoms: C_4  and  C_5 
REMARK    3  A    between atoms: C_9  and  N_10 
REMARK    4  A    between atoms: C_13  and  C_14 
ROOT
HETATM    1  C   UNL     1      41.879  -7.622  12.466  1.00  0.00     0.167 C 
HETATM    2  N   UNL     1      41.062  -8.820  12.641  1.00  0.00    -0.074 N 
HETATM    3  C   UNL     1      40.774  -9.371  13.862  1.00  0.00     0.736 A 
HETATM    4  N   UNL     1      39.904 -10.334  13.701  1.00  0.00     0.131 NA
HETATM    5  C   UNL     1      39.652 -10.300  12.362  1.00  0.00     0.753 A 
HETATM    6  N   UNL     1      40.320  -9.383  11.669  1.00  0.00     0.037 NA
HETATM    7  N   UNL     1      41.308  -8.889  15.003  1.00  0.00    -0.214 N 
HETATM    8  C   UNL     1      41.996  -7.604  15.014  1.00  0.00     0.135 C 
HETATM    9  C   UNL     1      42.773  -7.398  13.702  1.00  0.00     0.063 C 
HETATM   10  H   UNL     1      40.860  -9.164  15.872  1.00  0.00     0.178 HD
ENDROOT
BRANCH   1  11
HETATM   11  C   UNL     1      42.714  -7.675  11.192  1.00  0.00     0.001 A 
HETATM   12  C   UNL     1      43.643  -8.708  10.980  1.00  0.00     0.076 A 
HETATM   13  C   UNL     1      44.380  -8.761   9.791  1.00  0.00     0.037 A 
HETATM   14  C   UNL     1      44.223  -7.773   8.819  1.00  0.00     0.003 A 
HETATM   15  C   UNL     1      43.323  -6.733   9.024  1.00  0.00     0.001 A 
HETATM   16  C   UNL     1      42.574  -6.683  10.200  1.00  0.00     0.012 A 
BRANCH  12  17
HETATM   17  O   UNL     1      43.741  -9.673  11.950  1.00  0.00    -0.355 OA
HETATM   18  C   UNL     1      43.683 -11.012  11.463  1.00  0.00     0.210 C 
ENDBRANCH  12  17
ENDBRANCH   1  11
BRANCH   8  19
HETATM   19  C   UNL     1      41.089  -6.433  15.362  1.00  0.00    -0.035 A 
HETATM   20  C   UNL     1      40.010  -6.655  16.240  1.00  0.00     0.010 A 
HETATM   21  C   UNL     1      39.154  -5.615  16.610  1.00  0.00     0.019 A 
HETATM   22  C   UNL     1      39.368  -4.334  16.110  1.00  0.00     0.011 A 
HETATM   23 BR   UNL     1      38.213  -2.925  16.611  1.00  0.00    -0.051 Br
HETATM   24  C   UNL     1      40.428  -4.088  15.243  1.00  0.00     0.019 A 
HETATM   25  C   UNL     1      41.282  -5.130  14.871  1.00  0.00     0.010 A 
ENDBRANCH   8  19
BRANCH   5  26
HETATM   26  N   UNL     1      38.783 -11.170  11.855  1.00  0.00    -0.229 N 
HETATM   27  H   UNL     1      38.059 -10.789  11.263  1.00  0.00     0.174 HD
HETATM   28  H   UNL     1      38.483 -11.914  12.471  1.00  0.00     0.174 HD
ENDBRANCH   5  26
TORSDOF 4
ENDMDL
MODEL 9
REMARK VINA RESULT:      -7.6     14.706     16.710
REMARK  4 active torsions:
REMARK  status: ('A' for Active; 'I' for Inactive)
REMARK    1  A    between atoms: O_2  and  C_3 
REMARK    2  A    between atoms: C_4  and  C_5 
REMARK    3  A    between atoms: C_9  and  N_10 
REMARK    4  A    between atoms: C_13  and  C_14 
ROOT
HETATM    1  C   UNL     1      46.449 -29.631  -0.664  1.00  0.00     0.167 C 
HETATM    2  N   UNL     1      47.892 -29.724  -0.865  1.00  0.00    -0.074 N 
HETATM    3  C   UNL     1      48.816 -29.203   0.001  1.00  0.00     0.736 A 
HETATM    4  N   UNL     1      50.011 -29.580  -0.370  1.00  0.00     0.131 NA
HETATM    5  C   UNL     1      49.761 -30.377  -1.446  1.00  0.00     0.753 A 
HETATM    6  N   UNL     1      48.482 -30.514  -1.783  1.00  0.00     0.037 NA
HETATM    7  N   UNL     1      48.449 -28.475   1.076  1.00  0.00    -0.214 N 
HETATM    8  C   UNL     1      47.057 -28.439   1.508  1.00  0.00     0.135 C 
HETATM    9  C   UNL     1      46.116 -28.468   0.291  1.00  0.00     0.063 C 
HETATM   10  H   UNL     1      49.146 -28.346   1.804  1.00  0.00     0.178 HD
ENDROOT
BRANCH   1  11
HETATM   11  C   UNL     1      45.691 -29.492  -1.979  1.00  0.00     0.001 A 
HETATM   12  C   UNL     1      44.896 -30.543  -2.468  1.00  0.00     0.076 A 
HETATM   13  C   UNL     1      44.180 -30.389  -3.662  1.00  0.00     0.037 A 
HETATM   14  C   UNL     1      44.273 -29.205  -4.393  1.00  0.00     0.003 A 
HETATM   15  C   UNL     1      45.074 -28.165  -3.932  1.00  0.00     0.001 A 
HETATM   16  C   UNL     1      45.777 -28.305  -2.735  1.00  0.00     0.012 A 
BRANCH  12  17
HETATM   17  O   UNL     1      44.810 -31.676  -1.700  1.00  0.00    -0.355 OA
HETATM   18  C   UNL     1      43.949 -32.685  -2.225  1.00  0.00     0.210 C 
ENDBRANCH  12  17
ENDBRANCH   1  11
BRANCH   8  19
HETATM   19  C   UNL     1      46.719 -29.494   2.551  1.00  0.00    -0.035 A 
HETATM   20  C   UNL     1      47.691 -29.822   3.517  1.00  0.00     0.010 A 
HETATM   21  C   UNL     1      47.431 -30.769   4.509  1.00  0.00     0.019 A 
HETATM   22  C   UNL     1      46.191 -31.400   4.554  1.00  0.00     0.011 A 
HETATM   23 BR   UNL     1      45.837 -32.681   5.898  1.00  0.00    -0.051 Br
HETATM   24  C   UNL     1      45.214 -31.093   3.614  1.00  0.00     0.019 A 
HETATM   25  C   UNL     1      45.476 -30.146   2.618  1.00  0.00     0.010 A 
ENDBRANCH   8  19
BRANCH   5  26
HETATM   26  N   UNL     1      50.790 -30.941  -2.074  1.00  0.00    -0.229 N 
HETATM   27  H   UNL     1      50.617 -31.271  -3.013  1.00  0.00     0.174 HD
HETATM   28  H   UNL     1      51.382 -31.539  -1.514  1.00  0.00     0.174 HD
ENDBRANCH   5  26
TORSDOF 4
ENDMDL
MODEL 10
REMARK VINA RESULT:      -7.4      9.007     11.366
REMARK  4 active torsions:
REMARK  status: ('A' for Active; 'I' for Inactive)
REMARK    1  A    between atoms: O_2  and  C_3 
REMARK    2  A    between atoms: C_4  and  C_5 
REMARK    3  A    between atoms: C_9  and  N_10 
REMARK    4  A    between atoms: C_13  and  C_14 
ROOT
HETATM    1  C   UNL     1      42.504  -8.386  10.847  1.00  0.00     0.167 C 
HETATM    2  N   UNL     1      42.053  -7.184  10.152  1.00  0.00    -0.074 N 
HETATM    3  C   UNL     1      42.685  -6.656   9.057  1.00  0.00     0.736 A 
HETATM    4  N   UNL     1      41.959  -5.681   8.574  1.00  0.00     0.131 NA
HETATM    5  C   UNL     1      40.863  -5.684   9.382  1.00  0.00     0.753 A 
HETATM    6  N   UNL     1      40.859  -6.593  10.353  1.00  0.00     0.037 NA
HETATM    7  N   UNL     1      43.842  -7.169   8.590  1.00  0.00    -0.214 N 
HETATM    8  C   UNL     1      44.325  -8.460   9.062  1.00  0.00     0.135 C 
HETATM    9  C   UNL     1      43.995  -8.646  10.553  1.00  0.00     0.063 C 
HETATM   10  H   UNL     1      44.112  -6.908   7.646  1.00  0.00     0.178 HD
ENDROOT
BRANCH   1  11
HETATM   11  C   UNL     1      42.249  -8.314  12.348  1.00  0.00     0.001 A 
HETATM   12  C   UNL     1      41.215  -9.061  12.940  1.00  0.00     0.076 A 
HETATM   13  C   UNL     1      41.012  -9.009  14.325  1.00  0.00     0.037 A 
HETATM   14  C   UNL     1      41.811  -8.193  15.125  1.00  0.00     0.003 A 
HETATM   15  C   UNL     1      42.824  -7.433  14.550  1.00  0.00     0.001 A 
HETATM   16  C   UNL     1      43.042  -7.492  13.174  1.00  0.00     0.012 A 
BRANCH  12  17
HETATM   17  O   UNL     1      40.475  -9.871  12.118  1.00  0.00    -0.355 OA
HETATM   18  C   UNL     1      39.523 -10.691  12.793  1.00  0.00     0.210 C 
ENDBRANCH  12  17
ENDBRANCH   1  11
BRANCH   8  19
HETATM   19  C   UNL     1      43.872  -9.630   8.199  1.00  0.00    -0.035 A 
HETATM   20  C   UNL     1      44.651 -10.803   8.193  1.00  0.00     0.010 A 
HETATM   21  C   UNL     1      44.276 -11.915   7.436  1.00  0.00     0.019 A 
HETATM   22  C   UNL     1      43.111 -11.871   6.676  1.00  0.00     0.011 A 
HETATM   23 BR   UNL     1      42.600 -13.375   5.652  1.00  0.00    -0.051 Br
HETATM   24  C   UNL     1      42.322 -10.725   6.667  1.00  0.00     0.019 A 
HETATM   25  C   UNL     1      42.700  -9.612   7.423  1.00  0.00     0.010 A 
ENDBRANCH   8  19
BRANCH   5  26
HETATM   26  N   UNL     1      39.901  -4.794   9.153  1.00  0.00    -0.229 N 
HETATM   27  H   UNL     1      40.078  -3.850   9.466  1.00  0.00     0.174 HD
HETATM   28  H   UNL     1      38.952  -5.116   9.287  1.00  0.00     0.174 HD
ENDBRANCH   5  26
TORSDOF 4
ENDMDL
