MODEL 1
REMARK VINA RESULT:      -8.2      0.000      0.000
REMARK  6 active torsions:
REMARK  status: ('A' for Active; 'I' for Inactive)
REMARK    1  A    between atoms: C_2  and  O_3 
REMARK    2  A    between atoms: O_3  and  C_4 
REMARK    3  A    between atoms: C_4  and  C_5 
REMARK    4  A    between atoms: C_8  and  C_9 
REMARK    5  A    between atoms: C_9  and  N_10 
REMARK    6  A    between atoms: N_10  and  C_11 
ROOT
HETATM    1  N   UNL     1      42.711 -14.765   3.437  1.00  0.00    -0.220 N 
HETATM    2  H   UNL     1      43.330 -14.218   2.856  1.00  0.00     0.178 HD
ENDROOT
BRANCH   1   3
HETATM    3  C   UNL     1      41.975 -13.994   4.420  1.00  0.00     0.176 C 
BRANCH   3   4
HETATM    4  C   UNL     1      42.930 -13.133   5.209  1.00  0.00    -0.040 A 
HETATM    5  C   UNL     1      43.082 -13.324   6.589  1.00  0.00     0.009 A 
HETATM    6  C   UNL     1      43.979 -12.542   7.318  1.00  0.00     0.010 A 
HETATM    7  C   UNL     1      44.733 -11.544   6.685  1.00  0.00    -0.035 A 
HETATM    8  C   UNL     1      44.571 -11.343   5.309  1.00  0.00     0.010 A 
HETATM    9  C   UNL     1      43.673 -12.126   4.578  1.00  0.00     0.009 A 
BRANCH   7  10
HETATM   10  C   UNL     1      45.732 -10.736   7.472  1.00  0.00     0.206 C 
BRANCH  10  11
HETATM   11  O   UNL     1      45.422 -10.879   8.854  1.00  0.00    -0.382 OA
BRANCH  11  12
HETATM   12  C   UNL     1      45.496  -9.657   9.591  1.00  0.00     0.113 C 
HETATM   13  C   UNL     1      44.426  -9.615  10.679  1.00  0.00     0.039 C 
HETATM   14  C   UNL     1      45.277  -8.524   8.594  1.00  0.00     0.039 C 
ENDBRANCH  11  12
ENDBRANCH  10  11
ENDBRANCH   7  10
ENDBRANCH   3   4
ENDBRANCH   1   3
BRANCH   1  15
HETATM   15  C   UNL     1      43.025 -16.071   3.656  1.00  0.00     0.704 A 
HETATM   16  N   UNL     1      43.021 -16.958   2.713  1.00  0.00    -0.064 NA
HETATM   17  C   UNL     1      43.353 -18.285   3.028  1.00  0.00     0.091 A 
HETATM   18  C   UNL     1      43.693 -18.687   4.321  1.00  0.00     0.062 A 
HETATM   19  C   UNL     1      43.342 -19.244   2.013  1.00  0.00     0.033 A 
HETATM   20  C   UNL     1      43.697 -17.651   5.363  1.00  0.00     0.272 A 
HETATM   21  C   UNL     1      44.018 -20.016   4.611  1.00  0.00     0.019 A 
HETATM   22  O   UNL     1      43.994 -17.896   6.527  1.00  0.00    -0.267 OA
HETATM   23  N   UNL     1      43.346 -16.392   4.947  1.00  0.00    -0.154 N 
HETATM   24  H   UNL     1      43.376 -15.675   5.653  1.00  0.00     0.187 HD
HETATM   25  C   UNL     1      44.002 -20.962   3.587  1.00  0.00     0.001 A 
HETATM   26  C   UNL     1      43.665 -20.577   2.289  1.00  0.00     0.002 A 
ENDBRANCH   1  15
TORSDOF 6
ENDMDL
MODEL 2
REMARK VINA RESULT:      -8.0      4.332      7.177
REMARK  6 active torsions:
REMARK  status: ('A' for Active; 'I' for Inactive)
REMARK    1  A    between atoms: C_2  and  O_3 
REMARK    2  A    between atoms: O_3  and  C_4 
REMARK    3  A    between atoms: C_4  and  C_5 
REMARK    4  A    between atoms: C_8  and  C_9 
REMARK    5  A    between atoms: C_9  and  N_10 
REMARK    6  A    between atoms: N_10  and  C_11 
ROOT
HETATM    1  N   UNL     1      43.027 -14.698   4.115  1.00  0.00    -0.220 N 
HETATM    2  H   UNL     1      43.735 -14.036   4.397  1.00  0.00     0.178 HD
ENDROOT
BRANCH   1   3
HETATM    3  C   UNL     1      41.683 -14.157   4.069  1.00  0.00     0.176 C 
BRANCH   3   4
HETATM    4  C   UNL     1      41.130 -14.286   2.672  1.00  0.00    -0.040 A 
HETATM    5  C   UNL     1      41.419 -13.316   1.703  1.00  0.00     0.009 A 
HETATM    6  C   UNL     1      40.925 -13.444   0.403  1.00  0.00     0.010 A 
HETATM    7  C   UNL     1      40.122 -14.536   0.049  1.00  0.00    -0.035 A 
HETATM    8  C   UNL     1      39.821 -15.498   1.021  1.00  0.00     0.010 A 
HETATM    9  C   UNL     1      40.315 -15.372   2.322  1.00  0.00     0.009 A 
BRANCH   7  10
HETATM   10  C   UNL     1      39.632 -14.689  -1.367  1.00  0.00     0.206 C 
BRANCH  10  11
HETATM   11  O   UNL     1      39.534 -13.389  -1.941  1.00  0.00    -0.382 OA
BRANCH  11  12
HETATM   12  C   UNL     1      38.564 -13.291  -2.984  1.00  0.00     0.113 C 
HETATM   13  C   UNL     1      37.277 -12.653  -2.468  1.00  0.00     0.039 C 
HETATM   14  C   UNL     1      38.290 -14.710  -3.470  1.00  0.00     0.039 C 
ENDBRANCH  11  12
ENDBRANCH  10  11
ENDBRANCH   7  10
ENDBRANCH   3   4
ENDBRANCH   1   3
BRANCH   1  15
HETATM   15  C   UNL     1      43.247 -16.018   4.367  1.00  0.00     0.704 A 
HETATM   16  N   UNL     1      43.349 -16.901   3.425  1.00  0.00    -0.064 NA
HETATM   17  C   UNL     1      43.572 -18.243   3.774  1.00  0.00     0.091 A 
HETATM   18  C   UNL     1      43.692 -18.663   5.100  1.00  0.00     0.062 A 
HETATM   19  C   UNL     1      43.675 -19.197   2.760  1.00  0.00     0.033 A 
HETATM   20  C   UNL     1      43.580 -17.631   6.141  1.00  0.00     0.272 A 
HETATM   21  C   UNL     1      43.911 -20.006   5.423  1.00  0.00     0.019 A 
HETATM   22  O   UNL     1      43.685 -17.892   7.334  1.00  0.00    -0.267 OA
HETATM   23  N   UNL     1      43.352 -16.356   5.689  1.00  0.00    -0.154 N 
HETATM   24  H   UNL     1      43.305 -15.644   6.397  1.00  0.00     0.187 HD
HETATM   25  C   UNL     1      44.012 -20.947   4.400  1.00  0.00     0.001 A 
HETATM   26  C   UNL     1      43.894 -20.543   3.070  1.00  0.00     0.002 A 
ENDBRANCH   1  15
TORSDOF 6
ENDMDL
MODEL 3
REMARK VINA RESULT:      -8.0      1.633      2.419
REMARK  6 active torsions:
REMARK  status: ('A' for Active; 'I' for Inactive)
REMARK    1  A    between atoms: C_2  and  O_3 
REMARK    2  A    between atoms: O_3  and  C_4 
REMARK    3  A    between atoms: C_4  and  C_5 
REMARK    4  A    between atoms: C_8  and  C_9 
REMARK    5  A    between atoms: C_9  and  N_10 
REMARK    6  A    between atoms: N_10  and  C_11 
ROOT
HETATM    1  N   UNL     1      43.499 -14.809   5.744  1.00  0.00    -0.220 N 
HETATM    2  H   UNL     1      43.449 -14.920   6.747  1.00  0.00     0.178 HD
ENDROOT
BRANCH   1   3
HETATM    3  C   UNL     1      42.945 -13.565   5.249  1.00  0.00     0.176 C 
BRANCH   3   4
HETATM    4  C   UNL     1      43.398 -12.423   6.124  1.00  0.00    -0.040 A 
HETATM    5  C   UNL     1      42.543 -11.341   6.375  1.00  0.00     0.009 A 
HETATM    6  C   UNL     1      42.952 -10.292   7.201  1.00  0.00     0.010 A 
HETATM    7  C   UNL     1      44.227 -10.297   7.781  1.00  0.00    -0.035 A 
HETATM    8  C   UNL     1      45.087 -11.370   7.519  1.00  0.00     0.010 A 
HETATM    9  C   UNL     1      44.678 -12.421   6.693  1.00  0.00     0.009 A 
BRANCH   7  10
HETATM   10  C   UNL     1      44.642  -9.183   8.707  1.00  0.00     0.206 C 
BRANCH  10  11
HETATM   11  O   UNL     1      44.855  -9.742   9.999  1.00  0.00    -0.382 OA
BRANCH  11  12
HETATM   12  C   UNL     1      43.685  -9.764  10.818  1.00  0.00     0.113 C 
HETATM   13  C   UNL     1      43.627  -8.532  11.715  1.00  0.00     0.039 C 
HETATM   14  C   UNL     1      43.762 -11.030  11.666  1.00  0.00     0.039 C 
ENDBRANCH  11  12
ENDBRANCH  10  11
ENDBRANCH   7  10
ENDBRANCH   3   4
ENDBRANCH   1   3
BRANCH   1  15
HETATM   15  C   UNL     1      43.508 -15.933   4.974  1.00  0.00     0.704 A 
HETATM   16  N   UNL     1      43.752 -17.109   5.459  1.00  0.00    -0.064 NA
HETATM   17  C   UNL     1      43.746 -18.213   4.592  1.00  0.00     0.091 A 
HETATM   18  C   UNL     1      43.482 -18.095   3.227  1.00  0.00     0.062 A 
HETATM   19  C   UNL     1      44.016 -19.481   5.112  1.00  0.00     0.033 A 
HETATM   20  C   UNL     1      43.200 -16.746   2.715  1.00  0.00     0.272 A 
HETATM   21  C   UNL     1      43.484 -19.211   2.383  1.00  0.00     0.019 A 
HETATM   22  O   UNL     1      42.942 -16.535   1.536  1.00  0.00    -0.267 OA
HETATM   23  N   UNL     1      43.243 -15.739   3.646  1.00  0.00    -0.154 N 
HETATM   24  H   UNL     1      43.021 -14.820   3.304  1.00  0.00     0.187 HD
HETATM   25  C   UNL     1      43.756 -20.469   2.916  1.00  0.00     0.001 A 
HETATM   26  C   UNL     1      44.021 -20.605   4.279  1.00  0.00     0.002 A 
ENDBRANCH   1  15
TORSDOF 6
ENDMDL
MODEL 4
REMARK VINA RESULT:      -7.9      1.343      2.228
REMARK  6 active torsions:
REMARK  status: ('A' for Active; 'I' for Inactive)
REMARK    1  A    between atoms: C_2  and  O_3 
REMARK    2  A    between atoms: O_3  and  C_4 
REMARK    3  A    between atoms: C_4  and  C_5 
REMARK    4  A    between atoms: C_8  and  C_9 
REMARK    5  A    between atoms: C_9  and  N_10 
REMARK    6  A    between atoms: N_10  and  C_11 
ROOT
HETATM    1  N   UNL     1      42.528 -13.091   4.748  1.00  0.00    -0.220 N 
HETATM    2  H   UNL     1      41.551 -12.857   4.640  1.00  0.00     0.178 HD
ENDROOT
BRANCH   1   3
HETATM    3  C   UNL     1      43.443 -12.023   4.398  1.00  0.00     0.176 C 
BRANCH   3   4
HETATM    4  C   UNL     1      43.937 -11.345   5.651  1.00  0.00    -0.040 A 
HETATM    5  C   UNL     1      45.285 -11.438   6.023  1.00  0.00     0.009 A 
HETATM    6  C   UNL     1      45.749 -10.794   7.172  1.00  0.00     0.010 A 
HETATM    7  C   UNL     1      44.873 -10.056   7.979  1.00  0.00    -0.035 A 
HETATM    8  C   UNL     1      43.523  -9.975   7.616  1.00  0.00     0.010 A 
HETATM    9  C   UNL     1      43.058 -10.618   6.466  1.00  0.00     0.009 A 
BRANCH   7  10
HETATM   10  C   UNL     1      45.392  -9.328   9.191  1.00  0.00     0.206 C 
BRANCH  10  11
HETATM   11  O   UNL     1      44.273  -8.870   9.942  1.00  0.00    -0.382 OA
BRANCH  11  12
HETATM   12  C   UNL     1      44.226  -9.378  11.276  1.00  0.00     0.113 C 
HETATM   13  C   UNL     1      43.488 -10.713  11.322  1.00  0.00     0.039 C 
HETATM   14  C   UNL     1      43.492  -8.341  12.120  1.00  0.00     0.039 C 
ENDBRANCH  11  12
ENDBRANCH  10  11
ENDBRANCH   7  10
ENDBRANCH   3   4
ENDBRANCH   1   3
BRANCH   1  15
HETATM   15  C   UNL     1      42.891 -14.398   4.630  1.00  0.00     0.704 A 
HETATM   16  N   UNL     1      42.668 -15.090   3.558  1.00  0.00    -0.064 NA
HETATM   17  C   UNL     1      43.071 -16.435   3.524  1.00  0.00     0.091 A 
HETATM   18  C   UNL     1      43.709 -17.055   4.600  1.00  0.00     0.062 A 
HETATM   19  C   UNL     1      42.826 -17.184   2.372  1.00  0.00     0.033 A 
HETATM   20  C   UNL     1      43.953 -16.235   5.795  1.00  0.00     0.272 A 
HETATM   21  C   UNL     1      44.099 -18.397   4.543  1.00  0.00     0.019 A 
HETATM   22  O   UNL     1      44.517 -16.679   6.788  1.00  0.00    -0.267 OA
HETATM   23  N   UNL     1      43.508 -14.939   5.725  1.00  0.00    -0.154 N 
HETATM   24  H   UNL     1      43.701 -14.368   6.530  1.00  0.00     0.187 HD
HETATM   25  C   UNL     1      43.847 -19.133   3.386  1.00  0.00     0.001 A 
HETATM   26  C   UNL     1      43.211 -18.527   2.301  1.00  0.00     0.002 A 
ENDBRANCH   1  15
TORSDOF 6
ENDMDL
MODEL 5
REMARK VINA RESULT:      -7.8      5.121      8.704
REMARK  6 active torsions:
REMARK  status: ('A' for Active; 'I' for Inactive)
REMARK    1  A    between atoms: C_2  and  O_3 
REMARK    2  A    between atoms: O_3  and  C_4 
REMARK    3  A    between atoms: C_4  and  C_5 
REMARK    4  A    between atoms: C_8  and  C_9 
REMARK    5  A    between atoms: C_9  and  N_10 
REMARK    6  A    between atoms: N_10  and  C_11 
ROOT
HETATM    1  N   UNL     1      39.763 -15.158   0.813  1.00  0.00    -0.220 N 
HETATM    2  H   UNL     1      39.225 -15.980   0.577  1.00  0.00     0.178 HD
ENDROOT
BRANCH   1   3
HETATM    3  C   UNL     1      39.757 -14.820   2.222  1.00  0.00     0.176 C 
BRANCH   3   4
HETATM    4  C   UNL     1      40.915 -15.496   2.912  1.00  0.00    -0.040 A 
HETATM    5  C   UNL     1      40.807 -15.895   4.251  1.00  0.00     0.009 A 
HETATM    6  C   UNL     1      41.870 -16.539   4.887  1.00  0.00     0.010 A 
HETATM    7  C   UNL     1      43.068 -16.785   4.202  1.00  0.00    -0.035 A 
HETATM    8  C   UNL     1      43.181 -16.374   2.868  1.00  0.00     0.010 A 
HETATM    9  C   UNL     1      42.117 -15.729   2.231  1.00  0.00     0.009 A 
BRANCH   7  10
HETATM   10  C   UNL     1      44.193 -17.521   4.882  1.00  0.00     0.206 C 
BRANCH  10  11
HETATM   11  O   UNL     1      43.705 -18.797   5.282  1.00  0.00    -0.382 OA
BRANCH  11  12
HETATM   12  C   UNL     1      44.315 -19.889   4.595  1.00  0.00     0.113 C 
HETATM   13  C   UNL     1      43.814 -19.972   3.156  1.00  0.00     0.039 C 
HETATM   14  C   UNL     1      43.941 -21.157   5.356  1.00  0.00     0.039 C 
ENDBRANCH  11  12
ENDBRANCH  10  11
ENDBRANCH   7  10
ENDBRANCH   3   4
ENDBRANCH   1   3
BRANCH   1  15
HETATM   15  C   UNL     1      39.920 -14.200  -0.142  1.00  0.00     0.704 A 
HETATM   16  N   UNL     1      40.452 -13.046   0.108  1.00  0.00    -0.064 NA
HETATM   17  C   UNL     1      40.571 -12.114  -0.935  1.00  0.00     0.091 A 
HETATM   18  C   UNL     1      40.143 -12.384  -2.235  1.00  0.00     0.062 A 
HETATM   19  C   UNL     1      41.138 -10.866  -0.665  1.00  0.00     0.033 A 
HETATM   20  C   UNL     1      39.553 -13.707  -2.483  1.00  0.00     0.272 A 
HETATM   21  C   UNL     1      40.269 -11.437  -3.258  1.00  0.00     0.019 A 
HETATM   22  O   UNL     1      39.158 -14.050  -3.592  1.00  0.00    -0.267 OA
HETATM   23  N   UNL     1      39.476 -14.535  -1.392  1.00  0.00    -0.154 N 
HETATM   24  H   UNL     1      39.100 -15.451  -1.565  1.00  0.00     0.187 HD
HETATM   25  C   UNL     1      40.836 -10.197  -2.973  1.00  0.00     0.001 A 
HETATM   26  C   UNL     1      41.271  -9.911  -1.678  1.00  0.00     0.002 A 
ENDBRANCH   1  15
TORSDOF 6
ENDMDL
MODEL 6
REMARK VINA RESULT:      -7.5     15.029     17.691
REMARK  6 active torsions:
REMARK  status: ('A' for Active; 'I' for Inactive)
REMARK    1  A    between atoms: C_2  and  O_3 
REMARK    2  A    between atoms: O_3  and  C_4 
REMARK    3  A    between atoms: C_4  and  C_5 
REMARK    4  A    between atoms: C_8  and  C_9 
REMARK    5  A    between atoms: C_9  and  N_10 
REMARK    6  A    between atoms: N_10  and  C_11 
ROOT
HETATM    1  N   UNL     1      43.268 -29.774   2.702  1.00  0.00    -0.220 N 
HETATM    2  H   UNL     1      43.490 -30.458   3.412  1.00  0.00     0.178 HD
ENDROOT
BRANCH   1   3
HETATM    3  C   UNL     1      41.897 -29.818   2.234  1.00  0.00     0.176 C 
BRANCH   3   4
HETATM    4  C   UNL     1      41.100 -30.776   3.084  1.00  0.00    -0.040 A 
HETATM    5  C   UNL     1      41.107 -30.658   4.481  1.00  0.00     0.009 A 
HETATM    6  C   UNL     1      40.355 -31.530   5.269  1.00  0.00     0.010 A 
HETATM    7  C   UNL     1      39.591 -32.546   4.679  1.00  0.00    -0.035 A 
HETATM    8  C   UNL     1      39.596 -32.674   3.285  1.00  0.00     0.010 A 
HETATM    9  C   UNL     1      40.348 -31.801   2.494  1.00  0.00     0.009 A 
BRANCH   7  10
HETATM   10  C   UNL     1      38.747 -33.454   5.536  1.00  0.00     0.206 C 
BRANCH  10  11
HETATM   11  O   UNL     1      37.449 -32.878   5.639  1.00  0.00    -0.382 OA
BRANCH  11  12
HETATM   12  C   UNL     1      36.402 -33.727   5.168  1.00  0.00     0.113 C 
HETATM   13  C   UNL     1      36.930 -35.129   4.877  1.00  0.00     0.039 C 
HETATM   14  C   UNL     1      35.859 -33.094   3.891  1.00  0.00     0.039 C 
ENDBRANCH  11  12
ENDBRANCH  10  11
ENDBRANCH   7  10
ENDBRANCH   3   4
ENDBRANCH   1   3
BRANCH   1  15
HETATM   15  C   UNL     1      44.275 -29.337   1.896  1.00  0.00     0.704 A 
HETATM   16  N   UNL     1      44.177 -29.316   0.605  1.00  0.00    -0.064 NA
HETATM   17  C   UNL     1      45.267 -28.855  -0.151  1.00  0.00     0.091 A 
HETATM   18  C   UNL     1      46.453 -28.412   0.436  1.00  0.00     0.062 A 
HETATM   19  C   UNL     1      45.165 -28.838  -1.543  1.00  0.00     0.033 A 
HETATM   20  C   UNL     1      46.524 -28.441   1.904  1.00  0.00     0.272 A 
HETATM   21  C   UNL     1      47.526 -27.959  -0.338  1.00  0.00     0.019 A 
HETATM   22  O   UNL     1      47.514 -28.061   2.518  1.00  0.00    -0.267 OA
HETATM   23  N   UNL     1      45.407 -28.920   2.541  1.00  0.00    -0.154 N 
HETATM   24  H   UNL     1      45.443 -28.914   3.546  1.00  0.00     0.187 HD
HETATM   25  C   UNL     1      47.410 -27.949  -1.727  1.00  0.00     0.001 A 
HETATM   26  C   UNL     1      46.230 -28.388  -2.330  1.00  0.00     0.002 A 
ENDBRANCH   1  15
TORSDOF 6
ENDMDL
MODEL 7
REMARK VINA RESULT:      -7.4      1.741      2.049
REMARK  6 active torsions:
REMARK  status: ('A' for Active; 'I' for Inactive)
REMARK    1  A    between atoms: C_2  and  O_3 
REMARK    2  A    between atoms: O_3  and  C_4 
REMARK    3  A    between atoms: C_4  and  C_5 
REMARK    4  A    between atoms: C_8  and  C_9 
REMARK    5  A    between atoms: C_9  and  N_10 
REMARK    6  A    between atoms: N_10  and  C_11 
ROOT
HETATM    1  N   UNL     1      40.124 -14.095   4.163  1.00  0.00    -0.220 N 
HETATM    2  H   UNL     1      39.158 -14.341   3.997  1.00  0.00     0.178 HD
ENDROOT
BRANCH   1   3
HETATM    3  C   UNL     1      40.530 -12.834   3.577  1.00  0.00     0.176 C 
BRANCH   3   4
HETATM    4  C   UNL     1      41.335 -12.043   4.579  1.00  0.00    -0.040 A 
HETATM    5  C   UNL     1      40.699 -11.411   5.657  1.00  0.00     0.009 A 
HETATM    6  C   UNL     1      41.443 -10.696   6.597  1.00  0.00     0.010 A 
HETATM    7  C   UNL     1      42.835 -10.587   6.472  1.00  0.00    -0.035 A 
HETATM    8  C   UNL     1      43.468 -11.206   5.388  1.00  0.00     0.010 A 
HETATM    9  C   UNL     1      42.724 -11.923   4.446  1.00  0.00     0.009 A 
BRANCH   7  10
HETATM   10  C   UNL     1      43.634  -9.851   7.517  1.00  0.00     0.206 C 
BRANCH  10  11
HETATM   11  O   UNL     1      44.301 -10.818   8.321  1.00  0.00    -0.382 OA
BRANCH  11  12
HETATM   12  C   UNL     1      45.478 -10.322   8.962  1.00  0.00     0.113 C 
HETATM   13  C   UNL     1      45.151  -9.782  10.351  1.00  0.00     0.039 C 
HETATM   14  C   UNL     1      46.027  -9.207   8.078  1.00  0.00     0.039 C 
ENDBRANCH  11  12
ENDBRANCH  10  11
ENDBRANCH   7  10
ENDBRANCH   3   4
ENDBRANCH   1   3
BRANCH   1  15
HETATM   15  C   UNL     1      41.018 -15.103   4.357  1.00  0.00     0.704 A 
HETATM   16  N   UNL     1      41.550 -15.763   3.378  1.00  0.00    -0.064 NA
HETATM   17  C   UNL     1      42.460 -16.792   3.668  1.00  0.00     0.091 A 
HETATM   18  C   UNL     1      42.819 -17.129   4.974  1.00  0.00     0.062 A 
HETATM   19  C   UNL     1      43.029 -17.509   2.614  1.00  0.00     0.033 A 
HETATM   20  C   UNL     1      42.203 -16.352   6.059  1.00  0.00     0.272 A 
HETATM   21  C   UNL     1      43.727 -18.160   5.239  1.00  0.00     0.019 A 
HETATM   22  O   UNL     1      42.461 -16.558   7.239  1.00  0.00    -0.267 OA
HETATM   23  N   UNL     1      41.321 -15.379   5.663  1.00  0.00    -0.154 N 
HETATM   24  H   UNL     1      40.920 -14.827   6.402  1.00  0.00     0.187 HD
HETATM   25  C   UNL     1      44.286 -18.867   4.176  1.00  0.00     0.001 A 
HETATM   26  C   UNL     1      43.938 -18.542   2.864  1.00  0.00     0.002 A 
ENDBRANCH   1  15
TORSDOF 6
ENDMDL
MODEL 8
REMARK VINA RESULT:      -7.4      3.185      9.581
REMARK  6 active torsions:
REMARK  status: ('A' for Active; 'I' for Inactive)
REMARK    1  A    between atoms: C_2  and  O_3 
REMARK    2  A    between atoms: O_3  and  C_4 
REMARK    3  A    between atoms: C_4  and  C_5 
REMARK    4  A    between atoms: C_8  and  C_9 
REMARK    5  A    between atoms: C_9  and  N_10 
REMARK    6  A    between atoms: N_10  and  C_11 
ROOT
HETATM    1  N   UNL     1      44.044 -10.526   7.314  1.00  0.00    -0.220 N 
HETATM    2  H   UNL     1      43.387 -10.318   6.576  1.00  0.00     0.178 HD
ENDROOT
BRANCH   1   3
HETATM    3  C   UNL     1      44.766 -11.771   7.142  1.00  0.00     0.176 C 
BRANCH   3   4
HETATM    4  C   UNL     1      43.971 -12.702   6.260  1.00  0.00    -0.040 A 
HETATM    5  C   UNL     1      43.824 -14.052   6.606  1.00  0.00     0.009 A 
HETATM    6  C   UNL     1      43.072 -14.911   5.803  1.00  0.00     0.010 A 
HETATM    7  C   UNL     1      42.463 -14.442   4.631  1.00  0.00    -0.035 A 
HETATM    8  C   UNL     1      42.622 -13.097   4.277  1.00  0.00     0.010 A 
HETATM    9  C   UNL     1      43.374 -12.236   5.081  1.00  0.00     0.009 A 
BRANCH   7  10
HETATM   10  C   UNL     1      41.617 -15.367   3.795  1.00  0.00     0.206 C 
BRANCH  10  11
HETATM   11  O   UNL     1      42.292 -16.617   3.702  1.00  0.00    -0.382 OA
BRANCH  11  12
HETATM   12  C   UNL     1      42.439 -17.094   2.364  1.00  0.00     0.113 C 
HETATM   13  C   UNL     1      43.090 -18.474   2.349  1.00  0.00     0.039 C 
HETATM   14  C   UNL     1      43.319 -16.088   1.629  1.00  0.00     0.039 C 
ENDBRANCH  11  12
ENDBRANCH  10  11
ENDBRANCH   7  10
ENDBRANCH   3   4
ENDBRANCH   1   3
BRANCH   1  15
HETATM   15  C   UNL     1      43.796 -10.020   8.554  1.00  0.00     0.704 A 
HETATM   16  N   UNL     1      43.437  -8.791   8.748  1.00  0.00    -0.064 NA
HETATM   17  C   UNL     1      43.206  -8.351  10.061  1.00  0.00     0.091 A 
HETATM   18  C   UNL     1      43.343  -9.190  11.168  1.00  0.00     0.062 A 
HETATM   19  C   UNL     1      42.825  -7.025  10.272  1.00  0.00     0.033 A 
HETATM   20  C   UNL     1      43.743 -10.580  10.909  1.00  0.00     0.272 A 
HETATM   21  C   UNL     1      43.110  -8.727  12.468  1.00  0.00     0.019 A 
HETATM   22  O   UNL     1      43.878 -11.401  11.809  1.00  0.00    -0.267 OA
HETATM   23  N   UNL     1      43.953 -10.899   9.591  1.00  0.00    -0.154 N 
HETATM   24  H   UNL     1      44.197 -11.858   9.408  1.00  0.00     0.187 HD
HETATM   25  C   UNL     1      42.732  -7.400  12.663  1.00  0.00     0.001 A 
HETATM   26  C   UNL     1      42.589  -6.549  11.566  1.00  0.00     0.002 A 
ENDBRANCH   1  15
TORSDOF 6
ENDMDL
MODEL 9
REMARK VINA RESULT:      -7.4      4.626      6.929
REMARK  6 active torsions:
REMARK  status: ('A' for Active; 'I' for Inactive)
REMARK    1  A    between atoms: C_2  and  O_3 
REMARK    2  A    between atoms: O_3  and  C_4 
REMARK    3  A    between atoms: C_4  and  C_5 
REMARK    4  A    between atoms: C_8  and  C_9 
REMARK    5  A    between atoms: C_9  and  N_10 
REMARK    6  A    between atoms: N_10  and  C_11 
ROOT
HETATM    1  N   UNL     1      42.156 -14.592   3.223  1.00  0.00    -0.220 N 
HETATM    2  H   UNL     1      42.731 -13.785   3.420  1.00  0.00     0.178 HD
ENDROOT
BRANCH   1   3
HETATM    3  C   UNL     1      40.730 -14.339   3.269  1.00  0.00     0.176 C 
BRANCH   3   4
HETATM    4  C   UNL     1      40.237 -13.954   1.896  1.00  0.00    -0.040 A 
HETATM    5  C   UNL     1      39.748 -12.663   1.655  1.00  0.00     0.009 A 
HETATM    6  C   UNL     1      39.310 -12.298   0.381  1.00  0.00     0.010 A 
HETATM    7  C   UNL     1      39.340 -13.219  -0.675  1.00  0.00    -0.035 A 
HETATM    8  C   UNL     1      39.814 -14.513  -0.431  1.00  0.00     0.010 A 
HETATM    9  C   UNL     1      40.254 -14.880   0.844  1.00  0.00     0.009 A 
BRANCH   7  10
HETATM   10  C   UNL     1      38.908 -12.801  -2.057  1.00  0.00     0.206 C 
BRANCH  10  11
HETATM   11  O   UNL     1      39.138 -11.402  -2.185  1.00  0.00    -0.382 OA
BRANCH  11  12
HETATM   12  C   UNL     1      40.290 -11.076  -2.963  1.00  0.00     0.113 C 
HETATM   13  C   UNL     1      41.165 -12.307  -3.179  1.00  0.00     0.039 C 
HETATM   14  C   UNL     1      41.060 -10.011  -2.189  1.00  0.00     0.039 C 
ENDBRANCH  11  12
ENDBRANCH  10  11
ENDBRANCH   7  10
ENDBRANCH   3   4
ENDBRANCH   1   3
BRANCH   1  15
HETATM   15  C   UNL     1      42.662 -15.825   3.504  1.00  0.00     0.704 A 
HETATM   16  N   UNL     1      42.577 -16.820   2.680  1.00  0.00    -0.064 NA
HETATM   17  C   UNL     1      43.123 -18.058   3.054  1.00  0.00     0.091 A 
HETATM   18  C   UNL     1      43.761 -18.258   4.279  1.00  0.00     0.062 A 
HETATM   19  C   UNL     1      43.026 -19.134   2.169  1.00  0.00     0.033 A 
HETATM   20  C   UNL     1      43.847 -17.103   5.184  1.00  0.00     0.272 A 
HETATM   21  C   UNL     1      44.295 -19.503   4.630  1.00  0.00     0.019 A 
HETATM   22  O   UNL     1      44.398 -17.169   6.277  1.00  0.00    -0.267 OA
HETATM   23  N   UNL     1      43.271 -15.946   4.724  1.00  0.00    -0.154 N 
HETATM   24  H   UNL     1      43.355 -15.147   5.329  1.00  0.00     0.187 HD
HETATM   25  C   UNL     1      44.189 -20.567   3.737  1.00  0.00     0.001 A 
HETATM   26  C   UNL     1      43.556 -20.384   2.507  1.00  0.00     0.002 A 
ENDBRANCH   1  15
TORSDOF 6
ENDMDL
MODEL 10
REMARK VINA RESULT:      -7.4      9.003     14.868
REMARK  6 active torsions:
REMARK  status: ('A' for Active; 'I' for Inactive)
REMARK    1  A    between atoms: C_2  and  O_3 
REMARK    2  A    between atoms: O_3  and  C_4 
REMARK    3  A    between atoms: C_4  and  C_5 
REMARK    4  A    between atoms: C_8  and  C_9 
REMARK    5  A    between atoms: C_9  and  N_10 
REMARK    6  A    between atoms: N_10  and  C_11 
ROOT
HETATM    1  N   UNL     1      41.324  -8.147  16.321  1.00  0.00    -0.220 N 
HETATM    2  H   UNL     1      41.511  -9.134  16.216  1.00  0.00     0.178 HD
ENDROOT
BRANCH   1   3
HETATM    3  C   UNL     1      41.988  -7.304  15.348  1.00  0.00     0.176 C 
BRANCH   3   4
HETATM    4  C   UNL     1      42.392  -8.129  14.151  1.00  0.00    -0.040 A 
HETATM    5  C   UNL     1      41.806  -9.382  13.925  1.00  0.00     0.009 A 
HETATM    6  C   UNL     1      42.163 -10.140  12.808  1.00  0.00     0.010 A 
HETATM    7  C   UNL     1      43.122  -9.666  11.902  1.00  0.00    -0.035 A 
HETATM    8  C   UNL     1      43.718  -8.421  12.136  1.00  0.00     0.010 A 
HETATM    9  C   UNL     1      43.361  -7.662  13.253  1.00  0.00     0.009 A 
BRANCH   7  10
HETATM   10  C   UNL     1      43.467 -10.471  10.676  1.00  0.00     0.206 C 
BRANCH  10  11
HETATM   11  O   UNL     1      44.877 -10.409  10.492  1.00  0.00    -0.382 OA
BRANCH  11  12
HETATM   12  C   UNL     1      45.279 -10.356   9.123  1.00  0.00     0.113 C 
HETATM   13  C   UNL     1      45.666  -8.935   8.725  1.00  0.00     0.039 C 
HETATM   14  C   UNL     1      44.090 -10.829   8.294  1.00  0.00     0.039 C 
ENDBRANCH  11  12
ENDBRANCH  10  11
ENDBRANCH   7  10
ENDBRANCH   3   4
ENDBRANCH   1   3
BRANCH   1  15
HETATM   15  C   UNL     1      41.015  -7.682  17.563  1.00  0.00     0.704 A 
HETATM   16  N   UNL     1      41.278  -6.472  17.941  1.00  0.00    -0.064 NA
HETATM   17  C   UNL     1      40.929  -6.077  19.243  1.00  0.00     0.091 A 
HETATM   18  C   UNL     1      40.304  -6.937  20.146  1.00  0.00     0.062 A 
HETATM   19  C   UNL     1      41.219  -4.774  19.654  1.00  0.00     0.033 A 
HETATM   20  C   UNL     1      40.012  -8.300  19.678  1.00  0.00     0.272 A 
HETATM   21  C   UNL     1      39.968  -6.522  21.439  1.00  0.00     0.019 A 
HETATM   22  O   UNL     1      39.453  -9.129  20.387  1.00  0.00    -0.267 OA
HETATM   23  N   UNL     1      40.406  -8.582  18.395  1.00  0.00    -0.154 N 
HETATM   24  H   UNL     1      40.181  -9.505  18.062  1.00  0.00     0.187 HD
HETATM   25  C   UNL     1      40.264  -5.219  21.835  1.00  0.00     0.001 A 
HETATM   26  C   UNL     1      40.889  -4.345  20.944  1.00  0.00     0.002 A 
ENDBRANCH   1  15
TORSDOF 6
ENDMDL
