MODEL 1
REMARK VINA RESULT:      -9.0      0.000      0.000
REMARK  7 active torsions:
REMARK  status: ('A' for Active; 'I' for Inactive)
REMARK    1  A    between atoms: C_7  and  C_8 
REMARK    2  A    between atoms: C_8  and  N_9 
REMARK    3  A    between atoms: C_13  and  C_14 
REMARK    4  A    between atoms: C_14  and  C_15 
REMARK    5  A    between atoms: C_15  and  C_16 
REMARK    6  A    between atoms: N_26  and  C_27 
REMARK    7  A    between atoms: C_27  and  C_28 
ROOT
HETATM    1  C   UNL     1      41.868 -15.287   3.509  1.00  0.00     0.123 C 
HETATM    2  N   UNL     1      41.608 -15.529   4.919  1.00  0.00    -0.324 N 
HETATM    3  C   UNL     1      42.085 -14.532   5.740  1.00  0.00     0.326 C 
HETATM    4  O   UNL     1      42.128 -14.611   6.953  1.00  0.00    -0.247 OA
HETATM    5  N   UNL     1      42.447 -13.485   4.959  1.00  0.00    -0.268 N 
HETATM    6  C   UNL     1      42.252 -13.793   3.649  1.00  0.00     0.257 C 
HETATM    7  O   UNL     1      42.378 -13.016   2.711  1.00  0.00    -0.270 OA
HETATM    8  H   UNL     1      41.470 -16.452   5.326  1.00  0.00     0.165 HD
ENDROOT
BRANCH   1   9
HETATM    9  C   UNL     1      40.590 -15.572   2.652  1.00  0.00     0.027 C 
HETATM   10  C   UNL     1      40.756 -15.612   1.125  1.00  0.00     0.035 C 
HETATM   11  C   UNL     1      40.757 -14.271   0.403  1.00  0.00     0.235 C 
HETATM   12  N   UNL     1      39.672 -13.338   0.885  1.00  0.00    -0.067 N 
HETATM   13  H   UNL     1      38.803 -13.647   0.433  1.00  0.00     0.280 HD
HETATM   14  C   UNL     1      39.428 -13.298   2.369  1.00  0.00     0.235 C 
HETATM   15  C   UNL     1      39.366 -14.690   2.967  1.00  0.00     0.035 C 
BRANCH  12  16
HETATM   16  C   UNL     1      39.910 -11.912   0.393  1.00  0.00     0.277 C 
BRANCH  16  17
HETATM   17  C   UNL     1      39.233 -11.574  -0.879  1.00  0.00     0.011 A 
HETATM   18  C   UNL     1      39.794 -11.626  -2.189  1.00  0.00     0.060 A 
HETATM   19  C   UNL     1      41.172 -12.005  -2.599  1.00  0.00     0.073 C 
HETATM   20  N   UNL     1      38.897 -11.287  -3.116  1.00  0.00    -0.178 NA
HETATM   21  N   UNL     1      37.801 -10.943  -2.424  1.00  0.00    -0.284 N 
HETATM   22  C   UNL     1      36.637 -10.449  -3.120  1.00  0.00     0.179 C 
HETATM   23  C   UNL     1      37.939 -11.130  -1.077  1.00  0.00     0.122 A 
ENDBRANCH  16  17
ENDBRANCH  12  16
ENDBRANCH   1   9
BRANCH   1  24
HETATM   24  C   UNL     1      43.181 -16.003   3.056  1.00  0.00     0.082 C 
BRANCH  24  25
HETATM   25  C   UNL     1      43.382 -17.496   3.254  1.00  0.00    -0.034 A 
HETATM   26  C   UNL     1      43.997 -18.098   4.366  1.00  0.00     0.040 A 
HETATM   27 CL   UNL     1      44.575 -17.204   5.719  1.00  0.00    -0.084 Cl
HETATM   28  C   UNL     1      44.210 -19.483   4.407  1.00  0.00     0.024 A 
HETATM   29  C   UNL     1      43.843 -20.290   3.335  1.00  0.00     0.002 A 
HETATM   30  C   UNL     1      43.258 -19.717   2.215  1.00  0.00     0.001 A 
HETATM   31  C   UNL     1      43.032 -18.339   2.175  1.00  0.00     0.009 A 
ENDBRANCH  24  25
ENDBRANCH   1  24
BRANCH   5  32
HETATM   32  C   UNL     1      42.959 -12.224   5.452  1.00  0.00     0.141 C 
BRANCH  32  33
HETATM   33  C   UNL     1      44.256 -12.442   6.170  1.00  0.00     0.004 A 
HETATM   34  C   UNL     1      45.338 -11.389   6.178  1.00  0.00     0.007 A 
HETATM   35  C   UNL     1      44.562 -11.675   7.433  1.00  0.00     0.007 A 
ENDBRANCH  32  33
ENDBRANCH   5  32
TORSDOF 7
ENDMDL
MODEL 2
REMARK VINA RESULT:      -8.9      2.391      7.356
REMARK  7 active torsions:
REMARK  status: ('A' for Active; 'I' for Inactive)
REMARK    1  A    between atoms: C_7  and  C_8 
REMARK    2  A    between atoms: C_8  and  N_9 
REMARK    3  A    between atoms: C_13  and  C_14 
REMARK    4  A    between atoms: C_14  and  C_15 
REMARK    5  A    between atoms: C_15  and  C_16 
REMARK    6  A    between atoms: N_26  and  C_27 
REMARK    7  A    between atoms: C_27  and  C_28 
ROOT
HETATM    1  C   UNL     1      42.209 -14.618   3.723  1.00  0.00     0.123 C 
HETATM    2  N   UNL     1      42.310 -13.226   3.316  1.00  0.00    -0.324 N 
HETATM    3  C   UNL     1      41.517 -12.916   2.234  1.00  0.00     0.326 C 
HETATM    4  O   UNL     1      41.574 -11.864   1.627  1.00  0.00    -0.247 OA
HETATM    5  N   UNL     1      40.678 -13.959   2.018  1.00  0.00    -0.268 N 
HETATM    6  C   UNL     1      40.935 -14.953   2.909  1.00  0.00     0.257 C 
HETATM    7  O   UNL     1      40.273 -15.975   3.042  1.00  0.00    -0.270 OA
HETATM    8  H   UNL     1      43.118 -12.634   3.495  1.00  0.00     0.165 HD
ENDROOT
BRANCH   1   9
HETATM    9  C   UNL     1      42.060 -14.732   5.276  1.00  0.00     0.027 C 
HETATM   10  C   UNL     1      40.934 -13.925   5.940  1.00  0.00     0.035 C 
HETATM   11  C   UNL     1      41.223 -12.458   6.229  1.00  0.00     0.235 C 
HETATM   12  N   UNL     1      42.588 -12.232   6.833  1.00  0.00    -0.067 N 
HETATM   13  H   UNL     1      42.507 -12.472   7.828  1.00  0.00     0.280 HD
HETATM   14  C   UNL     1      43.722 -13.037   6.258  1.00  0.00     0.235 C 
HETATM   15  C   UNL     1      43.347 -14.497   6.090  1.00  0.00     0.035 C 
BRANCH  12  16
HETATM   16  C   UNL     1      42.973 -10.754   6.793  1.00  0.00     0.277 C 
BRANCH  16  17
HETATM   17  C   UNL     1      43.586 -10.240   8.038  1.00  0.00     0.011 A 
HETATM   18  C   UNL     1      44.976 -10.178   8.348  1.00  0.00     0.060 A 
HETATM   19  C   UNL     1      46.135 -10.622   7.528  1.00  0.00     0.073 C 
HETATM   20  N   UNL     1      45.184  -9.626   9.544  1.00  0.00    -0.178 NA
HETATM   21  N   UNL     1      43.958  -9.406  10.038  1.00  0.00    -0.284 N 
HETATM   22  C   UNL     1      43.805  -8.871  11.370  1.00  0.00     0.179 C 
HETATM   23  C   UNL     1      42.962  -9.726   9.159  1.00  0.00     0.122 A 
ENDBRANCH  16  17
ENDBRANCH  12  16
ENDBRANCH   1   9
BRANCH   1  24
HETATM   24  C   UNL     1      43.344 -15.471   3.070  1.00  0.00     0.082 C 
BRANCH  24  25
HETATM   25  C   UNL     1      43.391 -16.983   3.222  1.00  0.00    -0.034 A 
HETATM   26  C   UNL     1      44.009 -17.678   4.276  1.00  0.00     0.040 A 
HETATM   27 CL   UNL     1      44.773 -16.892   5.603  1.00  0.00    -0.084 Cl
HETATM   28  C   UNL     1      44.069 -19.079   4.274  1.00  0.00     0.024 A 
HETATM   29  C   UNL     1      43.543 -19.812   3.214  1.00  0.00     0.002 A 
HETATM   30  C   UNL     1      42.951 -19.147   2.150  1.00  0.00     0.001 A 
HETATM   31  C   UNL     1      42.877 -17.751   2.153  1.00  0.00     0.009 A 
ENDBRANCH  24  25
ENDBRANCH   1  24
BRANCH   5  32
HETATM   32  C   UNL     1      39.657 -14.001   0.993  1.00  0.00     0.141 C 
BRANCH  32  33
HETATM   33  C   UNL     1      40.265 -14.388  -0.322  1.00  0.00     0.004 A 
HETATM   34  C   UNL     1      39.411 -14.628  -1.543  1.00  0.00     0.007 A 
HETATM   35  C   UNL     1      40.283 -13.406  -1.467  1.00  0.00     0.007 A 
ENDBRANCH  32  33
ENDBRANCH   5  32
TORSDOF 7
ENDMDL
MODEL 3
REMARK VINA RESULT:      -8.6      2.615      4.110
REMARK  7 active torsions:
REMARK  status: ('A' for Active; 'I' for Inactive)
REMARK    1  A    between atoms: C_7  and  C_8 
REMARK    2  A    between atoms: C_8  and  N_9 
REMARK    3  A    between atoms: C_13  and  C_14 
REMARK    4  A    between atoms: C_14  and  C_15 
REMARK    5  A    between atoms: C_15  and  C_16 
REMARK    6  A    between atoms: N_26  and  C_27 
REMARK    7  A    between atoms: C_27  and  C_28 
ROOT
HETATM    1  C   UNL     1      40.729 -13.317   5.310  1.00  0.00     0.123 C 
HETATM    2  N   UNL     1      39.733 -14.063   6.062  1.00  0.00    -0.324 N 
HETATM    3  C   UNL     1      40.221 -15.231   6.603  1.00  0.00     0.326 C 
HETATM    4  O   UNL     1      39.525 -16.085   7.120  1.00  0.00    -0.247 OA
HETATM    5  N   UNL     1      41.570 -15.219   6.476  1.00  0.00    -0.268 N 
HETATM    6  C   UNL     1      41.966 -14.089   5.833  1.00  0.00     0.257 C 
HETATM    7  O   UNL     1      43.127 -13.735   5.669  1.00  0.00    -0.270 OA
HETATM    8  H   UNL     1      38.729 -13.996   5.907  1.00  0.00     0.165 HD
ENDROOT
BRANCH   1   9
HETATM    9  C   UNL     1      40.682 -11.798   5.682  1.00  0.00     0.027 C 
HETATM   10  C   UNL     1      39.311 -11.104   5.656  1.00  0.00     0.035 C 
HETATM   11  C   UNL     1      38.811 -10.631   4.297  1.00  0.00     0.235 C 
HETATM   12  N   UNL     1      39.875  -9.933   3.485  1.00  0.00    -0.067 N 
HETATM   13  H   UNL     1      39.944  -8.978   3.858  1.00  0.00     0.280 HD
HETATM   14  C   UNL     1      41.253 -10.538   3.517  1.00  0.00     0.235 C 
HETATM   15  C   UNL     1      41.678 -10.896   4.929  1.00  0.00     0.035 C 
BRANCH  12  16
HETATM   16  C   UNL     1      39.447  -9.779   2.027  1.00  0.00     0.277 C 
BRANCH  16  17
HETATM   17  C   UNL     1      39.861 -10.889   1.139  1.00  0.00     0.011 A 
HETATM   18  C   UNL     1      40.869 -10.852   0.133  1.00  0.00     0.060 A 
HETATM   19  C   UNL     1      41.728  -9.712  -0.285  1.00  0.00     0.073 C 
HETATM   20  N   UNL     1      41.009 -12.039  -0.460  1.00  0.00    -0.178 NA
HETATM   21  N   UNL     1      40.061 -12.810   0.089  1.00  0.00    -0.284 N 
HETATM   22  C   UNL     1      39.878 -14.165  -0.376  1.00  0.00     0.179 C 
HETATM   23  C   UNL     1      39.364 -12.178   1.080  1.00  0.00     0.122 A 
ENDBRANCH  16  17
ENDBRANCH  12  16
ENDBRANCH   1   9
BRANCH   1  24
HETATM   24  C   UNL     1      40.648 -13.662   3.788  1.00  0.00     0.082 C 
BRANCH  24  25
HETATM   25  C   UNL     1      41.546 -14.717   3.164  1.00  0.00    -0.034 A 
HETATM   26  C   UNL     1      42.805 -14.478   2.584  1.00  0.00     0.040 A 
HETATM   27 CL   UNL     1      43.546 -12.924   2.549  1.00  0.00    -0.084 Cl
HETATM   28  C   UNL     1      43.515 -15.512   1.956  1.00  0.00     0.024 A 
HETATM   29  C   UNL     1      42.975 -16.792   1.867  1.00  0.00     0.002 A 
HETATM   30  C   UNL     1      41.723 -17.046   2.408  1.00  0.00     0.001 A 
HETATM   31  C   UNL     1      41.018 -16.022   3.047  1.00  0.00     0.009 A 
ENDBRANCH  24  25
ENDBRANCH   1  24
BRANCH   5  32
HETATM   32  C   UNL     1      42.456 -16.255   6.963  1.00  0.00     0.141 C 
BRANCH  32  33
HETATM   33  C   UNL     1      42.800 -17.200   5.851  1.00  0.00     0.004 A 
HETATM   34  C   UNL     1      44.220 -17.359   5.364  1.00  0.00     0.007 A 
HETATM   35  C   UNL     1      43.567 -18.466   6.142  1.00  0.00     0.007 A 
ENDBRANCH  32  33
ENDBRANCH   5  32
TORSDOF 7
ENDMDL
MODEL 4
REMARK VINA RESULT:      -8.4      1.852      2.385
REMARK  7 active torsions:
REMARK  status: ('A' for Active; 'I' for Inactive)
REMARK    1  A    between atoms: C_7  and  C_8 
REMARK    2  A    between atoms: C_8  and  N_9 
REMARK    3  A    between atoms: C_13  and  C_14 
REMARK    4  A    between atoms: C_14  and  C_15 
REMARK    5  A    between atoms: C_15  and  C_16 
REMARK    6  A    between atoms: N_26  and  C_27 
REMARK    7  A    between atoms: C_27  and  C_28 
ROOT
HETATM    1  C   UNL     1      41.875 -15.952   3.971  1.00  0.00     0.123 C 
HETATM    2  N   UNL     1      40.885 -16.459   4.907  1.00  0.00    -0.324 N 
HETATM    3  C   UNL     1      40.588 -15.573   5.919  1.00  0.00     0.326 C 
HETATM    4  O   UNL     1      39.922 -15.854   6.897  1.00  0.00    -0.247 OA
HETATM    5  N   UNL     1      41.137 -14.375   5.600  1.00  0.00    -0.268 N 
HETATM    6  C   UNL     1      41.813 -14.472   4.425  1.00  0.00     0.257 C 
HETATM    7  O   UNL     1      42.320 -13.537   3.818  1.00  0.00    -0.270 OA
HETATM    8  H   UNL     1      40.709 -17.447   5.077  1.00  0.00     0.165 HD
ENDROOT
BRANCH   1   9
HETATM    9  C   UNL     1      41.430 -16.217   2.495  1.00  0.00     0.027 C 
HETATM   10  C   UNL     1      42.262 -15.570   1.377  1.00  0.00     0.035 C 
HETATM   11  C   UNL     1      41.952 -14.116   1.048  1.00  0.00     0.235 C 
HETATM   12  N   UNL     1      40.472 -13.831   0.964  1.00  0.00    -0.067 N 
HETATM   13  H   UNL     1      40.165 -14.165   0.042  1.00  0.00     0.280 HD
HETATM   14  C   UNL     1      39.599 -14.483   2.002  1.00  0.00     0.235 C 
HETATM   15  C   UNL     1      39.944 -15.949   2.187  1.00  0.00     0.035 C 
BRANCH  12  16
HETATM   16  C   UNL     1      40.196 -12.329   0.973  1.00  0.00     0.277 C 
BRANCH  16  17
HETATM   17  C   UNL     1      39.434 -11.832  -0.195  1.00  0.00     0.011 A 
HETATM   18  C   UNL     1      39.952 -11.510  -1.484  1.00  0.00     0.060 A 
HETATM   19  C   UNL     1      41.357 -11.571  -1.965  1.00  0.00     0.073 C 
HETATM   20  N   UNL     1      38.983 -11.122  -2.315  1.00  0.00    -0.178 NA
HETATM   21  N   UNL     1      37.872 -11.113  -1.566  1.00  0.00    -0.284 N 
HETATM   22  C   UNL     1      36.623 -10.667  -2.137  1.00  0.00     0.179 C 
HETATM   23  C   UNL     1      38.081 -11.564  -0.292  1.00  0.00     0.122 A 
ENDBRANCH  16  17
ENDBRANCH  12  16
ENDBRANCH   1   9
BRANCH   1  24
HETATM   24  C   UNL     1      43.308 -16.437   4.362  1.00  0.00     0.082 C 
BRANCH  24  25
HETATM   25  C   UNL     1      43.583 -17.884   4.735  1.00  0.00    -0.034 A 
HETATM   26  C   UNL     1      43.842 -18.926   3.827  1.00  0.00     0.040 A 
HETATM   27 CL   UNL     1      43.938 -18.689   2.124  1.00  0.00    -0.084 Cl
HETATM   28  C   UNL     1      43.998 -20.246   4.274  1.00  0.00     0.024 A 
HETATM   29  C   UNL     1      43.871 -20.559   5.624  1.00  0.00     0.002 A 
HETATM   30  C   UNL     1      43.590 -19.552   6.536  1.00  0.00     0.001 A 
HETATM   31  C   UNL     1      43.447 -18.233   6.097  1.00  0.00     0.009 A 
ENDBRANCH  24  25
ENDBRANCH   1  24
BRANCH   5  32
HETATM   32  C   UNL     1      41.011 -13.171   6.393  1.00  0.00     0.141 C 
BRANCH  32  33
HETATM   33  C   UNL     1      39.687 -12.519   6.129  1.00  0.00     0.004 A 
HETATM   34  C   UNL     1      39.532 -11.017   6.140  1.00  0.00     0.007 A 
HETATM   35  C   UNL     1      39.454 -11.769   4.841  1.00  0.00     0.007 A 
ENDBRANCH  32  33
ENDBRANCH   5  32
TORSDOF 7
ENDMDL
MODEL 5
REMARK VINA RESULT:      -8.2      3.070      7.719
REMARK  7 active torsions:
REMARK  status: ('A' for Active; 'I' for Inactive)
REMARK    1  A    between atoms: C_7  and  C_8 
REMARK    2  A    between atoms: C_8  and  N_9 
REMARK    3  A    between atoms: C_13  and  C_14 
REMARK    4  A    between atoms: C_14  and  C_15 
REMARK    5  A    between atoms: C_15  and  C_16 
REMARK    6  A    between atoms: N_26  and  C_27 
REMARK    7  A    between atoms: C_27  and  C_28 
ROOT
HETATM    1  C   UNL     1      40.310 -12.993   1.542  1.00  0.00     0.123 C 
HETATM    2  N   UNL     1      39.503 -14.202   1.552  1.00  0.00    -0.324 N 
HETATM    3  C   UNL     1      40.252 -15.357   1.527  1.00  0.00     0.326 C 
HETATM    4  O   UNL     1      39.785 -16.468   1.359  1.00  0.00    -0.247 OA
HETATM    5  N   UNL     1      41.547 -15.022   1.749  1.00  0.00    -0.268 N 
HETATM    6  C   UNL     1      41.660 -13.673   1.881  1.00  0.00     0.257 C 
HETATM    7  O   UNL     1      42.680 -13.075   2.200  1.00  0.00    -0.270 OA
HETATM    8  H   UNL     1      38.543 -14.253   1.218  1.00  0.00     0.165 HD
ENDROOT
BRANCH   1   9
HETATM    9  C   UNL     1      39.792 -11.971   2.606  1.00  0.00     0.027 C 
HETATM   10  C   UNL     1      40.533 -10.629   2.720  1.00  0.00     0.035 C 
HETATM   11  C   UNL     1      41.806 -10.621   3.556  1.00  0.00     0.235 C 
HETATM   12  N   UNL     1      41.661 -11.363   4.863  1.00  0.00    -0.067 N 
HETATM   13  H   UNL     1      41.168 -10.728   5.502  1.00  0.00     0.280 HD
HETATM   14  C   UNL     1      40.897 -12.658   4.822  1.00  0.00     0.235 C 
HETATM   15  C   UNL     1      39.609 -12.526   4.032  1.00  0.00     0.035 C 
BRANCH  12  16
HETATM   16  C   UNL     1      43.022 -11.623   5.505  1.00  0.00     0.277 C 
BRANCH  16  17
HETATM   17  C   UNL     1      43.325 -10.776   6.681  1.00  0.00     0.011 A 
HETATM   18  C   UNL     1      44.601 -10.563   7.279  1.00  0.00     0.060 A 
HETATM   19  C   UNL     1      45.918 -11.137   6.895  1.00  0.00     0.073 C 
HETATM   20  N   UNL     1      44.522  -9.714   8.305  1.00  0.00    -0.178 NA
HETATM   21  N   UNL     1      43.216  -9.442   8.426  1.00  0.00    -0.284 N 
HETATM   22  C   UNL     1      42.754  -8.595   9.499  1.00  0.00     0.179 C 
HETATM   23  C   UNL     1      42.455 -10.029   7.453  1.00  0.00     0.122 A 
ENDBRANCH  16  17
ENDBRANCH  12  16
ENDBRANCH   1   9
BRANCH   1  24
HETATM   24  C   UNL     1      40.482 -12.453   0.086  1.00  0.00     0.082 C 
BRANCH  24  25
HETATM   25  C   UNL     1      39.564 -12.896  -1.041  1.00  0.00    -0.034 A 
HETATM   26  C   UNL     1      38.233 -12.482  -1.220  1.00  0.00     0.040 A 
HETATM   27 CL   UNL     1      37.454 -11.343  -0.189  1.00  0.00    -0.084 Cl
HETATM   28  C   UNL     1      37.444 -13.022  -2.246  1.00  0.00     0.024 A 
HETATM   29  C   UNL     1      37.955 -14.001  -3.094  1.00  0.00     0.002 A 
HETATM   30  C   UNL     1      39.257 -14.445  -2.921  1.00  0.00     0.001 A 
HETATM   31  C   UNL     1      40.051 -13.901  -1.907  1.00  0.00     0.009 A 
ENDBRANCH  24  25
ENDBRANCH   1  24
BRANCH   5  32
HETATM   32  C   UNL     1      42.641 -15.964   1.841  1.00  0.00     0.141 C 
BRANCH  32  33
HETATM   33  C   UNL     1      42.524 -16.765   3.103  1.00  0.00     0.004 A 
HETATM   34  C   UNL     1      43.506 -17.863   3.432  1.00  0.00     0.007 A 
HETATM   35  C   UNL     1      43.527 -16.580   4.215  1.00  0.00     0.007 A 
ENDBRANCH  32  33
ENDBRANCH   5  32
TORSDOF 7
ENDMDL
MODEL 6
REMARK VINA RESULT:      -8.2      3.648      8.120
REMARK  7 active torsions:
REMARK  status: ('A' for Active; 'I' for Inactive)
REMARK    1  A    between atoms: C_7  and  C_8 
REMARK    2  A    between atoms: C_8  and  N_9 
REMARK    3  A    between atoms: C_13  and  C_14 
REMARK    4  A    between atoms: C_14  and  C_15 
REMARK    5  A    between atoms: C_15  and  C_16 
REMARK    6  A    between atoms: N_26  and  C_27 
REMARK    7  A    between atoms: C_27  and  C_28 
ROOT
HETATM    1  C   UNL     1      42.344 -10.517   6.226  1.00  0.00     0.123 C 
HETATM    2  N   UNL     1      41.346 -11.394   6.816  1.00  0.00    -0.324 N 
HETATM    3  C   UNL     1      40.075 -11.175   6.335  1.00  0.00     0.326 C 
HETATM    4  O   UNL     1      39.072 -11.674   6.810  1.00  0.00    -0.247 OA
HETATM    5  N   UNL     1      40.170 -10.357   5.259  1.00  0.00    -0.268 N 
HETATM    6  C   UNL     1      41.468 -10.010   5.052  1.00  0.00     0.257 C 
HETATM    7  O   UNL     1      41.889  -9.375   4.094  1.00  0.00    -0.270 OA
HETATM    8  H   UNL     1      41.438 -11.833   7.730  1.00  0.00     0.165 HD
ENDROOT
BRANCH   1   9
HETATM    9  C   UNL     1      43.617 -11.324   5.810  1.00  0.00     0.027 C 
HETATM   10  C   UNL     1      43.630 -11.953   4.407  1.00  0.00     0.035 C 
HETATM   11  C   UNL     1      42.917 -13.290   4.251  1.00  0.00     0.235 C 
HETATM   12  N   UNL     1      43.224 -14.258   5.368  1.00  0.00    -0.067 N 
HETATM   13  H   UNL     1      44.146 -14.659   5.157  1.00  0.00     0.280 HD
HETATM   14  C   UNL     1      43.279 -13.687   6.759  1.00  0.00     0.235 C 
HETATM   15  C   UNL     1      44.081 -12.401   6.809  1.00  0.00     0.035 C 
BRANCH  12  16
HETATM   16  C   UNL     1      42.250 -15.434   5.364  1.00  0.00     0.277 C 
BRANCH  16  17
HETATM   17  C   UNL     1      42.528 -16.465   4.338  1.00  0.00     0.011 A 
HETATM   18  C   UNL     1      41.846 -16.649   3.100  1.00  0.00     0.060 A 
HETATM   19  C   UNL     1      40.699 -15.884   2.545  1.00  0.00     0.073 C 
HETATM   20  N   UNL     1      42.375 -17.653   2.398  1.00  0.00    -0.178 NA
HETATM   21  N   UNL     1      43.325 -18.164   3.192  1.00  0.00    -0.284 N 
HETATM   22  C   UNL     1      44.066 -19.329   2.769  1.00  0.00     0.179 C 
HETATM   23  C   UNL     1      43.482 -17.466   4.357  1.00  0.00     0.122 A 
ENDBRANCH  16  17
ENDBRANCH  12  16
ENDBRANCH   1   9
BRANCH   1  24
HETATM   24  C   UNL     1      42.580  -9.262   7.127  1.00  0.00     0.082 C 
BRANCH  24  25
HETATM   25  C   UNL     1      43.007  -9.394   8.579  1.00  0.00    -0.034 A 
HETATM   26  C   UNL     1      42.143  -9.381   9.688  1.00  0.00     0.040 A 
HETATM   27 CL   UNL     1      40.431  -9.263   9.546  1.00  0.00    -0.084 Cl
HETATM   28  C   UNL     1      42.650  -9.423  10.995  1.00  0.00     0.024 A 
HETATM   29  C   UNL     1      44.023  -9.450  11.223  1.00  0.00     0.002 A 
HETATM   30  C   UNL     1      44.896  -9.437  10.146  1.00  0.00     0.001 A 
HETATM   31  C   UNL     1      44.395  -9.409   8.842  1.00  0.00     0.009 A 
ENDBRANCH  24  25
ENDBRANCH   1  24
BRANCH   5  32
HETATM   32  C   UNL     1      39.052  -9.925   4.447  1.00  0.00     0.141 C 
BRANCH  32  33
HETATM   33  C   UNL     1      38.838 -10.886   3.316  1.00  0.00     0.004 A 
HETATM   34  C   UNL     1      37.952 -10.538   2.144  1.00  0.00     0.007 A 
HETATM   35  C   UNL     1      39.443 -10.611   1.962  1.00  0.00     0.007 A 
ENDBRANCH  32  33
ENDBRANCH   5  32
TORSDOF 7
ENDMDL
MODEL 7
REMARK VINA RESULT:      -8.1      4.153      8.112
REMARK  7 active torsions:
REMARK  status: ('A' for Active; 'I' for Inactive)
REMARK    1  A    between atoms: C_7  and  C_8 
REMARK    2  A    between atoms: C_8  and  N_9 
REMARK    3  A    between atoms: C_13  and  C_14 
REMARK    4  A    between atoms: C_14  and  C_15 
REMARK    5  A    between atoms: C_15  and  C_16 
REMARK    6  A    between atoms: N_26  and  C_27 
REMARK    7  A    between atoms: C_27  and  C_28 
ROOT
HETATM    1  C   UNL     1      42.401 -10.370   6.346  1.00  0.00     0.123 C 
HETATM    2  N   UNL     1      41.423 -11.250   6.963  1.00  0.00    -0.324 N 
HETATM    3  C   UNL     1      40.134 -11.013   6.541  1.00  0.00     0.326 C 
HETATM    4  O   UNL     1      39.148 -11.513   7.049  1.00  0.00    -0.247 OA
HETATM    5  N   UNL     1      40.190 -10.177   5.475  1.00  0.00    -0.268 N 
HETATM    6  C   UNL     1      41.481  -9.837   5.220  1.00  0.00     0.257 C 
HETATM    7  O   UNL     1      41.866  -9.188   4.255  1.00  0.00    -0.270 OA
HETATM    8  H   UNL     1      41.549 -11.705   7.865  1.00  0.00     0.165 HD
ENDROOT
BRANCH   1   9
HETATM    9  C   UNL     1      43.649 -11.179   5.862  1.00  0.00     0.027 C 
HETATM   10  C   UNL     1      43.600 -11.779   4.449  1.00  0.00     0.035 C 
HETATM   11  C   UNL     1      42.869 -13.107   4.294  1.00  0.00     0.235 C 
HETATM   12  N   UNL     1      43.212 -14.100   5.378  1.00  0.00    -0.067 N 
HETATM   13  H   UNL     1      44.121 -14.504   5.122  1.00  0.00     0.280 HD
HETATM   14  C   UNL     1      43.328 -13.559   6.777  1.00  0.00     0.235 C 
HETATM   15  C   UNL     1      44.143 -12.280   6.820  1.00  0.00     0.035 C 
BRANCH  12  16
HETATM   16  C   UNL     1      42.228 -15.268   5.390  1.00  0.00     0.277 C 
BRANCH  16  17
HETATM   17  C   UNL     1      42.495 -16.314   4.377  1.00  0.00     0.011 A 
HETATM   18  C   UNL     1      41.765 -16.551   3.176  1.00  0.00     0.060 A 
HETATM   19  C   UNL     1      40.568 -15.839   2.657  1.00  0.00     0.073 C 
HETATM   20  N   UNL     1      42.296 -17.553   2.474  1.00  0.00    -0.178 NA
HETATM   21  N   UNL     1      43.299 -18.012   3.235  1.00  0.00    -0.284 N 
HETATM   22  C   UNL     1      44.060 -19.162   2.806  1.00  0.00     0.179 C 
HETATM   23  C   UNL     1      43.483 -17.281   4.375  1.00  0.00     0.122 A 
ENDBRANCH  16  17
ENDBRANCH  12  16
ENDBRANCH   1   9
BRANCH   1  24
HETATM   24  C   UNL     1      42.686  -9.132   7.257  1.00  0.00     0.082 C 
BRANCH  24  25
HETATM   25  C   UNL     1      43.186  -9.293   8.683  1.00  0.00    -0.034 A 
HETATM   26  C   UNL     1      44.535  -9.370   9.071  1.00  0.00     0.040 A 
HETATM   27 CL   UNL     1      45.844  -9.238   7.960  1.00  0.00    -0.084 Cl
HETATM   28  C   UNL     1      44.886  -9.607  10.408  1.00  0.00     0.024 A 
HETATM   29  C   UNL     1      43.904  -9.797  11.377  1.00  0.00     0.002 A 
HETATM   30  C   UNL     1      42.566  -9.751  11.014  1.00  0.00     0.001 A 
HETATM   31  C   UNL     1      42.212  -9.503   9.685  1.00  0.00     0.009 A 
ENDBRANCH  24  25
ENDBRANCH   1  24
BRANCH   5  32
HETATM   32  C   UNL     1      39.042  -9.724   4.719  1.00  0.00     0.141 C 
BRANCH  32  33
HETATM   33  C   UNL     1      38.501  -8.460   5.317  1.00  0.00     0.004 A 
HETATM   34  C   UNL     1      38.720  -7.120   4.656  1.00  0.00     0.007 A 
HETATM   35  C   UNL     1      37.351  -7.740   4.657  1.00  0.00     0.007 A 
ENDBRANCH  32  33
ENDBRANCH   5  32
TORSDOF 7
ENDMDL
MODEL 8
REMARK VINA RESULT:      -8.1      2.813      8.214
REMARK  7 active torsions:
REMARK  status: ('A' for Active; 'I' for Inactive)
REMARK    1  A    between atoms: C_7  and  C_8 
REMARK    2  A    between atoms: C_8  and  N_9 
REMARK    3  A    between atoms: C_13  and  C_14 
REMARK    4  A    between atoms: C_14  and  C_15 
REMARK    5  A    between atoms: C_15  and  C_16 
REMARK    6  A    between atoms: N_26  and  C_27 
REMARK    7  A    between atoms: C_27  and  C_28 
ROOT
HETATM    1  C   UNL     1      40.317 -13.745   3.482  1.00  0.00     0.123 C 
HETATM    2  N   UNL     1      39.418 -14.698   2.853  1.00  0.00    -0.324 N 
HETATM    3  C   UNL     1      40.071 -15.647   2.098  1.00  0.00     0.326 C 
HETATM    4  O   UNL     1      39.511 -16.430   1.354  1.00  0.00    -0.247 OA
HETATM    5  N   UNL     1      41.397 -15.556   2.368  1.00  0.00    -0.268 N 
HETATM    6  C   UNL     1      41.623 -14.546   3.250  1.00  0.00     0.257 C 
HETATM    7  O   UNL     1      42.699 -14.288   3.772  1.00  0.00    -0.270 OA
HETATM    8  H   UNL     1      38.443 -14.507   2.632  1.00  0.00     0.165 HD
ENDROOT
BRANCH   1   9
HETATM    9  C   UNL     1      39.928 -13.522   4.981  1.00  0.00     0.027 C 
HETATM   10  C   UNL     1      39.318 -12.164   5.360  1.00  0.00     0.035 C 
HETATM   11  C   UNL     1      40.294 -11.020   5.602  1.00  0.00     0.235 C 
HETATM   12  N   UNL     1      41.482 -11.423   6.442  1.00  0.00    -0.067 N 
HETATM   13  H   UNL     1      41.158 -11.429   7.417  1.00  0.00     0.280 HD
HETATM   14  C   UNL     1      42.088 -12.769   6.152  1.00  0.00     0.235 C 
HETATM   15  C   UNL     1      41.028 -13.845   6.011  1.00  0.00     0.035 C 
BRANCH  12  16
HETATM   16  C   UNL     1      42.587 -10.370   6.380  1.00  0.00     0.277 C 
BRANCH  16  17
HETATM   17  C   UNL     1      43.541 -10.405   7.511  1.00  0.00     0.011 A 
HETATM   18  C   UNL     1      44.882 -10.889   7.489  1.00  0.00     0.060 A 
HETATM   19  C   UNL     1      45.638 -11.485   6.356  1.00  0.00     0.073 C 
HETATM   20  N   UNL     1      45.472 -10.743   8.676  1.00  0.00    -0.178 NA
HETATM   21  N   UNL     1      44.517 -10.250   9.476  1.00  0.00    -0.284 N 
HETATM   22  C   UNL     1      44.794 -10.030  10.875  1.00  0.00     0.179 C 
HETATM   23  C   UNL     1      43.346  -9.997   8.817  1.00  0.00     0.122 A 
ENDBRANCH  16  17
ENDBRANCH  12  16
ENDBRANCH   1   9
BRANCH   1  24
HETATM   24  C   UNL     1      40.467 -12.461   2.605  1.00  0.00     0.082 C 
BRANCH  24  25
HETATM   25  C   UNL     1      39.401 -12.054   1.602  1.00  0.00    -0.034 A 
HETATM   26  C   UNL     1      39.424 -12.338   0.225  1.00  0.00     0.040 A 
HETATM   27 CL   UNL     1      40.672 -13.257  -0.525  1.00  0.00    -0.084 Cl
HETATM   28  C   UNL     1      38.430 -11.839  -0.628  1.00  0.00     0.024 A 
HETATM   29  C   UNL     1      37.412 -11.027  -0.135  1.00  0.00     0.002 A 
HETATM   30  C   UNL     1      37.382 -10.711   1.215  1.00  0.00     0.001 A 
HETATM   31  C   UNL     1      38.364 -11.217   2.072  1.00  0.00     0.009 A 
ENDBRANCH  24  25
ENDBRANCH   1  24
BRANCH   5  32
HETATM   32  C   UNL     1      42.416 -16.414   1.803  1.00  0.00     0.141 C 
BRANCH  32  33
HETATM   33  C   UNL     1      42.560 -17.654   2.633  1.00  0.00     0.004 A 
HETATM   34  C   UNL     1      43.185 -18.908   2.072  1.00  0.00     0.007 A 
HETATM   35  C   UNL     1      43.923 -18.100   3.102  1.00  0.00     0.007 A 
ENDBRANCH  32  33
ENDBRANCH   5  32
TORSDOF 7
ENDMDL
MODEL 9
REMARK VINA RESULT:      -8.1      2.576      7.514
REMARK  7 active torsions:
REMARK  status: ('A' for Active; 'I' for Inactive)
REMARK    1  A    between atoms: C_7  and  C_8 
REMARK    2  A    between atoms: C_8  and  N_9 
REMARK    3  A    between atoms: C_13  and  C_14 
REMARK    4  A    between atoms: C_14  and  C_15 
REMARK    5  A    between atoms: C_15  and  C_16 
REMARK    6  A    between atoms: N_26  and  C_27 
REMARK    7  A    between atoms: C_27  and  C_28 
ROOT
HETATM    1  C   UNL     1      40.015 -12.961   3.292  1.00  0.00     0.123 C 
HETATM    2  N   UNL     1      41.327 -12.384   3.046  1.00  0.00    -0.324 N 
HETATM    3  C   UNL     1      41.355 -11.537   1.961  1.00  0.00     0.326 C 
HETATM    4  O   UNL     1      42.374 -11.083   1.477  1.00  0.00    -0.247 OA
HETATM    5  N   UNL     1      40.075 -11.297   1.584  1.00  0.00    -0.268 N 
HETATM    6  C   UNL     1      39.219 -11.999   2.374  1.00  0.00     0.257 C 
HETATM    7  O   UNL     1      37.999 -11.905   2.356  1.00  0.00    -0.270 OA
HETATM    8  H   UNL     1      42.204 -12.812   3.335  1.00  0.00     0.165 HD
ENDROOT
BRANCH   1   9
HETATM    9  C   UNL     1      39.652 -12.887   4.812  1.00  0.00     0.027 C 
HETATM   10  C   UNL     1      39.143 -11.542   5.354  1.00  0.00     0.035 C 
HETATM   11  C   UNL     1      40.199 -10.505   5.711  1.00  0.00     0.235 C 
HETATM   12  N   UNL     1      41.361 -11.084   6.482  1.00  0.00    -0.067 N 
HETATM   13  H   UNL     1      41.043 -11.181   7.454  1.00  0.00     0.280 HD
HETATM   14  C   UNL     1      41.867 -12.427   6.029  1.00  0.00     0.235 C 
HETATM   15  C   UNL     1      40.733 -13.402   5.781  1.00  0.00     0.035 C 
BRANCH  12  16
HETATM   16  C   UNL     1      42.537 -10.111   6.525  1.00  0.00     0.277 C 
BRANCH  16  17
HETATM   17  C   UNL     1      43.444 -10.287   7.682  1.00  0.00     0.011 A 
HETATM   18  C   UNL     1      44.742 -10.877   7.672  1.00  0.00     0.060 A 
HETATM   19  C   UNL     1      45.488 -11.468   6.531  1.00  0.00     0.073 C 
HETATM   20  N   UNL     1      45.300 -10.845   8.884  1.00  0.00    -0.178 NA
HETATM   21  N   UNL     1      44.359 -10.321   9.681  1.00  0.00    -0.284 N 
HETATM   22  C   UNL     1      44.603 -10.202  11.099  1.00  0.00     0.179 C 
HETATM   23  C   UNL     1      43.236  -9.937   9.003  1.00  0.00     0.122 A 
ENDBRANCH  16  17
ENDBRANCH  12  16
ENDBRANCH   1   9
BRANCH   1  24
HETATM   24  C   UNL     1      39.889 -14.364   2.615  1.00  0.00     0.082 C 
BRANCH  24  25
HETATM   25  C   UNL     1      41.059 -15.333   2.571  1.00  0.00    -0.034 A 
HETATM   26  C   UNL     1      41.367 -16.286   3.557  1.00  0.00     0.040 A 
HETATM   27 CL   UNL     1      40.405 -16.529   4.965  1.00  0.00    -0.084 Cl
HETATM   28  C   UNL     1      42.523 -17.074   3.460  1.00  0.00     0.024 A 
HETATM   29  C   UNL     1      43.407 -16.909   2.397  1.00  0.00     0.002 A 
HETATM   30  C   UNL     1      43.138 -15.957   1.424  1.00  0.00     0.001 A 
HETATM   31  C   UNL     1      41.981 -15.179   1.511  1.00  0.00     0.009 A 
ENDBRANCH  24  25
ENDBRANCH   1  24
BRANCH   5  32
HETATM   32  C   UNL     1      39.681 -10.418   0.504  1.00  0.00     0.141 C 
BRANCH  32  33
HETATM   33  C   UNL     1      39.616 -11.183  -0.783  1.00  0.00     0.004 A 
HETATM   34  C   UNL     1      39.326 -10.495  -2.095  1.00  0.00     0.007 A 
HETATM   35  C   UNL     1      40.705 -11.026  -1.816  1.00  0.00     0.007 A 
ENDBRANCH  32  33
ENDBRANCH   5  32
TORSDOF 7
ENDMDL
MODEL 10
REMARK VINA RESULT:      -8.0      6.001     10.036
REMARK  7 active torsions:
REMARK  status: ('A' for Active; 'I' for Inactive)
REMARK    1  A    between atoms: C_7  and  C_8 
REMARK    2  A    between atoms: C_8  and  N_9 
REMARK    3  A    between atoms: C_13  and  C_14 
REMARK    4  A    between atoms: C_14  and  C_15 
REMARK    5  A    between atoms: C_15  and  C_16 
REMARK    6  A    between atoms: N_26  and  C_27 
REMARK    7  A    between atoms: C_27  and  C_28 
ROOT
HETATM    1  C   UNL     1      41.951  -9.136   9.797  1.00  0.00     0.123 C 
HETATM    2  N   UNL     1      40.797  -9.862   9.292  1.00  0.00    -0.324 N 
HETATM    3  C   UNL     1      39.596  -9.341   9.719  1.00  0.00     0.326 C 
HETATM    4  O   UNL     1      38.521  -9.887   9.558  1.00  0.00    -0.247 OA
HETATM    5  N   UNL     1      39.843  -8.140  10.297  1.00  0.00    -0.268 N 
HETATM    6  C   UNL     1      41.179  -7.887  10.289  1.00  0.00     0.257 C 
HETATM    7  O   UNL     1      41.704  -6.836  10.636  1.00  0.00    -0.270 OA
HETATM    8  H   UNL     1      40.815 -10.838   9.005  1.00  0.00     0.165 HD
ENDROOT
BRANCH   1   9
HETATM    9  C   UNL     1      42.987  -8.875   8.654  1.00  0.00     0.027 C 
HETATM   10  C   UNL     1      42.482  -8.966   7.206  1.00  0.00     0.035 C 
HETATM   11  C   UNL     1      42.393 -10.360   6.600  1.00  0.00     0.235 C 
HETATM   12  N   UNL     1      43.608 -11.209   6.887  1.00  0.00    -0.067 N 
HETATM   13  H   UNL     1      44.335 -10.905   6.229  1.00  0.00     0.280 HD
HETATM   14  C   UNL     1      44.181 -11.118   8.276  1.00  0.00     0.235 C 
HETATM   15  C   UNL     1      44.297  -9.680   8.744  1.00  0.00     0.035 C 
BRANCH  12  16
HETATM   16  C   UNL     1      43.346 -12.679   6.566  1.00  0.00     0.277 C 
BRANCH  16  17
HETATM   17  C   UNL     1      42.592 -12.914   5.314  1.00  0.00     0.011 A 
HETATM   18  C   UNL     1      41.285 -13.470   5.191  1.00  0.00     0.060 A 
HETATM   19  C   UNL     1      40.377 -13.960   6.260  1.00  0.00     0.073 C 
HETATM   20  N   UNL     1      40.892 -13.511   3.917  1.00  0.00    -0.178 NA
HETATM   21  N   UNL     1      41.946 -13.068   3.218  1.00  0.00    -0.284 N 
HETATM   22  C   UNL     1      41.894 -13.046   1.775  1.00  0.00     0.179 C 
HETATM   23  C   UNL     1      42.983 -12.665   4.011  1.00  0.00     0.122 A 
ENDBRANCH  16  17
ENDBRANCH  12  16
ENDBRANCH   1   9
BRANCH   1  24
HETATM   24  C   UNL     1      42.504  -9.809  11.095  1.00  0.00     0.082 C 
BRANCH  24  25
HETATM   25  C   UNL     1      42.395  -9.130  12.451  1.00  0.00    -0.034 A 
HETATM   26  C   UNL     1      41.378  -9.354  13.396  1.00  0.00     0.040 A 
HETATM   27 CL   UNL     1      40.112 -10.498  13.164  1.00  0.00    -0.084 Cl
HETATM   28  C   UNL     1      41.324  -8.608  14.583  1.00  0.00     0.024 A 
HETATM   29  C   UNL     1      42.260  -7.610  14.837  1.00  0.00     0.002 A 
HETATM   30  C   UNL     1      43.257  -7.353  13.908  1.00  0.00     0.001 A 
HETATM   31  C   UNL     1      43.322  -8.102  12.730  1.00  0.00     0.009 A 
ENDBRANCH  24  25
ENDBRANCH   1  24
BRANCH   5  32
HETATM   32  C   UNL     1      38.830  -7.258  10.836  1.00  0.00     0.141 C 
BRANCH  32  33
HETATM   33  C   UNL     1      38.789  -7.375  12.329  1.00  0.00     0.004 A 
HETATM   34  C   UNL     1      39.026  -6.179  13.220  1.00  0.00     0.007 A 
HETATM   35  C   UNL     1      37.647  -6.768  13.107  1.00  0.00     0.007 A 
ENDBRANCH  32  33
ENDBRANCH   5  32
TORSDOF 7
ENDMDL
