MODEL 1
REMARK VINA RESULT:      -8.3      0.000      0.000
REMARK  10 active torsions:
REMARK  status: ('A' for Active; 'I' for Inactive)
REMARK    1  A    between atoms: C_3  and  C_4 
REMARK    2  A    between atoms: C_8  and  N_9 
REMARK    3  A    between atoms: N_9  and  C_10 
REMARK    4  A    between atoms: C_10  and  N_11 
REMARK    5  A    between atoms: N_11  and  N_12 
REMARK       I    between atoms: N_12  and  C_13 
REMARK    6  A    between atoms: C_13  and  C_14 
REMARK    7  A    between atoms: C_14  and  C_15 
REMARK    8  A    between atoms: C_15  and  C_16 
REMARK    9  A    between atoms: C_18  and  O_19 
REMARK   10  A    between atoms: C_20  and  O_21 
ROOT
HETATM    1  N   UNL     1      38.947 -13.564   2.740  1.00  0.00    -0.274 N 
HETATM    2  H   UNL     1      38.008 -13.486   2.346  1.00  0.00     0.189 HD
ENDROOT
BRANCH   1   3
HETATM    3  C   UNL     1      39.295 -12.760   3.793  1.00  0.00     0.191 C 
HETATM    4  S   UNL     1      39.127 -11.091   3.804  1.00  0.00    -0.039 SA
BRANCH   3   5
HETATM    5  N   UNL     1      39.841 -13.360   4.894  1.00  0.00    -0.331 N 
HETATM    6  H   UNL     1      39.173 -13.970   5.367  1.00  0.00     0.168 HD
BRANCH   5   7
HETATM    7  C   UNL     1      41.165 -13.365   5.395  1.00  0.00     0.049 A 
HETATM    8  C   UNL     1      41.673 -14.528   6.010  1.00  0.00     0.074 A 
HETATM    9  C   UNL     1      43.001 -14.535   6.488  1.00  0.00     0.018 A 
HETATM   10  C   UNL     1      43.825 -13.424   6.336  1.00  0.00     0.001 A 
HETATM   11  C   UNL     1      43.337 -12.292   5.698  1.00  0.00     0.002 A 
HETATM   12  C   UNL     1      42.021 -12.266   5.226  1.00  0.00     0.030 A 
BRANCH   8  13
HETATM   13  C   UNL     1      40.831 -15.757   6.244  1.00  0.00     0.419 C 
HETATM   14  F   UNL     1      40.448 -16.376   5.092  1.00  0.00    -0.166 F 
HETATM   15  F   UNL     1      41.484 -16.702   6.976  1.00  0.00    -0.166 F 
HETATM   16  F   UNL     1      39.674 -15.498   6.920  1.00  0.00    -0.166 F 
ENDBRANCH   8  13
ENDBRANCH   5   7
ENDBRANCH   3   5
ENDBRANCH   1   3
BRANCH   1  17
HETATM   17  N   UNL     1      39.565 -14.801   2.526  1.00  0.00    -0.268 N 
HETATM   18  C   UNL     1      40.811 -14.817   1.933  1.00  0.00     0.236 C 
HETATM   19  O   UNL     1      41.344 -13.807   1.479  1.00  0.00    -0.272 OA
HETATM   20  H   UNL     1      39.121 -15.622   2.931  1.00  0.00     0.190 HD
BRANCH  18  21
HETATM   21  C   UNL     1      41.451 -16.189   1.944  1.00  0.00     0.109 C 
BRANCH  21  22
HETATM   22  C   UNL     1      42.763 -16.191   2.727  1.00  0.00     0.048 C 
BRANCH  22  23
HETATM   23  C   UNL     1      43.219 -17.523   3.287  1.00  0.00    -0.055 A 
HETATM   24  C   UNL     1      43.224 -18.633   2.420  1.00  0.00     0.046 A 
HETATM   25  C   UNL     1      43.660 -19.874   2.875  1.00  0.00     0.099 A 
HETATM   26  C   UNL     1      44.090 -20.027   4.188  1.00  0.00     0.098 A 
HETATM   27  C   UNL     1      44.085 -18.955   5.062  1.00  0.00     0.040 A 
HETATM   28  C   UNL     1      43.647 -17.704   4.615  1.00  0.00     0.010 A 
BRANCH  25  29
HETATM   29  O   UNL     1      43.686 -20.973   2.063  1.00  0.00    -0.358 OA
HETATM   30  H   UNL     1      42.907 -21.519   2.270  1.00  0.00     0.218 HD
ENDBRANCH  25  29
BRANCH  26  31
HETATM   31  O   UNL     1      44.526 -21.245   4.626  1.00  0.00    -0.358 OA
HETATM   32  H   UNL     1      44.115 -21.349   5.506  1.00  0.00     0.218 HD
ENDBRANCH  26  31
ENDBRANCH  22  23
ENDBRANCH  21  22
ENDBRANCH  18  21
ENDBRANCH   1  17
TORSDOF 10
ENDMDL
MODEL 2
REMARK VINA RESULT:      -7.9      2.140      3.444
REMARK  10 active torsions:
REMARK  status: ('A' for Active; 'I' for Inactive)
REMARK    1  A    between atoms: C_3  and  C_4 
REMARK    2  A    between atoms: C_8  and  N_9 
REMARK    3  A    between atoms: N_9  and  C_10 
REMARK    4  A    between atoms: C_10  and  N_11 
REMARK    5  A    between atoms: N_11  and  N_12 
REMARK       I    between atoms: N_12  and  C_13 
REMARK    6  A    between atoms: C_13  and  C_14 
REMARK    7  A    between atoms: C_14  and  C_15 
REMARK    8  A    between atoms: C_15  and  C_16 
REMARK    9  A    between atoms: C_18  and  O_19 
REMARK   10  A    between atoms: C_20  and  O_21 
ROOT
HETATM    1  N   UNL     1      40.470 -14.112   6.794  1.00  0.00    -0.274 N 
HETATM    2  H   UNL     1      40.759 -13.762   7.708  1.00  0.00     0.189 HD
ENDROOT
BRANCH   1   3
HETATM    3  C   UNL     1      40.061 -13.220   5.839  1.00  0.00     0.191 C 
HETATM    4  S   UNL     1      39.389 -11.720   6.173  1.00  0.00    -0.039 SA
BRANCH   3   5
HETATM    5  N   UNL     1      40.184 -13.593   4.529  1.00  0.00    -0.331 N 
HETATM    6  H   UNL     1      39.276 -13.716   4.080  1.00  0.00     0.168 HD
BRANCH   5   7
HETATM    7  C   UNL     1      41.322 -13.715   3.695  1.00  0.00     0.049 A 
HETATM    8  C   UNL     1      41.349 -14.708   2.694  1.00  0.00     0.074 A 
HETATM    9  C   UNL     1      42.477 -14.811   1.851  1.00  0.00     0.018 A 
HETATM   10  C   UNL     1      43.547 -13.930   1.972  1.00  0.00     0.001 A 
HETATM   11  C   UNL     1      43.504 -12.930   2.933  1.00  0.00     0.002 A 
HETATM   12  C   UNL     1      42.399 -12.819   3.781  1.00  0.00     0.030 A 
BRANCH   8  13
HETATM   13  C   UNL     1      40.246 -15.721   2.525  1.00  0.00     0.419 C 
HETATM   14  F   UNL     1      40.464 -16.591   1.498  1.00  0.00    -0.166 F 
HETATM   15  F   UNL     1      40.074 -16.492   3.635  1.00  0.00    -0.166 F 
HETATM   16  F   UNL     1      39.028 -15.158   2.272  1.00  0.00    -0.166 F 
ENDBRANCH   8  13
ENDBRANCH   5   7
ENDBRANCH   3   5
ENDBRANCH   1   3
BRANCH   1  17
HETATM   17  N   UNL     1      41.014 -15.355   6.451  1.00  0.00    -0.268 N 
HETATM   18  C   UNL     1      42.278 -15.666   6.909  1.00  0.00     0.236 C 
HETATM   19  O   UNL     1      42.988 -14.857   7.502  1.00  0.00    -0.272 OA
HETATM   20  H   UNL     1      40.402 -16.020   5.983  1.00  0.00     0.190 HD
BRANCH  18  21
HETATM   21  C   UNL     1      42.663 -17.105   6.641  1.00  0.00     0.109 C 
BRANCH  21  22
HETATM   22  C   UNL     1      43.862 -17.201   5.699  1.00  0.00     0.048 C 
BRANCH  22  23
HETATM   23  C   UNL     1      43.722 -18.131   4.510  1.00  0.00    -0.055 A 
HETATM   24  C   UNL     1      44.054 -19.487   4.695  1.00  0.00     0.046 A 
HETATM   25  C   UNL     1      43.919 -20.389   3.645  1.00  0.00     0.099 A 
HETATM   26  C   UNL     1      43.457 -19.959   2.406  1.00  0.00     0.098 A 
HETATM   27  C   UNL     1      43.133 -18.630   2.197  1.00  0.00     0.040 A 
HETATM   28  C   UNL     1      43.268 -17.715   3.246  1.00  0.00     0.010 A 
BRANCH  25  29
HETATM   29  O   UNL     1      44.224 -21.714   3.786  1.00  0.00    -0.358 OA
HETATM   30  H   UNL     1      43.776 -22.043   4.585  1.00  0.00     0.218 HD
ENDBRANCH  25  29
BRANCH  26  31
HETATM   31  O   UNL     1      43.315 -20.852   1.383  1.00  0.00    -0.358 OA
HETATM   32  H   UNL     1      42.740 -21.552   1.749  1.00  0.00     0.218 HD
ENDBRANCH  26  31
ENDBRANCH  22  23
ENDBRANCH  21  22
ENDBRANCH  18  21
ENDBRANCH   1  17
TORSDOF 10
ENDMDL
MODEL 3
REMARK VINA RESULT:      -7.8      1.989      2.515
REMARK  10 active torsions:
REMARK  status: ('A' for Active; 'I' for Inactive)
REMARK    1  A    between atoms: C_3  and  C_4 
REMARK    2  A    between atoms: C_8  and  N_9 
REMARK    3  A    between atoms: N_9  and  C_10 
REMARK    4  A    between atoms: C_10  and  N_11 
REMARK    5  A    between atoms: N_11  and  N_12 
REMARK       I    between atoms: N_12  and  C_13 
REMARK    6  A    between atoms: C_13  and  C_14 
REMARK    7  A    between atoms: C_14  and  C_15 
REMARK    8  A    between atoms: C_15  and  C_16 
REMARK    9  A    between atoms: C_18  and  O_19 
REMARK   10  A    between atoms: C_20  and  O_21 
ROOT
HETATM    1  N   UNL     1      39.280 -13.234   3.501  1.00  0.00    -0.274 N 
HETATM    2  H   UNL     1      38.354 -12.911   3.216  1.00  0.00     0.189 HD
ENDROOT
BRANCH   1   3
HETATM    3  C   UNL     1      39.862 -12.688   4.613  1.00  0.00     0.191 C 
HETATM    4  S   UNL     1      39.102 -11.603   5.642  1.00  0.00    -0.039 SA
BRANCH   3   5
HETATM    5  N   UNL     1      41.159 -13.031   4.883  1.00  0.00    -0.331 N 
HETATM    6  H   UNL     1      41.822 -12.412   4.418  1.00  0.00     0.168 HD
BRANCH   5   7
HETATM    7  C   UNL     1      41.706 -13.995   5.764  1.00  0.00     0.049 A 
HETATM    8  C   UNL     1      42.914 -13.717   6.437  1.00  0.00     0.074 A 
HETATM    9  C   UNL     1      43.444 -14.673   7.331  1.00  0.00     0.018 A 
HETATM   10  C   UNL     1      42.779 -15.869   7.582  1.00  0.00     0.001 A 
HETATM   11  C   UNL     1      41.571 -16.126   6.948  1.00  0.00     0.002 A 
HETATM   12  C   UNL     1      41.036 -15.194   6.053  1.00  0.00     0.030 A 
BRANCH   8  13
HETATM   13  C   UNL     1      43.711 -12.462   6.190  1.00  0.00     0.419 C 
HETATM   14  F   UNL     1      43.080 -11.330   6.614  1.00  0.00    -0.166 F 
HETATM   15  F   UNL     1      44.915 -12.477   6.826  1.00  0.00    -0.166 F 
HETATM   16  F   UNL     1      43.991 -12.250   4.871  1.00  0.00    -0.166 F 
ENDBRANCH   8  13
ENDBRANCH   5   7
ENDBRANCH   3   5
ENDBRANCH   1   3
BRANCH   1  17
HETATM   17  N   UNL     1      39.604 -14.523   3.062  1.00  0.00    -0.268 N 
HETATM   18  C   UNL     1      40.649 -14.669   2.173  1.00  0.00     0.236 C 
HETATM   19  O   UNL     1      41.226 -13.711   1.664  1.00  0.00    -0.272 OA
HETATM   20  H   UNL     1      39.134 -15.303   3.515  1.00  0.00     0.190 HD
BRANCH  18  21
HETATM   21  C   UNL     1      41.024 -16.116   1.938  1.00  0.00     0.109 C 
BRANCH  21  22
HETATM   22  C   UNL     1      42.540 -16.308   1.909  1.00  0.00     0.048 C 
BRANCH  22  23
HETATM   23  C   UNL     1      43.105 -17.399   2.796  1.00  0.00    -0.055 A 
HETATM   24  C   UNL     1      43.170 -18.704   2.270  1.00  0.00     0.046 A 
HETATM   25  C   UNL     1      43.705 -19.739   3.031  1.00  0.00     0.099 A 
HETATM   26  C   UNL     1      44.178 -19.492   4.315  1.00  0.00     0.098 A 
HETATM   27  C   UNL     1      44.116 -18.221   4.858  1.00  0.00     0.040 A 
HETATM   28  C   UNL     1      43.578 -17.175   4.101  1.00  0.00     0.010 A 
BRANCH  25  29
HETATM   29  O   UNL     1      43.792 -21.017   2.555  1.00  0.00    -0.358 OA
HETATM   30  H   UNL     1      44.714 -21.313   2.655  1.00  0.00     0.218 HD
ENDBRANCH  25  29
BRANCH  26  31
HETATM   31  O   UNL     1      44.712 -20.510   5.053  1.00  0.00    -0.358 OA
HETATM   32  H   UNL     1      45.296 -20.062   5.696  1.00  0.00     0.218 HD
ENDBRANCH  26  31
ENDBRANCH  22  23
ENDBRANCH  21  22
ENDBRANCH  18  21
ENDBRANCH   1  17
TORSDOF 10
ENDMDL
MODEL 4
REMARK VINA RESULT:      -7.7      2.614      4.091
REMARK  10 active torsions:
REMARK  status: ('A' for Active; 'I' for Inactive)
REMARK    1  A    between atoms: C_3  and  C_4 
REMARK    2  A    between atoms: C_8  and  N_9 
REMARK    3  A    between atoms: N_9  and  C_10 
REMARK    4  A    between atoms: C_10  and  N_11 
REMARK    5  A    between atoms: N_11  and  N_12 
REMARK       I    between atoms: N_12  and  C_13 
REMARK    6  A    between atoms: C_13  and  C_14 
REMARK    7  A    between atoms: C_14  and  C_15 
REMARK    8  A    between atoms: C_15  and  C_16 
REMARK    9  A    between atoms: C_18  and  O_19 
REMARK   10  A    between atoms: C_20  and  O_21 
ROOT
HETATM    1  N   UNL     1      42.334 -13.641   6.629  1.00  0.00    -0.274 N 
HETATM    2  H   UNL     1      41.647 -13.424   7.352  1.00  0.00     0.189 HD
ENDROOT
BRANCH   1   3
HETATM    3  C   UNL     1      42.880 -12.617   5.902  1.00  0.00     0.191 C 
HETATM    4  S   UNL     1      44.100 -11.608   6.458  1.00  0.00    -0.039 SA
BRANCH   3   5
HETATM    5  N   UNL     1      42.375 -12.387   4.651  1.00  0.00    -0.331 N 
HETATM    6  H   UNL     1      42.174 -11.399   4.497  1.00  0.00     0.168 HD
BRANCH   5   7
HETATM    7  C   UNL     1      42.206 -13.248   3.540  1.00  0.00     0.049 A 
HETATM    8  C   UNL     1      40.921 -13.430   2.989  1.00  0.00     0.074 A 
HETATM    9  C   UNL     1      40.761 -14.272   1.868  1.00  0.00     0.018 A 
HETATM   10  C   UNL     1      41.854 -14.899   1.279  1.00  0.00     0.001 A 
HETATM   11  C   UNL     1      43.124 -14.691   1.798  1.00  0.00     0.002 A 
HETATM   12  C   UNL     1      43.299 -13.866   2.914  1.00  0.00     0.030 A 
BRANCH   8  13
HETATM   13  C   UNL     1      39.684 -12.815   3.593  1.00  0.00     0.419 C 
HETATM   14  F   UNL     1      39.485 -13.170   4.894  1.00  0.00    -0.166 F 
HETATM   15  F   UNL     1      39.721 -11.454   3.580  1.00  0.00    -0.166 F 
HETATM   16  F   UNL     1      38.535 -13.161   2.942  1.00  0.00    -0.166 F 
ENDBRANCH   8  13
ENDBRANCH   5   7
ENDBRANCH   3   5
ENDBRANCH   1   3
BRANCH   1  17
HETATM   17  N   UNL     1      43.014 -14.849   6.819  1.00  0.00    -0.268 N 
HETATM   18  C   UNL     1      42.282 -16.019   6.823  1.00  0.00     0.236 C 
HETATM   19  O   UNL     1      41.054 -16.034   6.787  1.00  0.00    -0.272 OA
HETATM   20  H   UNL     1      44.031 -14.818   6.820  1.00  0.00     0.190 HD
BRANCH  18  21
HETATM   21  C   UNL     1      43.152 -17.257   6.834  1.00  0.00     0.109 C 
BRANCH  21  22
HETATM   22  C   UNL     1      44.181 -17.232   5.705  1.00  0.00     0.048 C 
BRANCH  22  23
HETATM   23  C   UNL     1      43.918 -18.144   4.523  1.00  0.00    -0.055 A 
HETATM   24  C   UNL     1      44.200 -19.515   4.676  1.00  0.00     0.046 A 
HETATM   25  C   UNL     1      43.952 -20.401   3.632  1.00  0.00     0.099 A 
HETATM   26  C   UNL     1      43.426 -19.939   2.431  1.00  0.00     0.098 A 
HETATM   27  C   UNL     1      43.150 -18.595   2.252  1.00  0.00     0.040 A 
HETATM   28  C   UNL     1      43.398 -17.696   3.295  1.00  0.00     0.010 A 
BRANCH  25  29
HETATM   29  O   UNL     1      44.205 -21.740   3.744  1.00  0.00    -0.358 OA
HETATM   30  H   UNL     1      44.585 -22.045   2.901  1.00  0.00     0.218 HD
ENDBRANCH  25  29
BRANCH  26  31
HETATM   31  O   UNL     1      43.175 -20.815   1.414  1.00  0.00    -0.358 OA
HETATM   32  H   UNL     1      42.572 -20.329   0.818  1.00  0.00     0.218 HD
ENDBRANCH  26  31
ENDBRANCH  22  23
ENDBRANCH  21  22
ENDBRANCH  18  21
ENDBRANCH   1  17
TORSDOF 10
ENDMDL
MODEL 5
REMARK VINA RESULT:      -7.7      2.145      4.070
REMARK  10 active torsions:
REMARK  status: ('A' for Active; 'I' for Inactive)
REMARK    1  A    between atoms: C_3  and  C_4 
REMARK    2  A    between atoms: C_8  and  N_9 
REMARK    3  A    between atoms: N_9  and  C_10 
REMARK    4  A    between atoms: C_10  and  N_11 
REMARK    5  A    between atoms: N_11  and  N_12 
REMARK       I    between atoms: N_12  and  C_13 
REMARK    6  A    between atoms: C_13  and  C_14 
REMARK    7  A    between atoms: C_14  and  C_15 
REMARK    8  A    between atoms: C_15  and  C_16 
REMARK    9  A    between atoms: C_18  and  O_19 
REMARK   10  A    between atoms: C_20  and  O_21 
ROOT
HETATM    1  N   UNL     1      40.860 -13.791   6.394  1.00  0.00    -0.274 N 
HETATM    2  H   UNL     1      41.174 -13.400   7.283  1.00  0.00     0.189 HD
ENDROOT
BRANCH   1   3
HETATM    3  C   UNL     1      40.534 -12.940   5.372  1.00  0.00     0.191 C 
HETATM    4  S   UNL     1      41.085 -11.361   5.244  1.00  0.00    -0.039 SA
BRANCH   3   5
HETATM    5  N   UNL     1      39.681 -13.405   4.408  1.00  0.00    -0.331 N 
HETATM    6  H   UNL     1      38.978 -14.036   4.793  1.00  0.00     0.168 HD
BRANCH   5   7
HETATM    7  C   UNL     1      39.548 -13.071   3.039  1.00  0.00     0.049 A 
HETATM    8  C   UNL     1      40.151 -13.888   2.061  1.00  0.00     0.074 A 
HETATM    9  C   UNL     1      39.996 -13.563   0.696  1.00  0.00     0.018 A 
HETATM   10  C   UNL     1      39.234 -12.468   0.300  1.00  0.00     0.001 A 
HETATM   11  C   UNL     1      38.610 -11.685   1.261  1.00  0.00     0.002 A 
HETATM   12  C   UNL     1      38.760 -11.989   2.618  1.00  0.00     0.030 A 
BRANCH   8  13
HETATM   13  C   UNL     1      41.021 -15.068   2.412  1.00  0.00     0.419 C 
HETATM   14  F   UNL     1      40.384 -16.000   3.175  1.00  0.00    -0.166 F 
HETATM   15  F   UNL     1      41.468 -15.731   1.309  1.00  0.00    -0.166 F 
HETATM   16  F   UNL     1      42.139 -14.724   3.117  1.00  0.00    -0.166 F 
ENDBRANCH   8  13
ENDBRANCH   5   7
ENDBRANCH   3   5
ENDBRANCH   1   3
BRANCH   1  17
HETATM   17  N   UNL     1      41.295 -15.099   6.150  1.00  0.00    -0.268 N 
HETATM   18  C   UNL     1      42.455 -15.528   6.761  1.00  0.00     0.236 C 
HETATM   19  O   UNL     1      43.180 -14.779   7.412  1.00  0.00    -0.272 OA
HETATM   20  H   UNL     1      40.669 -15.711   5.631  1.00  0.00     0.190 HD
BRANCH  18  21
HETATM   21  C   UNL     1      42.703 -17.010   6.578  1.00  0.00     0.109 C 
BRANCH  21  22
HETATM   22  C   UNL     1      43.947 -17.272   5.732  1.00  0.00     0.048 C 
BRANCH  22  23
HETATM   23  C   UNL     1      43.775 -18.177   4.528  1.00  0.00    -0.055 A 
HETATM   24  C   UNL     1      44.095 -19.540   4.681  1.00  0.00     0.046 A 
HETATM   25  C   UNL     1      43.930 -20.421   3.617  1.00  0.00     0.099 A 
HETATM   26  C   UNL     1      43.449 -19.962   2.395  1.00  0.00     0.098 A 
HETATM   27  C   UNL     1      43.137 -18.625   2.217  1.00  0.00     0.040 A 
HETATM   28  C   UNL     1      43.302 -17.732   3.281  1.00  0.00     0.010 A 
BRANCH  25  29
HETATM   29  O   UNL     1      44.223 -21.751   3.726  1.00  0.00    -0.358 OA
HETATM   30  H   UNL     1      44.133 -22.153   2.845  1.00  0.00     0.218 HD
ENDBRANCH  25  29
BRANCH  26  31
HETATM   31  O   UNL     1      43.279 -20.833   1.358  1.00  0.00    -0.358 OA
HETATM   32  H   UNL     1      44.017 -20.633   0.749  1.00  0.00     0.218 HD
ENDBRANCH  26  31
ENDBRANCH  22  23
ENDBRANCH  21  22
ENDBRANCH  18  21
ENDBRANCH   1  17
TORSDOF 10
ENDMDL
MODEL 6
REMARK VINA RESULT:      -7.6      3.522      5.347
REMARK  10 active torsions:
REMARK  status: ('A' for Active; 'I' for Inactive)
REMARK    1  A    between atoms: C_3  and  C_4 
REMARK    2  A    between atoms: C_8  and  N_9 
REMARK    3  A    between atoms: N_9  and  C_10 
REMARK    4  A    between atoms: C_10  and  N_11 
REMARK    5  A    between atoms: N_11  and  N_12 
REMARK       I    between atoms: N_12  and  C_13 
REMARK    6  A    between atoms: C_13  and  C_14 
REMARK    7  A    between atoms: C_14  and  C_15 
REMARK    8  A    between atoms: C_15  and  C_16 
REMARK    9  A    between atoms: C_18  and  O_19 
REMARK   10  A    between atoms: C_20  and  O_21 
ROOT
HETATM    1  N   UNL     1      38.797 -13.545   2.831  1.00  0.00    -0.274 N 
HETATM    2  H   UNL     1      38.604 -13.598   3.832  1.00  0.00     0.189 HD
ENDROOT
BRANCH   1   3
HETATM    3  C   UNL     1      38.985 -12.317   2.253  1.00  0.00     0.191 C 
HETATM    4  S   UNL     1      38.740 -10.856   3.039  1.00  0.00    -0.039 SA
BRANCH   3   5
HETATM    5  N   UNL     1      39.369 -12.287   0.941  1.00  0.00    -0.331 N 
HETATM    6  H   UNL     1      40.352 -12.535   0.825  1.00  0.00     0.168 HD
BRANCH   5   7
HETATM    7  C   UNL     1      38.623 -12.090  -0.247  1.00  0.00     0.049 A 
HETATM    8  C   UNL     1      38.771 -12.993  -1.319  1.00  0.00     0.074 A 
HETATM    9  C   UNL     1      38.009 -12.806  -2.492  1.00  0.00     0.018 A 
HETATM   10  C   UNL     1      37.094 -11.762  -2.595  1.00  0.00     0.001 A 
HETATM   11  C   UNL     1      36.922 -10.895  -1.526  1.00  0.00     0.002 A 
HETATM   12  C   UNL     1      37.675 -11.062  -0.359  1.00  0.00     0.030 A 
BRANCH   8  13
HETATM   13  C   UNL     1      39.767 -14.125  -1.298  1.00  0.00     0.419 C 
HETATM   14  F   UNL     1      40.867 -13.861  -0.536  1.00  0.00    -0.166 F 
HETATM   15  F   UNL     1      39.237 -15.275  -0.799  1.00  0.00    -0.166 F 
HETATM   16  F   UNL     1      40.250 -14.444  -2.534  1.00  0.00    -0.166 F 
ENDBRANCH   8  13
ENDBRANCH   5   7
ENDBRANCH   3   5
ENDBRANCH   1   3
BRANCH   1  17
HETATM   17  N   UNL     1      39.362 -14.705   2.288  1.00  0.00    -0.268 N 
HETATM   18  C   UNL     1      40.639 -15.054   2.675  1.00  0.00     0.236 C 
HETATM   19  O   UNL     1      41.341 -14.333   3.379  1.00  0.00    -0.272 OA
HETATM   20  H   UNL     1      38.757 -15.302   1.729  1.00  0.00     0.190 HD
BRANCH  18  21
HETATM   21  C   UNL     1      41.051 -16.423   2.177  1.00  0.00     0.109 C 
BRANCH  21  22
HETATM   22  C   UNL     1      42.570 -16.594   2.192  1.00  0.00     0.048 C 
BRANCH  22  23
HETATM   23  C   UNL     1      43.118 -17.746   3.010  1.00  0.00    -0.055 A 
HETATM   24  C   UNL     1      43.278 -18.989   2.368  1.00  0.00     0.046 A 
HETATM   25  C   UNL     1      43.803 -20.074   3.065  1.00  0.00     0.099 A 
HETATM   26  C   UNL     1      44.170 -19.938   4.399  1.00  0.00     0.098 A 
HETATM   27  C   UNL     1      44.013 -18.729   5.055  1.00  0.00     0.040 A 
HETATM   28  C   UNL     1      43.484 -17.634   4.363  1.00  0.00     0.010 A 
BRANCH  25  29
HETATM   29  O   UNL     1      43.980 -21.294   2.476  1.00  0.00    -0.358 OA
HETATM   30  H   UNL     1      43.111 -21.614   2.179  1.00  0.00     0.218 HD
ENDBRANCH  25  29
BRANCH  26  31
HETATM   31  O   UNL     1      44.694 -21.003   5.074  1.00  0.00    -0.358 OA
HETATM   32  H   UNL     1      43.935 -21.602   5.209  1.00  0.00     0.218 HD
ENDBRANCH  26  31
ENDBRANCH  22  23
ENDBRANCH  21  22
ENDBRANCH  18  21
ENDBRANCH   1  17
TORSDOF 10
ENDMDL
MODEL 7
REMARK VINA RESULT:      -7.6      3.901      6.588
REMARK  10 active torsions:
REMARK  status: ('A' for Active; 'I' for Inactive)
REMARK    1  A    between atoms: C_3  and  C_4 
REMARK    2  A    between atoms: C_8  and  N_9 
REMARK    3  A    between atoms: N_9  and  C_10 
REMARK    4  A    between atoms: C_10  and  N_11 
REMARK    5  A    between atoms: N_11  and  N_12 
REMARK       I    between atoms: N_12  and  C_13 
REMARK    6  A    between atoms: C_13  and  C_14 
REMARK    7  A    between atoms: C_14  and  C_15 
REMARK    8  A    between atoms: C_15  and  C_16 
REMARK    9  A    between atoms: C_18  and  O_19 
REMARK   10  A    between atoms: C_20  and  O_21 
ROOT
HETATM    1  N   UNL     1      39.606 -14.446   3.258  1.00  0.00    -0.274 N 
HETATM    2  H   UNL     1      38.999 -15.040   3.825  1.00  0.00     0.189 HD
ENDROOT
BRANCH   1   3
HETATM    3  C   UNL     1      40.889 -14.854   3.007  1.00  0.00     0.191 C 
HETATM    4  S   UNL     1      42.051 -13.908   2.253  1.00  0.00    -0.039 SA
BRANCH   3   5
HETATM    5  N   UNL     1      41.231 -16.127   3.371  1.00  0.00    -0.331 N 
HETATM    6  H   UNL     1      40.907 -16.818   2.694  1.00  0.00     0.168 HD
BRANCH   5   7
HETATM    7  C   UNL     1      42.034 -16.611   4.432  1.00  0.00     0.049 A 
HETATM    8  C   UNL     1      43.149 -17.426   4.146  1.00  0.00     0.074 A 
HETATM    9  C   UNL     1      43.959 -17.888   5.205  1.00  0.00     0.018 A 
HETATM   10  C   UNL     1      43.694 -17.528   6.523  1.00  0.00     0.001 A 
HETATM   11  C   UNL     1      42.618 -16.696   6.801  1.00  0.00     0.002 A 
HETATM   12  C   UNL     1      41.801 -16.236   5.764  1.00  0.00     0.030 A 
BRANCH   8  13
HETATM   13  C   UNL     1      43.480 -17.889   2.750  1.00  0.00     0.419 C 
HETATM   14  F   UNL     1      44.584 -18.687   2.693  1.00  0.00    -0.166 F 
HETATM   15  F   UNL     1      42.471 -18.609   2.188  1.00  0.00    -0.166 F 
HETATM   16  F   UNL     1      43.730 -16.862   1.884  1.00  0.00    -0.166 F 
ENDBRANCH   8  13
ENDBRANCH   5   7
ENDBRANCH   3   5
ENDBRANCH   1   3
BRANCH   1  17
HETATM   17  N   UNL     1      38.927 -13.583   2.390  1.00  0.00    -0.268 N 
HETATM   18  C   UNL     1      38.836 -12.249   2.730  1.00  0.00     0.236 C 
HETATM   19  O   UNL     1      39.218 -11.812   3.813  1.00  0.00    -0.272 OA
HETATM   20  H   UNL     1      38.641 -13.958   1.488  1.00  0.00     0.190 HD
BRANCH  18  21
HETATM   21  C   UNL     1      38.260 -11.397   1.620  1.00  0.00     0.109 C 
BRANCH  21  22
HETATM   22  C   UNL     1      39.262 -11.202   0.483  1.00  0.00     0.048 C 
BRANCH  22  23
HETATM   23  C   UNL     1      39.040 -12.026  -0.769  1.00  0.00    -0.055 A 
HETATM   24  C   UNL     1      40.177 -12.471  -1.472  1.00  0.00     0.046 A 
HETATM   25  C   UNL     1      40.032 -13.253  -2.614  1.00  0.00     0.099 A 
HETATM   26  C   UNL     1      38.765 -13.601  -3.069  1.00  0.00     0.098 A 
HETATM   27  C   UNL     1      37.632 -13.168  -2.401  1.00  0.00     0.040 A 
HETATM   28  C   UNL     1      37.768 -12.379  -1.254  1.00  0.00     0.010 A 
BRANCH  25  29
HETATM   29  O   UNL     1      41.109 -13.710  -3.319  1.00  0.00    -0.358 OA
HETATM   30  H   UNL     1      41.617 -14.305  -2.741  1.00  0.00     0.218 HD
ENDBRANCH  25  29
BRANCH  26  31
HETATM   31  O   UNL     1      38.629 -14.378  -4.183  1.00  0.00    -0.358 OA
HETATM   32  H   UNL     1      38.171 -15.181  -3.865  1.00  0.00     0.218 HD
ENDBRANCH  26  31
ENDBRANCH  22  23
ENDBRANCH  21  22
ENDBRANCH  18  21
ENDBRANCH   1  17
TORSDOF 10
ENDMDL
MODEL 8
REMARK VINA RESULT:      -7.4      3.293      4.177
REMARK  10 active torsions:
REMARK  status: ('A' for Active; 'I' for Inactive)
REMARK    1  A    between atoms: C_3  and  C_4 
REMARK    2  A    between atoms: C_8  and  N_9 
REMARK    3  A    between atoms: N_9  and  C_10 
REMARK    4  A    between atoms: C_10  and  N_11 
REMARK    5  A    between atoms: N_11  and  N_12 
REMARK       I    between atoms: N_12  and  C_13 
REMARK    6  A    between atoms: C_13  and  C_14 
REMARK    7  A    between atoms: C_14  and  C_15 
REMARK    8  A    between atoms: C_15  and  C_16 
REMARK    9  A    between atoms: C_18  and  O_19 
REMARK   10  A    between atoms: C_20  and  O_21 
ROOT
HETATM    1  N   UNL     1      41.338 -12.311   5.584  1.00  0.00    -0.274 N 
HETATM    2  H   UNL     1      40.409 -12.648   5.840  1.00  0.00     0.189 HD
ENDROOT
BRANCH   1   3
HETATM    3  C   UNL     1      41.822 -11.178   6.182  1.00  0.00     0.191 C 
HETATM    4  S   UNL     1      41.539  -9.621   5.627  1.00  0.00    -0.039 SA
BRANCH   3   5
HETATM    5  N   UNL     1      42.612 -11.334   7.289  1.00  0.00    -0.331 N 
HETATM    6  H   UNL     1      42.497 -12.254   7.713  1.00  0.00     0.168 HD
BRANCH   5   7
HETATM    7  C   UNL     1      43.611 -10.501   7.848  1.00  0.00     0.049 A 
HETATM    8  C   UNL     1      44.933 -10.576   7.362  1.00  0.00     0.074 A 
HETATM    9  C   UNL     1      45.920  -9.728   7.908  1.00  0.00     0.018 A 
HETATM   10  C   UNL     1      45.604  -8.799   8.895  1.00  0.00     0.001 A 
HETATM   11  C   UNL     1      44.296  -8.700   9.347  1.00  0.00     0.002 A 
HETATM   12  C   UNL     1      43.307  -9.538   8.823  1.00  0.00     0.030 A 
BRANCH   8  13
HETATM   13  C   UNL     1      45.360 -11.580   6.323  1.00  0.00     0.419 C 
HETATM   14  F   UNL     1      46.709 -11.610   6.123  1.00  0.00    -0.166 F 
HETATM   15  F   UNL     1      45.005 -12.853   6.652  1.00  0.00    -0.166 F 
HETATM   16  F   UNL     1      44.816 -11.350   5.092  1.00  0.00    -0.166 F 
ENDBRANCH   8  13
ENDBRANCH   5   7
ENDBRANCH   3   5
ENDBRANCH   1   3
BRANCH   1  17
HETATM   17  N   UNL     1      42.194 -13.296   5.079  1.00  0.00    -0.268 N 
HETATM   18  C   UNL     1      41.734 -14.103   4.059  1.00  0.00     0.236 C 
HETATM   19  O   UNL     1      40.573 -14.071   3.659  1.00  0.00    -0.272 OA
HETATM   20  H   UNL     1      43.158 -13.289   5.404  1.00  0.00     0.190 HD
BRANCH  18  21
HETATM   21  C   UNL     1      42.816 -14.983   3.470  1.00  0.00     0.109 C 
BRANCH  21  22
HETATM   22  C   UNL     1      43.297 -16.030   4.474  1.00  0.00     0.048 C 
BRANCH  22  23
HETATM   23  C   UNL     1      43.483 -17.440   3.951  1.00  0.00    -0.055 A 
HETATM   24  C   UNL     1      44.004 -18.404   4.835  1.00  0.00     0.046 A 
HETATM   25  C   UNL     1      44.170 -19.721   4.416  1.00  0.00     0.099 A 
HETATM   26  C   UNL     1      43.824 -20.093   3.121  1.00  0.00     0.098 A 
HETATM   27  C   UNL     1      43.319 -19.161   2.231  1.00  0.00     0.040 A 
HETATM   28  C   UNL     1      43.151 -17.835   2.643  1.00  0.00     0.010 A 
BRANCH  25  29
HETATM   29  O   UNL     1      44.666 -20.687   5.245  1.00  0.00    -0.358 OA
HETATM   30  H   UNL     1      45.632 -20.578   5.289  1.00  0.00     0.218 HD
ENDBRANCH  25  29
BRANCH  26  31
HETATM   31  O   UNL     1      43.978 -21.388   2.719  1.00  0.00    -0.358 OA
HETATM   32  H   UNL     1      44.493 -21.325   1.891  1.00  0.00     0.218 HD
ENDBRANCH  26  31
ENDBRANCH  22  23
ENDBRANCH  21  22
ENDBRANCH  18  21
ENDBRANCH   1  17
TORSDOF 10
ENDMDL
MODEL 9
REMARK VINA RESULT:      -7.4      4.839      7.986
REMARK  10 active torsions:
REMARK  status: ('A' for Active; 'I' for Inactive)
REMARK    1  A    between atoms: C_3  and  C_4 
REMARK    2  A    between atoms: C_8  and  N_9 
REMARK    3  A    between atoms: N_9  and  C_10 
REMARK    4  A    between atoms: C_10  and  N_11 
REMARK    5  A    between atoms: N_11  and  N_12 
REMARK       I    between atoms: N_12  and  C_13 
REMARK    6  A    between atoms: C_13  and  C_14 
REMARK    7  A    between atoms: C_14  and  C_15 
REMARK    8  A    between atoms: C_15  and  C_16 
REMARK    9  A    between atoms: C_18  and  O_19 
REMARK   10  A    between atoms: C_20  and  O_21 
ROOT
HETATM    1  N   UNL     1      42.388 -12.669   6.667  1.00  0.00    -0.274 N 
HETATM    2  H   UNL     1      41.855 -11.846   6.380  1.00  0.00     0.189 HD
ENDROOT
BRANCH   1   3
HETATM    3  C   UNL     1      42.117 -13.875   6.078  1.00  0.00     0.191 C 
HETATM    4  S   UNL     1      40.608 -14.607   6.072  1.00  0.00    -0.039 SA
BRANCH   3   5
HETATM    5  N   UNL     1      43.155 -14.536   5.480  1.00  0.00    -0.331 N 
HETATM    6  H   UNL     1      44.030 -14.413   5.991  1.00  0.00     0.168 HD
BRANCH   5   7
HETATM    7  C   UNL     1      43.187 -15.424   4.378  1.00  0.00     0.049 A 
HETATM    8  C   UNL     1      43.391 -16.802   4.600  1.00  0.00     0.074 A 
HETATM    9  C   UNL     1      43.400 -17.686   3.500  1.00  0.00     0.018 A 
HETATM   10  C   UNL     1      43.179 -17.226   2.206  1.00  0.00     0.001 A 
HETATM   11  C   UNL     1      42.941 -15.875   1.992  1.00  0.00     0.002 A 
HETATM   12  C   UNL     1      42.937 -14.984   3.069  1.00  0.00     0.030 A 
BRANCH   8  13
HETATM   13  C   UNL     1      43.674 -17.372   5.967  1.00  0.00     0.419 C 
HETATM   14  F   UNL     1      43.917 -18.713   5.952  1.00  0.00    -0.166 F 
HETATM   15  F   UNL     1      44.763 -16.802   6.552  1.00  0.00    -0.166 F 
HETATM   16  F   UNL     1      42.645 -17.199   6.848  1.00  0.00    -0.166 F 
ENDBRANCH   8  13
ENDBRANCH   5   7
ENDBRANCH   3   5
ENDBRANCH   1   3
BRANCH   1  17
HETATM   17  N   UNL     1      43.645 -12.385   7.211  1.00  0.00    -0.268 N 
HETATM   18  C   UNL     1      44.389 -11.370   6.646  1.00  0.00     0.236 C 
HETATM   19  O   UNL     1      44.048 -10.789   5.619  1.00  0.00    -0.272 OA
HETATM   20  H   UNL     1      43.898 -12.858   8.076  1.00  0.00     0.190 HD
BRANCH  18  21
HETATM   21  C   UNL     1      45.628 -11.032   7.448  1.00  0.00     0.109 C 
BRANCH  21  22
HETATM   22  C   UNL     1      45.512  -9.662   8.113  1.00  0.00     0.048 C 
BRANCH  22  23
HETATM   23  C   UNL     1      44.666  -9.583   9.368  1.00  0.00    -0.055 A 
HETATM   24  C   UNL     1      44.594 -10.728  10.185  1.00  0.00     0.046 A 
HETATM   25  C   UNL     1      43.853 -10.702  11.362  1.00  0.00     0.099 A 
HETATM   26  C   UNL     1      43.178  -9.547  11.739  1.00  0.00     0.098 A 
HETATM   27  C   UNL     1      43.224  -8.412  10.949  1.00  0.00     0.040 A 
HETATM   28  C   UNL     1      43.965  -8.429   9.762  1.00  0.00     0.010 A 
BRANCH  25  29
HETATM   29  O   UNL     1      43.765 -11.790  12.185  1.00  0.00    -0.358 OA
HETATM   30  H   UNL     1      43.098 -11.597  12.867  1.00  0.00     0.218 HD
ENDBRANCH  25  29
BRANCH  26  31
HETATM   31  O   UNL     1      42.461  -9.524  12.902  1.00  0.00    -0.358 OA
HETATM   32  H   UNL     1      42.090 -10.426  12.976  1.00  0.00     0.218 HD
ENDBRANCH  26  31
ENDBRANCH  22  23
ENDBRANCH  21  22
ENDBRANCH  18  21
ENDBRANCH   1  17
TORSDOF 10
ENDMDL
MODEL 10
REMARK VINA RESULT:      -7.4      3.470      6.469
REMARK  10 active torsions:
REMARK  status: ('A' for Active; 'I' for Inactive)
REMARK    1  A    between atoms: C_3  and  C_4 
REMARK    2  A    between atoms: C_8  and  N_9 
REMARK    3  A    between atoms: N_9  and  C_10 
REMARK    4  A    between atoms: C_10  and  N_11 
REMARK    5  A    between atoms: N_11  and  N_12 
REMARK       I    between atoms: N_12  and  C_13 
REMARK    6  A    between atoms: C_13  and  C_14 
REMARK    7  A    between atoms: C_14  and  C_15 
REMARK    8  A    between atoms: C_15  and  C_16 
REMARK    9  A    between atoms: C_18  and  O_19 
REMARK   10  A    between atoms: C_20  and  O_21 
ROOT
HETATM    1  N   UNL     1      39.663 -14.485   3.280  1.00  0.00    -0.274 N 
HETATM    2  H   UNL     1      39.092 -14.972   3.972  1.00  0.00     0.189 HD
ENDROOT
BRANCH   1   3
HETATM    3  C   UNL     1      40.850 -15.041   2.885  1.00  0.00     0.191 C 
HETATM    4  S   UNL     1      42.054 -14.215   2.061  1.00  0.00    -0.039 SA
BRANCH   3   5
HETATM    5  N   UNL     1      41.050 -16.367   3.159  1.00  0.00    -0.331 N 
HETATM    6  H   UNL     1      40.213 -16.923   2.984  1.00  0.00     0.168 HD
BRANCH   5   7
HETATM    7  C   UNL     1      42.219 -17.081   3.517  1.00  0.00     0.049 A 
HETATM    8  C   UNL     1      42.626 -17.118   4.866  1.00  0.00     0.074 A 
HETATM    9  C   UNL     1      43.780 -17.850   5.221  1.00  0.00     0.018 A 
HETATM   10  C   UNL     1      44.504 -18.558   4.266  1.00  0.00     0.001 A 
HETATM   11  C   UNL     1      44.082 -18.551   2.944  1.00  0.00     0.002 A 
HETATM   12  C   UNL     1      42.945 -17.825   2.575  1.00  0.00     0.030 A 
BRANCH   8  13
HETATM   13  C   UNL     1      41.918 -16.347   5.950  1.00  0.00     0.419 C 
HETATM   14  F   UNL     1      42.311 -16.700   7.208  1.00  0.00    -0.166 F 
HETATM   15  F   UNL     1      42.129 -15.005   5.857  1.00  0.00    -0.166 F 
HETATM   16  F   UNL     1      40.562 -16.512   5.934  1.00  0.00    -0.166 F 
ENDBRANCH   8  13
ENDBRANCH   5   7
ENDBRANCH   3   5
ENDBRANCH   1   3
BRANCH   1  17
HETATM   17  N   UNL     1      38.948 -13.615   2.449  1.00  0.00    -0.268 N 
HETATM   18  C   UNL     1      38.978 -12.265   2.733  1.00  0.00     0.236 C 
HETATM   19  O   UNL     1      39.503 -11.810   3.746  1.00  0.00    -0.272 OA
HETATM   20  H   UNL     1      38.543 -14.006   1.601  1.00  0.00     0.190 HD
BRANCH  18  21
HETATM   21  C   UNL     1      38.338 -11.422   1.650  1.00  0.00     0.109 C 
BRANCH  21  22
HETATM   22  C   UNL     1      39.296 -11.182   0.484  1.00  0.00     0.048 C 
BRANCH  22  23
HETATM   23  C   UNL     1      39.072 -12.012  -0.764  1.00  0.00    -0.055 A 
HETATM   24  C   UNL     1      40.207 -12.439  -1.481  1.00  0.00     0.046 A 
HETATM   25  C   UNL     1      40.060 -13.226  -2.619  1.00  0.00     0.099 A 
HETATM   26  C   UNL     1      38.793 -13.596  -3.057  1.00  0.00     0.098 A 
HETATM   27  C   UNL     1      37.662 -13.181  -2.375  1.00  0.00     0.040 A 
HETATM   28  C   UNL     1      37.800 -12.387  -1.231  1.00  0.00     0.010 A 
BRANCH  25  29
HETATM   29  O   UNL     1      41.136 -13.666  -3.338  1.00  0.00    -0.358 OA
HETATM   30  H   UNL     1      41.661 -14.252  -2.765  1.00  0.00     0.218 HD
ENDBRANCH  25  29
BRANCH  26  31
HETATM   31  O   UNL     1      38.656 -14.377  -4.168  1.00  0.00    -0.358 OA
HETATM   32  H   UNL     1      38.216 -15.187  -3.842  1.00  0.00     0.218 HD
ENDBRANCH  26  31
ENDBRANCH  22  23
ENDBRANCH  21  22
ENDBRANCH  18  21
ENDBRANCH   1  17
TORSDOF 10
ENDMDL
