MODEL 1
REMARK VINA RESULT:      -9.4      0.000      0.000
REMARK  7 active torsions:
REMARK  status: ('A' for Active; 'I' for Inactive)
REMARK    1  A    between atoms: C_2  and  C_3 
REMARK    2  A    between atoms: C_6  and  C_7 
REMARK    3  A    between atoms: C_10  and  C_11 
REMARK       I    between atoms: C_11  and  N_12 
REMARK    4  A    between atoms: N_12  and  C_13 
REMARK    5  A    between atoms: C_25  and  C_26 
REMARK       I    between atoms: C_26  and  N_27 
REMARK    6  A    between atoms: N_27  and  C_28 
REMARK    7  A    between atoms: C_31  and  O_32 
ROOT
HETATM    1  C   UNL     1      40.543 -13.498   2.609  1.00  0.00     0.185 C 
HETATM    2  N   UNL     1      40.783 -12.976   3.962  1.00  0.00    -0.239 N 
HETATM    3  C   UNL     1      41.471 -11.816   4.229  1.00  0.00     0.142 A 
HETATM    4  C   UNL     1      41.558 -11.744   5.607  1.00  0.00     0.097 A 
HETATM    5  C   UNL     1      40.779 -12.844   6.054  1.00  0.00     0.160 A 
HETATM    6  N   UNL     1      40.288 -13.586   5.059  1.00  0.00    -0.181 NA
HETATM    7  N   UNL     1      41.851 -11.031   3.184  1.00  0.00    -0.343 N 
HETATM    8  C   UNL     1      41.393 -11.265   1.877  1.00  0.00     0.021 C 
HETATM    9  C   UNL     1      41.664 -10.151   0.892  1.00  0.00     0.069 C 
HETATM   10  C   UNL     1      40.744 -12.416   1.560  1.00  0.00     0.061 C 
HETATM   11  H   UNL     1      42.073 -10.049   3.351  1.00  0.00     0.167 HD
ENDROOT
BRANCH  10  12
HETATM   12  C   UNL     1      40.000 -12.558   0.263  1.00  0.00     0.256 C 
HETATM   13  N   UNL     1      38.703 -12.089   0.280  1.00  0.00    -0.323 N 
HETATM   14  H   UNL     1      38.303 -11.806   1.165  1.00  0.00     0.169 HD
HETATM   15  O   UNL     1      40.585 -13.009  -0.716  1.00  0.00    -0.267 OA
BRANCH  13  16
HETATM   16  C   UNL     1      37.839 -11.921  -0.826  1.00  0.00     0.035 A 
HETATM   17  C   UNL     1      37.634 -12.877  -1.819  1.00  0.00     0.032 A 
HETATM   18  C   UNL     1      36.788 -12.602  -2.901  1.00  0.00     0.039 A 
HETATM   19  C   UNL     1      36.146 -11.370  -3.016  1.00  0.00     0.068 A 
HETATM   20  C   UNL     1      36.336 -10.414  -2.021  1.00  0.00     0.039 A 
HETATM   21  C   UNL     1      37.174 -10.692  -0.931  1.00  0.00     0.032 A 
BRANCH  19  22
HETATM   22  O   UNL     1      35.366 -11.230  -4.130  1.00  0.00    -0.356 OA
HETATM   23  C   UNL     1      34.176 -12.006  -4.182  1.00  0.00     0.210 C 
ENDBRANCH  19  22
ENDBRANCH  13  16
ENDBRANCH  10  12
BRANCH   1  24
HETATM   24  C   UNL     1      41.413 -14.744   2.408  1.00  0.00    -0.029 A 
HETATM   25  C   UNL     1      40.893 -16.005   2.742  1.00  0.00     0.010 A 
HETATM   26  C   UNL     1      41.666 -17.159   2.606  1.00  0.00     0.007 A 
HETATM   27  C   UNL     1      42.979 -17.084   2.127  1.00  0.00    -0.059 A 
HETATM   28  C   UNL     1      43.505 -15.832   1.792  1.00  0.00     0.007 A 
HETATM   29  C   UNL     1      42.737 -14.673   1.942  1.00  0.00     0.010 A 
BRANCH  27  30
HETATM   30  C   UNL     1      43.822 -18.329   2.006  1.00  0.00     0.034 C 
HETATM   31  C   UNL     1      43.003 -19.602   2.159  1.00  0.00     0.010 C 
ENDBRANCH  27  30
ENDBRANCH   1  24
BRANCH   4  32
HETATM   32  C   UNL     1      42.221 -10.789   6.480  1.00  0.00     0.261 C 
HETATM   33  N   UNL     1      43.177 -11.344   7.310  1.00  0.00    -0.323 N 
HETATM   34  H   UNL     1      43.281 -12.348   7.258  1.00  0.00     0.169 HD
HETATM   35  O   UNL     1      41.888  -9.608   6.457  1.00  0.00    -0.267 OA
BRANCH  33  36
HETATM   36  C   UNL     1      43.958 -10.681   8.282  1.00  0.00     0.035 A 
HETATM   37  C   UNL     1      43.647 -10.649   9.643  1.00  0.00     0.029 A 
HETATM   38  C   UNL     1      44.479  -9.982  10.549  1.00  0.00     0.002 A 
HETATM   39  C   UNL     1      45.625  -9.333  10.099  1.00  0.00     0.000 A 
HETATM   40  C   UNL     1      45.942  -9.354   8.744  1.00  0.00     0.002 A 
HETATM   41  C   UNL     1      45.116 -10.030   7.840  1.00  0.00     0.029 A 
ENDBRANCH  33  36
ENDBRANCH   4  32
TORSDOF 7
ENDMDL
MODEL 2
REMARK VINA RESULT:      -9.0      1.796      9.661
REMARK  7 active torsions:
REMARK  status: ('A' for Active; 'I' for Inactive)
REMARK    1  A    between atoms: C_2  and  C_3 
REMARK    2  A    between atoms: C_6  and  C_7 
REMARK    3  A    between atoms: C_10  and  C_11 
REMARK       I    between atoms: C_11  and  N_12 
REMARK    4  A    between atoms: N_12  and  C_13 
REMARK    5  A    between atoms: C_25  and  C_26 
REMARK       I    between atoms: C_26  and  N_27 
REMARK    6  A    between atoms: N_27  and  C_28 
REMARK    7  A    between atoms: C_31  and  O_32 
ROOT
HETATM    1  C   UNL     1      41.786 -13.057   2.626  1.00  0.00     0.185 C 
HETATM    2  N   UNL     1      40.990 -12.602   1.477  1.00  0.00    -0.239 N 
HETATM    3  C   UNL     1      39.658 -12.272   1.546  1.00  0.00     0.142 A 
HETATM    4  C   UNL     1      39.274 -11.998   0.246  1.00  0.00     0.097 A 
HETATM    5  C   UNL     1      40.488 -12.073  -0.489  1.00  0.00     0.160 A 
HETATM    6  N   UNL     1      41.539 -12.420   0.258  1.00  0.00    -0.181 NA
HETATM    7  N   UNL     1      39.058 -12.244   2.767  1.00  0.00    -0.343 N 
HETATM    8  C   UNL     1      39.796 -12.343   3.958  1.00  0.00     0.021 C 
HETATM    9  C   UNL     1      39.032 -12.005   5.218  1.00  0.00     0.069 C 
HETATM   10  C   UNL     1      41.106 -12.704   3.939  1.00  0.00     0.061 C 
HETATM   11  H   UNL     1      38.191 -11.717   2.887  1.00  0.00     0.167 HD
ENDROOT
BRANCH  10  12
HETATM   12  C   UNL     1      41.977 -12.535   5.150  1.00  0.00     0.256 C 
HETATM   13  N   UNL     1      42.711 -11.367   5.182  1.00  0.00    -0.323 N 
HETATM   14  H   UNL     1      42.715 -10.777   4.361  1.00  0.00     0.169 HD
HETATM   15  O   UNL     1      41.943 -13.383   6.036  1.00  0.00    -0.267 OA
BRANCH  13  16
HETATM   16  C   UNL     1      43.460 -10.856   6.267  1.00  0.00     0.035 A 
HETATM   17  C   UNL     1      42.961  -9.975   7.224  1.00  0.00     0.032 A 
HETATM   18  C   UNL     1      43.793  -9.490   8.241  1.00  0.00     0.039 A 
HETATM   19  C   UNL     1      45.134  -9.866   8.312  1.00  0.00     0.068 A 
HETATM   20  C   UNL     1      45.637 -10.756   7.366  1.00  0.00     0.039 A 
HETATM   21  C   UNL     1      44.802 -11.251   6.354  1.00  0.00     0.032 A 
BRANCH  19  22
HETATM   22  O   UNL     1      45.835  -9.303   9.342  1.00  0.00    -0.356 OA
HETATM   23  C   UNL     1      45.271  -9.424  10.642  1.00  0.00     0.210 C 
ENDBRANCH  19  22
ENDBRANCH  13  16
ENDBRANCH  10  12
BRANCH   1  24
HETATM   24  C   UNL     1      42.083 -14.550   2.448  1.00  0.00    -0.029 A 
HETATM   25  C   UNL     1      41.163 -15.495   2.933  1.00  0.00     0.010 A 
HETATM   26  C   UNL     1      41.414 -16.864   2.821  1.00  0.00     0.007 A 
HETATM   27  C   UNL     1      42.589 -17.325   2.217  1.00  0.00    -0.059 A 
HETATM   28  C   UNL     1      43.510 -16.392   1.731  1.00  0.00     0.007 A 
HETATM   29  C   UNL     1      43.268 -15.019   1.856  1.00  0.00     0.010 A 
BRANCH  27  30
HETATM   30  C   UNL     1      42.870 -18.804   2.121  1.00  0.00     0.034 C 
HETATM   31  C   UNL     1      44.008 -19.239   3.032  1.00  0.00     0.010 C 
ENDBRANCH  27  30
ENDBRANCH   1  24
BRANCH   4  32
HETATM   32  C   UNL     1      37.981 -11.659  -0.324  1.00  0.00     0.261 C 
HETATM   33  N   UNL     1      37.928 -11.737  -1.704  1.00  0.00    -0.323 N 
HETATM   34  H   UNL     1      38.794 -11.972  -2.169  1.00  0.00     0.169 HD
HETATM   35  O   UNL     1      37.063 -11.309   0.410  1.00  0.00    -0.267 OA
BRANCH  33  36
HETATM   36  C   UNL     1      36.829 -11.439  -2.538  1.00  0.00     0.035 A 
HETATM   37  C   UNL     1      36.418 -10.142  -2.855  1.00  0.00     0.029 A 
HETATM   38  C   UNL     1      35.326  -9.927  -3.703  1.00  0.00     0.002 A 
HETATM   39  C   UNL     1      34.628 -11.008  -4.232  1.00  0.00     0.000 A 
HETATM   40  C   UNL     1      35.024 -12.305  -3.919  1.00  0.00     0.002 A 
HETATM   41  C   UNL     1      36.123 -12.520  -3.081  1.00  0.00     0.029 A 
ENDBRANCH  33  36
ENDBRANCH   4  32
TORSDOF 7
ENDMDL
MODEL 3
REMARK VINA RESULT:      -9.0      1.863      9.684
REMARK  7 active torsions:
REMARK  status: ('A' for Active; 'I' for Inactive)
REMARK    1  A    between atoms: C_2  and  C_3 
REMARK    2  A    between atoms: C_6  and  C_7 
REMARK    3  A    between atoms: C_10  and  C_11 
REMARK       I    between atoms: C_11  and  N_12 
REMARK    4  A    between atoms: N_12  and  C_13 
REMARK    5  A    between atoms: C_25  and  C_26 
REMARK       I    between atoms: C_26  and  N_27 
REMARK    6  A    between atoms: N_27  and  C_28 
REMARK    7  A    between atoms: C_31  and  O_32 
ROOT
HETATM    1  C   UNL     1      41.345 -12.488   1.225  1.00  0.00     0.185 C 
HETATM    2  N   UNL     1      40.548 -12.473  -0.009  1.00  0.00    -0.239 N 
HETATM    3  C   UNL     1      39.208 -12.169  -0.057  1.00  0.00     0.142 A 
HETATM    4  C   UNL     1      38.828 -12.368  -1.372  1.00  0.00     0.097 A 
HETATM    5  C   UNL     1      40.048 -12.666  -2.036  1.00  0.00     0.160 A 
HETATM    6  N   UNL     1      41.101 -12.711  -1.217  1.00  0.00    -0.181 NA
HETATM    7  N   UNL     1      38.599 -11.734   1.080  1.00  0.00    -0.343 N 
HETATM    8  C   UNL     1      39.332 -11.400   2.231  1.00  0.00     0.021 C 
HETATM    9  C   UNL     1      38.553 -10.665   3.298  1.00  0.00     0.069 C 
HETATM   10  C   UNL     1      40.649 -11.718   2.337  1.00  0.00     0.061 C 
HETATM   11  H   UNL     1      37.721 -11.217   1.011  1.00  0.00     0.167 HD
ENDROOT
BRANCH  10  12
HETATM   12  C   UNL     1      41.509 -11.123   3.414  1.00  0.00     0.256 C 
HETATM   13  N   UNL     1      41.659 -11.906   4.540  1.00  0.00    -0.323 N 
HETATM   14  H   UNL     1      41.100 -12.745   4.622  1.00  0.00     0.169 HD
HETATM   15  O   UNL     1      42.057 -10.043   3.216  1.00  0.00    -0.267 OA
BRANCH  13  16
HETATM   16  C   UNL     1      42.548 -11.694   5.618  1.00  0.00     0.035 A 
HETATM   17  C   UNL     1      42.403 -10.691   6.574  1.00  0.00     0.032 A 
HETATM   18  C   UNL     1      43.360 -10.533   7.584  1.00  0.00     0.039 A 
HETATM   19  C   UNL     1      44.479 -11.362   7.649  1.00  0.00     0.068 A 
HETATM   20  C   UNL     1      44.624 -12.375   6.705  1.00  0.00     0.039 A 
HETATM   21  C   UNL     1      43.661 -12.542   5.699  1.00  0.00     0.032 A 
BRANCH  19  22
HETATM   22  O   UNL     1      45.341 -11.085   8.674  1.00  0.00    -0.356 OA
HETATM   23  C   UNL     1      44.946 -10.070   9.588  1.00  0.00     0.210 C 
ENDBRANCH  19  22
ENDBRANCH  13  16
ENDBRANCH  10  12
BRANCH   1  24
HETATM   24  C   UNL     1      41.674 -13.944   1.573  1.00  0.00    -0.029 A 
HETATM   25  C   UNL     1      43.014 -14.317   1.768  1.00  0.00     0.010 A 
HETATM   26  C   UNL     1      43.356 -15.640   2.053  1.00  0.00     0.007 A 
HETATM   27  C   UNL     1      42.367 -16.625   2.155  1.00  0.00    -0.059 A 
HETATM   28  C   UNL     1      41.030 -16.262   1.963  1.00  0.00     0.007 A 
HETATM   29  C   UNL     1      40.686 -14.940   1.663  1.00  0.00     0.010 A 
BRANCH  27  30
HETATM   30  C   UNL     1      42.741 -18.059   2.436  1.00  0.00     0.034 C 
HETATM   31  C   UNL     1      43.879 -18.176   3.438  1.00  0.00     0.010 C 
ENDBRANCH  27  30
ENDBRANCH   1  24
BRANCH   4  32
HETATM   32  C   UNL     1      37.531 -12.275  -2.022  1.00  0.00     0.261 C 
HETATM   33  N   UNL     1      36.986 -11.004  -2.027  1.00  0.00    -0.323 N 
HETATM   34  H   UNL     1      37.516 -10.292  -1.544  1.00  0.00     0.169 HD
HETATM   35  O   UNL     1      37.004 -13.284  -2.479  1.00  0.00    -0.267 OA
BRANCH  33  36
HETATM   36  C   UNL     1      35.736 -10.610  -2.551  1.00  0.00     0.035 A 
HETATM   37  C   UNL     1      35.178 -11.133  -3.720  1.00  0.00     0.029 A 
HETATM   38  C   UNL     1      33.926 -10.701  -4.168  1.00  0.00     0.002 A 
HETATM   39  C   UNL     1      33.223  -9.734  -3.455  1.00  0.00     0.000 A 
HETATM   40  C   UNL     1      33.770  -9.202  -2.292  1.00  0.00     0.002 A 
HETATM   41  C   UNL     1      35.018  -9.642  -1.838  1.00  0.00     0.029 A 
ENDBRANCH  33  36
ENDBRANCH   4  32
TORSDOF 7
ENDMDL
MODEL 4
REMARK VINA RESULT:      -8.9      4.317     10.747
REMARK  7 active torsions:
REMARK  status: ('A' for Active; 'I' for Inactive)
REMARK    1  A    between atoms: C_2  and  C_3 
REMARK    2  A    between atoms: C_6  and  C_7 
REMARK    3  A    between atoms: C_10  and  C_11 
REMARK       I    between atoms: C_11  and  N_12 
REMARK    4  A    between atoms: N_12  and  C_13 
REMARK    5  A    between atoms: C_25  and  C_26 
REMARK       I    between atoms: C_26  and  N_27 
REMARK    6  A    between atoms: N_27  and  C_28 
REMARK    7  A    between atoms: C_31  and  O_32 
ROOT
HETATM    1  C   UNL     1      40.893 -10.307   6.705  1.00  0.00     0.185 C 
HETATM    2  N   UNL     1      40.920 -11.565   5.947  1.00  0.00    -0.239 N 
HETATM    3  C   UNL     1      42.072 -12.205   5.558  1.00  0.00     0.142 A 
HETATM    4  C   UNL     1      41.661 -13.280   4.791  1.00  0.00     0.097 A 
HETATM    5  C   UNL     1      40.245 -13.252   4.901  1.00  0.00     0.160 A 
HETATM    6  N   UNL     1      39.788 -12.224   5.619  1.00  0.00    -0.181 NA
HETATM    7  N   UNL     1      43.266 -11.720   5.998  1.00  0.00    -0.343 N 
HETATM    8  C   UNL     1      43.341 -10.724   6.986  1.00  0.00     0.021 C 
HETATM    9  C   UNL     1      44.716 -10.503   7.573  1.00  0.00     0.069 C 
HETATM   10  C   UNL     1      42.233 -10.040   7.374  1.00  0.00     0.061 C 
HETATM   11  H   UNL     1      44.086 -12.328   5.992  1.00  0.00     0.167 HD
ENDROOT
BRANCH  10  12
HETATM   12  C   UNL     1      42.235  -9.192   8.612  1.00  0.00     0.256 C 
HETATM   13  N   UNL     1      41.957  -9.868   9.783  1.00  0.00    -0.323 N 
HETATM   14  H   UNL     1      41.654 -10.830   9.723  1.00  0.00     0.169 HD
HETATM   15  O   UNL     1      42.533  -8.005   8.525  1.00  0.00    -0.267 OA
BRANCH  13  16
HETATM   16  C   UNL     1      42.074  -9.377  11.103  1.00  0.00     0.035 A 
HETATM   17  C   UNL     1      43.162  -8.649  11.580  1.00  0.00     0.032 A 
HETATM   18  C   UNL     1      43.207  -8.240  12.919  1.00  0.00     0.039 A 
HETATM   19  C   UNL     1      42.177  -8.559  13.803  1.00  0.00     0.068 A 
HETATM   20  C   UNL     1      41.080  -9.276  13.330  1.00  0.00     0.039 A 
HETATM   21  C   UNL     1      41.028  -9.676  11.987  1.00  0.00     0.032 A 
BRANCH  19  22
HETATM   22  O   UNL     1      42.359  -8.114  15.082  1.00  0.00    -0.356 OA
HETATM   23  C   UNL     1      41.192  -7.958  15.880  1.00  0.00     0.210 C 
ENDBRANCH  19  22
ENDBRANCH  13  16
ENDBRANCH  10  12
BRANCH   1  24
HETATM   24  C   UNL     1      40.417  -9.188   5.772  1.00  0.00    -0.029 A 
HETATM   25  C   UNL     1      41.328  -8.614   4.870  1.00  0.00     0.010 A 
HETATM   26  C   UNL     1      40.941  -7.570   4.028  1.00  0.00     0.007 A 
HETATM   27  C   UNL     1      39.633  -7.074   4.062  1.00  0.00    -0.059 A 
HETATM   28  C   UNL     1      38.720  -7.641   4.956  1.00  0.00     0.007 A 
HETATM   29  C   UNL     1      39.108  -8.677   5.812  1.00  0.00     0.010 A 
BRANCH  27  30
HETATM   30  C   UNL     1      39.225  -5.929   3.170  1.00  0.00     0.034 C 
HETATM   31  C   UNL     1      39.442  -6.234   1.696  1.00  0.00     0.010 C 
ENDBRANCH  27  30
ENDBRANCH   1  24
BRANCH   4  32
HETATM   32  C   UNL     1      42.415 -14.280   4.053  1.00  0.00     0.261 C 
HETATM   33  N   UNL     1      42.168 -15.583   4.443  1.00  0.00    -0.323 N 
HETATM   34  H   UNL     1      41.534 -15.701   5.221  1.00  0.00     0.169 HD
HETATM   35  O   UNL     1      43.214 -13.928   3.191  1.00  0.00    -0.267 OA
BRANCH  33  36
HETATM   36  C   UNL     1      42.768 -16.757   3.939  1.00  0.00     0.035 A 
HETATM   37  C   UNL     1      42.437 -17.339   2.713  1.00  0.00     0.029 A 
HETATM   38  C   UNL     1      43.088 -18.497   2.275  1.00  0.00     0.002 A 
HETATM   39  C   UNL     1      44.069 -19.090   3.064  1.00  0.00     0.000 A 
HETATM   40  C   UNL     1      44.404 -18.523   4.290  1.00  0.00     0.002 A 
HETATM   41  C   UNL     1      43.761 -17.358   4.723  1.00  0.00     0.029 A 
ENDBRANCH  33  36
ENDBRANCH   4  32
TORSDOF 7
ENDMDL
MODEL 5
REMARK VINA RESULT:      -8.9      4.332     10.366
REMARK  7 active torsions:
REMARK  status: ('A' for Active; 'I' for Inactive)
REMARK    1  A    between atoms: C_2  and  C_3 
REMARK    2  A    between atoms: C_6  and  C_7 
REMARK    3  A    between atoms: C_10  and  C_11 
REMARK       I    between atoms: C_11  and  N_12 
REMARK    4  A    between atoms: N_12  and  C_13 
REMARK    5  A    between atoms: C_25  and  C_26 
REMARK       I    between atoms: C_26  and  N_27 
REMARK    6  A    between atoms: N_27  and  C_28 
REMARK    7  A    between atoms: C_31  and  O_32 
ROOT
HETATM    1  C   UNL     1      41.579 -11.302   6.315  1.00  0.00     0.185 C 
HETATM    2  N   UNL     1      41.639 -12.732   5.984  1.00  0.00    -0.239 N 
HETATM    3  C   UNL     1      42.802 -13.461   5.926  1.00  0.00     0.142 A 
HETATM    4  C   UNL     1      42.433 -14.719   5.488  1.00  0.00     0.097 A 
HETATM    5  C   UNL     1      41.014 -14.658   5.440  1.00  0.00     0.160 A 
HETATM    6  N   UNL     1      40.524 -13.459   5.761  1.00  0.00    -0.181 NA
HETATM    7  N   UNL     1      43.963 -12.865   6.316  1.00  0.00    -0.343 N 
HETATM    8  C   UNL     1      43.975 -11.614   6.955  1.00  0.00     0.021 C 
HETATM    9  C   UNL     1      45.294 -11.225   7.581  1.00  0.00     0.069 C 
HETATM   10  C   UNL     1      42.857 -10.843   7.001  1.00  0.00     0.061 C 
HETATM   11  H   UNL     1      44.760 -13.446   6.578  1.00  0.00     0.167 HD
ENDROOT
BRANCH  10  12
HETATM   12  C   UNL     1      42.767  -9.656   7.915  1.00  0.00     0.256 C 
HETATM   13  N   UNL     1      42.343  -9.938   9.198  1.00  0.00    -0.323 N 
HETATM   14  H   UNL     1      42.008 -10.870   9.401  1.00  0.00     0.169 HD
HETATM   15  O   UNL     1      43.121  -8.556   7.505  1.00  0.00    -0.267 OA
BRANCH  13  16
HETATM   16  C   UNL     1      42.345  -9.066  10.311  1.00  0.00     0.035 A 
HETATM   17  C   UNL     1      41.391  -8.077  10.538  1.00  0.00     0.032 A 
HETATM   18  C   UNL     1      41.499  -7.232  11.650  1.00  0.00     0.039 A 
HETATM   19  C   UNL     1      42.563  -7.353  12.543  1.00  0.00     0.068 A 
HETATM   20  C   UNL     1      43.513  -8.349  12.329  1.00  0.00     0.039 A 
HETATM   21  C   UNL     1      43.400  -9.202  11.222  1.00  0.00     0.032 A 
BRANCH  19  22
HETATM   22  O   UNL     1      42.555  -6.453  13.572  1.00  0.00    -0.356 OA
HETATM   23  C   UNL     1      42.696  -6.979  14.886  1.00  0.00     0.210 C 
ENDBRANCH  19  22
ENDBRANCH  13  16
ENDBRANCH  10  12
BRANCH   1  24
HETATM   24  C   UNL     1      41.230 -10.523   5.042  1.00  0.00    -0.029 A 
HETATM   25  C   UNL     1      40.170  -9.602   5.070  1.00  0.00     0.010 A 
HETATM   26  C   UNL     1      39.800  -8.899   3.922  1.00  0.00     0.007 A 
HETATM   27  C   UNL     1      40.482  -9.095   2.716  1.00  0.00    -0.059 A 
HETATM   28  C   UNL     1      41.538 -10.010   2.679  1.00  0.00     0.007 A 
HETATM   29  C   UNL     1      41.902 -10.727   3.824  1.00  0.00     0.010 A 
BRANCH  27  30
HETATM   30  C   UNL     1      40.063  -8.354   1.471  1.00  0.00     0.034 C 
HETATM   31  C   UNL     1      40.618  -6.939   1.423  1.00  0.00     0.010 C 
ENDBRANCH  27  30
ENDBRANCH   1  24
BRANCH   4  32
HETATM   32  C   UNL     1      43.222 -15.898   5.170  1.00  0.00     0.261 C 
HETATM   33  N   UNL     1      42.581 -16.809   4.351  1.00  0.00    -0.323 N 
HETATM   34  H   UNL     1      41.627 -16.588   4.101  1.00  0.00     0.169 HD
HETATM   35  O   UNL     1      44.344 -16.028   5.648  1.00  0.00    -0.267 OA
BRANCH  33  36
HETATM   36  C   UNL     1      43.075 -18.053   3.901  1.00  0.00     0.035 A 
HETATM   37  C   UNL     1      43.716 -18.983   4.724  1.00  0.00     0.029 A 
HETATM   38  C   UNL     1      44.165 -20.202   4.206  1.00  0.00     0.002 A 
HETATM   39  C   UNL     1      43.987 -20.499   2.858  1.00  0.00     0.000 A 
HETATM   40  C   UNL     1      43.355 -19.578   2.027  1.00  0.00     0.002 A 
HETATM   41  C   UNL     1      42.895 -18.363   2.548  1.00  0.00     0.029 A 
ENDBRANCH  33  36
ENDBRANCH   4  32
TORSDOF 7
ENDMDL
MODEL 6
REMARK VINA RESULT:      -8.8      3.528      7.368
REMARK  7 active torsions:
REMARK  status: ('A' for Active; 'I' for Inactive)
REMARK    1  A    between atoms: C_2  and  C_3 
REMARK    2  A    between atoms: C_6  and  C_7 
REMARK    3  A    between atoms: C_10  and  C_11 
REMARK       I    between atoms: C_11  and  N_12 
REMARK    4  A    between atoms: N_12  and  C_13 
REMARK    5  A    between atoms: C_25  and  C_26 
REMARK       I    between atoms: C_26  and  N_27 
REMARK    6  A    between atoms: N_27  and  C_28 
REMARK    7  A    between atoms: C_31  and  O_32 
ROOT
HETATM    1  C   UNL     1      41.593 -11.122   2.320  1.00  0.00     0.185 C 
HETATM    2  N   UNL     1      42.111 -12.396   2.838  1.00  0.00    -0.239 N 
HETATM    3  C   UNL     1      41.593 -13.627   2.513  1.00  0.00     0.142 A 
HETATM    4  C   UNL     1      42.292 -14.540   3.281  1.00  0.00     0.097 A 
HETATM    5  C   UNL     1      43.284 -13.752   3.925  1.00  0.00     0.160 A 
HETATM    6  N   UNL     1      43.192 -12.451   3.643  1.00  0.00    -0.181 NA
HETATM    7  N   UNL     1      40.619 -13.693   1.564  1.00  0.00    -0.343 N 
HETATM    8  C   UNL     1      40.278 -12.582   0.775  1.00  0.00     0.021 C 
HETATM    9  C   UNL     1      39.400 -12.885  -0.417  1.00  0.00     0.069 C 
HETATM   10  C   UNL     1      40.737 -11.340   1.082  1.00  0.00     0.061 C 
HETATM   11  H   UNL     1      40.443 -14.579   1.089  1.00  0.00     0.167 HD
ENDROOT
BRANCH  10  12
HETATM   12  C   UNL     1      40.628 -10.207   0.104  1.00  0.00     0.256 C 
HETATM   13  N   UNL     1      41.656 -10.126  -0.813  1.00  0.00    -0.323 N 
HETATM   14  H   UNL     1      42.455 -10.735  -0.697  1.00  0.00     0.169 HD
HETATM   15  O   UNL     1      39.640  -9.481   0.136  1.00  0.00    -0.267 OA
BRANCH  13  16
HETATM   16  C   UNL     1      41.723  -9.293  -1.953  1.00  0.00     0.035 A 
HETATM   17  C   UNL     1      42.486  -8.130  -2.036  1.00  0.00     0.032 A 
HETATM   18  C   UNL     1      42.456  -7.346  -3.196  1.00  0.00     0.039 A 
HETATM   19  C   UNL     1      41.658  -7.701  -4.283  1.00  0.00     0.068 A 
HETATM   20  C   UNL     1      40.903  -8.869  -4.212  1.00  0.00     0.039 A 
HETATM   21  C   UNL     1      40.940  -9.661  -3.056  1.00  0.00     0.032 A 
BRANCH  19  22
HETATM   22  O   UNL     1      41.711  -6.837  -5.341  1.00  0.00    -0.356 OA
HETATM   23  C   UNL     1      42.995  -6.349  -5.708  1.00  0.00     0.210 C 
ENDBRANCH  19  22
ENDBRANCH  13  16
ENDBRANCH  10  12
BRANCH   1  24
HETATM   24  C   UNL     1      40.878 -10.390   3.462  1.00  0.00    -0.029 A 
HETATM   25  C   UNL     1      41.546  -9.356   4.138  1.00  0.00     0.010 A 
HETATM   26  C   UNL     1      40.942  -8.689   5.205  1.00  0.00     0.007 A 
HETATM   27  C   UNL     1      39.652  -9.035   5.622  1.00  0.00    -0.059 A 
HETATM   28  C   UNL     1      38.980 -10.063   4.955  1.00  0.00     0.007 A 
HETATM   29  C   UNL     1      39.589 -10.743   3.895  1.00  0.00     0.010 A 
BRANCH  27  30
HETATM   30  C   UNL     1      39.012  -8.331   6.792  1.00  0.00     0.034 C 
HETATM   31  C   UNL     1      39.889  -8.353   8.035  1.00  0.00     0.010 C 
ENDBRANCH  27  30
ENDBRANCH   1  24
BRANCH   4  32
HETATM   32  C   UNL     1      42.154 -15.980   3.427  1.00  0.00     0.261 C 
HETATM   33  N   UNL     1      43.346 -16.677   3.350  1.00  0.00    -0.323 N 
HETATM   34  H   UNL     1      44.171 -16.127   3.155  1.00  0.00     0.169 HD
HETATM   35  O   UNL     1      41.041 -16.475   3.571  1.00  0.00    -0.267 OA
BRANCH  33  36
HETATM   36  C   UNL     1      43.527 -18.075   3.422  1.00  0.00     0.035 A 
HETATM   37  C   UNL     1      43.991 -18.746   4.556  1.00  0.00     0.029 A 
HETATM   38  C   UNL     1      44.130 -20.138   4.555  1.00  0.00     0.002 A 
HETATM   39  C   UNL     1      43.817 -20.871   3.414  1.00  0.00     0.000 A 
HETATM   40  C   UNL     1      43.359 -20.214   2.276  1.00  0.00     0.002 A 
HETATM   41  C   UNL     1      43.208 -18.823   2.282  1.00  0.00     0.029 A 
ENDBRANCH  33  36
ENDBRANCH   4  32
TORSDOF 7
ENDMDL
MODEL 7
REMARK VINA RESULT:      -8.7      4.271     11.815
REMARK  7 active torsions:
REMARK  status: ('A' for Active; 'I' for Inactive)
REMARK    1  A    between atoms: C_2  and  C_3 
REMARK    2  A    between atoms: C_6  and  C_7 
REMARK    3  A    between atoms: C_10  and  C_11 
REMARK       I    between atoms: C_11  and  N_12 
REMARK    4  A    between atoms: N_12  and  C_13 
REMARK    5  A    between atoms: C_25  and  C_26 
REMARK       I    between atoms: C_26  and  N_27 
REMARK    6  A    between atoms: N_27  and  C_28 
REMARK    7  A    between atoms: C_31  and  O_32 
ROOT
HETATM    1  C   UNL     1      38.472 -11.004  -1.444  1.00  0.00     0.185 C 
HETATM    2  N   UNL     1      37.161 -10.826  -2.084  1.00  0.00    -0.239 N 
HETATM    3  C   UNL     1      36.596 -11.733  -2.949  1.00  0.00     0.142 A 
HETATM    4  C   UNL     1      35.427 -11.144  -3.395  1.00  0.00     0.097 A 
HETATM    5  C   UNL     1      35.338  -9.948  -2.633  1.00  0.00     0.160 A 
HETATM    6  N   UNL     1      36.379  -9.759  -1.819  1.00  0.00    -0.181 NA
HETATM    7  N   UNL     1      37.221 -12.927  -3.138  1.00  0.00    -0.343 N 
HETATM    8  C   UNL     1      38.300 -13.334  -2.335  1.00  0.00     0.021 C 
HETATM    9  C   UNL     1      38.692 -14.787  -2.472  1.00  0.00     0.069 C 
HETATM   10  C   UNL     1      38.913 -12.459  -1.495  1.00  0.00     0.061 C 
HETATM   11  H   UNL     1      36.690 -13.717  -3.509  1.00  0.00     0.167 HD
ENDROOT
BRANCH  10  12
HETATM   12  C   UNL     1      39.860 -12.936  -0.432  1.00  0.00     0.256 C 
HETATM   13  N   UNL     1      39.265 -13.577   0.635  1.00  0.00    -0.323 N 
HETATM   14  H   UNL     1      38.256 -13.575   0.697  1.00  0.00     0.169 HD
HETATM   15  O   UNL     1      41.067 -12.788  -0.595  1.00  0.00    -0.267 OA
BRANCH  13  16
HETATM   16  C   UNL     1      39.909 -14.287   1.674  1.00  0.00     0.035 A 
HETATM   17  C   UNL     1      40.138 -13.779   2.951  1.00  0.00     0.032 A 
HETATM   18  C   UNL     1      40.823 -14.545   3.904  1.00  0.00     0.039 A 
HETATM   19  C   UNL     1      41.297 -15.819   3.595  1.00  0.00     0.068 A 
HETATM   20  C   UNL     1      41.060 -16.338   2.325  1.00  0.00     0.039 A 
HETATM   21  C   UNL     1      40.365 -15.577   1.373  1.00  0.00     0.032 A 
BRANCH  19  22
HETATM   22  O   UNL     1      41.963 -16.446   4.612  1.00  0.00    -0.356 OA
HETATM   23  C   UNL     1      43.200 -17.066   4.283  1.00  0.00     0.210 C 
ENDBRANCH  19  22
ENDBRANCH  13  16
ENDBRANCH  10  12
BRANCH   1  24
HETATM   24  C   UNL     1      39.460 -10.021  -2.081  1.00  0.00    -0.029 A 
HETATM   25  C   UNL     1      39.908 -10.250  -3.392  1.00  0.00     0.010 A 
HETATM   26  C   UNL     1      40.834  -9.396  -3.994  1.00  0.00     0.007 A 
HETATM   27  C   UNL     1      41.334  -8.287  -3.302  1.00  0.00    -0.059 A 
HETATM   28  C   UNL     1      40.894  -8.052  -1.996  1.00  0.00     0.007 A 
HETATM   29  C   UNL     1      39.977  -8.914  -1.385  1.00  0.00     0.010 A 
BRANCH  27  30
HETATM   30  C   UNL     1      42.355  -7.381  -3.944  1.00  0.00     0.034 C 
HETATM   31  C   UNL     1      43.221  -6.664  -2.920  1.00  0.00     0.010 C 
ENDBRANCH  27  30
ENDBRANCH   1  24
BRANCH   4  32
HETATM   32  C   UNL     1      34.440 -11.582  -4.368  1.00  0.00     0.261 C 
HETATM   33  N   UNL     1      34.808 -11.379  -5.685  1.00  0.00    -0.323 N 
HETATM   34  H   UNL     1      35.692 -10.910  -5.832  1.00  0.00     0.169 HD
HETATM   35  O   UNL     1      33.374 -12.054  -3.985  1.00  0.00    -0.267 OA
BRANCH  33  36
HETATM   36  C   UNL     1      34.051 -11.668  -6.841  1.00  0.00     0.035 A 
HETATM   37  C   UNL     1      33.026 -10.854  -7.328  1.00  0.00     0.029 A 
HETATM   38  C   UNL     1      32.331 -11.202  -8.491  1.00  0.00     0.002 A 
HETATM   39  C   UNL     1      32.648 -12.374  -9.172  1.00  0.00     0.000 A 
HETATM   40  C   UNL     1      33.664 -13.195  -8.694  1.00  0.00     0.002 A 
HETATM   41  C   UNL     1      34.367 -12.842  -7.537  1.00  0.00     0.029 A 
ENDBRANCH  33  36
ENDBRANCH   4  32
TORSDOF 7
ENDMDL
MODEL 8
REMARK VINA RESULT:      -8.6      2.903      7.127
REMARK  7 active torsions:
REMARK  status: ('A' for Active; 'I' for Inactive)
REMARK    1  A    between atoms: C_2  and  C_3 
REMARK    2  A    between atoms: C_6  and  C_7 
REMARK    3  A    between atoms: C_10  and  C_11 
REMARK       I    between atoms: C_11  and  N_12 
REMARK    4  A    between atoms: N_12  and  C_13 
REMARK    5  A    between atoms: C_25  and  C_26 
REMARK       I    between atoms: C_26  and  N_27 
REMARK    6  A    between atoms: N_27  and  C_28 
REMARK    7  A    between atoms: C_31  and  O_32 
ROOT
HETATM    1  C   UNL     1      41.067 -12.070   3.764  1.00  0.00     0.185 C 
HETATM    2  N   UNL     1      41.346 -10.968   4.696  1.00  0.00    -0.239 N 
HETATM    3  C   UNL     1      41.006 -10.981   6.027  1.00  0.00     0.142 A 
HETATM    4  C   UNL     1      41.349  -9.732   6.512  1.00  0.00     0.097 A 
HETATM    5  C   UNL     1      41.999  -9.109   5.413  1.00  0.00     0.160 A 
HETATM    6  N   UNL     1      42.019  -9.863   4.311  1.00  0.00    -0.181 NA
HETATM    7  N   UNL     1      40.490 -12.125   6.555  1.00  0.00    -0.343 N 
HETATM    8  C   UNL     1      40.484 -13.334   5.840  1.00  0.00     0.021 C 
HETATM    9  C   UNL     1      40.152 -14.562   6.655  1.00  0.00     0.069 C 
HETATM   10  C   UNL     1      40.775 -13.361   4.513  1.00  0.00     0.061 C 
HETATM   11  H   UNL     1      40.522 -12.269   7.566  1.00  0.00     0.167 HD
ENDROOT
BRANCH  10  12
HETATM   12  C   UNL     1      41.056 -14.654   3.804  1.00  0.00     0.256 C 
HETATM   13  N   UNL     1      42.335 -15.145   3.971  1.00  0.00    -0.323 N 
HETATM   14  H   UNL     1      43.018 -14.563   4.437  1.00  0.00     0.169 HD
HETATM   15  O   UNL     1      40.151 -15.210   3.191  1.00  0.00    -0.267 OA
BRANCH  13  16
HETATM   16  C   UNL     1      42.821 -16.415   3.586  1.00  0.00     0.035 A 
HETATM   17  C   UNL     1      42.604 -16.998   2.340  1.00  0.00     0.032 A 
HETATM   18  C   UNL     1      43.092 -18.282   2.064  1.00  0.00     0.039 A 
HETATM   19  C   UNL     1      43.791 -19.006   3.028  1.00  0.00     0.068 A 
HETATM   20  C   UNL     1      44.024 -18.425   4.273  1.00  0.00     0.039 A 
HETATM   21  C   UNL     1      43.545 -17.136   4.546  1.00  0.00     0.032 A 
BRANCH  19  22
HETATM   22  O   UNL     1      44.193 -20.251   2.632  1.00  0.00    -0.356 OA
HETATM   23  C   UNL     1      44.013 -21.311   3.563  1.00  0.00     0.210 C 
ENDBRANCH  19  22
ENDBRANCH  13  16
ENDBRANCH  10  12
BRANCH   1  24
HETATM   24  C   UNL     1      39.954 -11.627   2.808  1.00  0.00    -0.029 A 
HETATM   25  C   UNL     1      40.036 -11.976   1.450  1.00  0.00     0.010 A 
HETATM   26  C   UNL     1      39.060 -11.562   0.543  1.00  0.00     0.007 A 
HETATM   27  C   UNL     1      37.972 -10.791   0.969  1.00  0.00    -0.059 A 
HETATM   28  C   UNL     1      37.882 -10.440   2.319  1.00  0.00     0.007 A 
HETATM   29  C   UNL     1      38.867 -10.840   3.228  1.00  0.00     0.010 A 
BRANCH  27  30
HETATM   30  C   UNL     1      36.932 -10.323  -0.018  1.00  0.00     0.034 C 
HETATM   31  C   UNL     1      35.779  -9.595   0.655  1.00  0.00     0.010 C 
ENDBRANCH  27  30
ENDBRANCH   1  24
BRANCH   4  32
HETATM   32  C   UNL     1      41.174  -9.127   7.822  1.00  0.00     0.261 C 
HETATM   33  N   UNL     1      41.969  -9.672   8.813  1.00  0.00    -0.323 N 
HETATM   34  H   UNL     1      42.547 -10.455   8.538  1.00  0.00     0.169 HD
HETATM   35  O   UNL     1      40.347  -8.234   7.976  1.00  0.00    -0.267 OA
BRANCH  33  36
HETATM   36  C   UNL     1      41.998  -9.320  10.180  1.00  0.00     0.035 A 
HETATM   37  C   UNL     1      40.972  -9.608  11.083  1.00  0.00     0.029 A 
HETATM   38  C   UNL     1      41.081  -9.238  12.427  1.00  0.00     0.002 A 
HETATM   39  C   UNL     1      42.214  -8.568  12.879  1.00  0.00     0.000 A 
HETATM   40  C   UNL     1      43.241  -8.271  11.988  1.00  0.00     0.002 A 
HETATM   41  C   UNL     1      43.137  -8.651  10.646  1.00  0.00     0.029 A 
ENDBRANCH  33  36
ENDBRANCH   4  32
TORSDOF 7
ENDMDL
MODEL 9
REMARK VINA RESULT:      -8.5      4.002      6.975
REMARK  7 active torsions:
REMARK  status: ('A' for Active; 'I' for Inactive)
REMARK    1  A    between atoms: C_2  and  C_3 
REMARK    2  A    between atoms: C_6  and  C_7 
REMARK    3  A    between atoms: C_10  and  C_11 
REMARK       I    between atoms: C_11  and  N_12 
REMARK    4  A    between atoms: N_12  and  C_13 
REMARK    5  A    between atoms: C_25  and  C_26 
REMARK       I    between atoms: C_26  and  N_27 
REMARK    6  A    between atoms: N_27  and  C_28 
REMARK    7  A    between atoms: C_31  and  O_32 
ROOT
HETATM    1  C   UNL     1      41.370 -11.819   0.943  1.00  0.00     0.185 C 
HETATM    2  N   UNL     1      41.937 -12.854   1.819  1.00  0.00    -0.239 N 
HETATM    3  C   UNL     1      41.551 -14.173   1.802  1.00  0.00     0.142 A 
HETATM    4  C   UNL     1      42.245 -14.777   2.834  1.00  0.00     0.097 A 
HETATM    5  C   UNL     1      43.104 -13.751   3.311  1.00  0.00     0.160 A 
HETATM    6  N   UNL     1      42.936 -12.585   2.685  1.00  0.00    -0.181 NA
HETATM    7  N   UNL     1      40.682 -14.583   0.838  1.00  0.00    -0.343 N 
HETATM    8  C   UNL     1      40.331 -13.758  -0.243  1.00  0.00     0.021 C 
HETATM    9  C   UNL     1      39.598 -14.450  -1.369  1.00  0.00     0.069 C 
HETATM   10  C   UNL     1      40.658 -12.439  -0.250  1.00  0.00     0.061 C 
HETATM   11  H   UNL     1      40.623 -15.577   0.607  1.00  0.00     0.167 HD
ENDROOT
BRANCH  10  12
HETATM   12  C   UNL     1      40.553 -11.618  -1.502  1.00  0.00     0.256 C 
HETATM   13  N   UNL     1      39.523 -10.700  -1.513  1.00  0.00    -0.323 N 
HETATM   14  H   UNL     1      38.848 -10.723  -0.760  1.00  0.00     0.169 HD
HETATM   15  O   UNL     1      41.394 -11.760  -2.384  1.00  0.00    -0.267 OA
BRANCH  13  16
HETATM   16  C   UNL     1      39.299  -9.676  -2.461  1.00  0.00     0.035 A 
HETATM   17  C   UNL     1      39.731  -8.360  -2.317  1.00  0.00     0.032 A 
HETATM   18  C   UNL     1      39.425  -7.403  -3.293  1.00  0.00     0.039 A 
HETATM   19  C   UNL     1      38.675  -7.741  -4.419  1.00  0.00     0.068 A 
HETATM   20  C   UNL     1      38.250  -9.058  -4.576  1.00  0.00     0.039 A 
HETATM   21  C   UNL     1      38.565 -10.019  -3.605  1.00  0.00     0.032 A 
BRANCH  19  22
HETATM   22  O   UNL     1      38.434  -6.707  -5.280  1.00  0.00    -0.356 OA
HETATM   23  C   UNL     1      39.204  -6.674  -6.475  1.00  0.00     0.210 C 
ENDBRANCH  19  22
ENDBRANCH  13  16
ENDBRANCH  10  12
BRANCH   1  24
HETATM   24  C   UNL     1      40.494 -10.891   1.791  1.00  0.00    -0.029 A 
HETATM   25  C   UNL     1      39.453 -11.442   2.557  1.00  0.00     0.010 A 
HETATM   26  C   UNL     1      38.612 -10.627   3.316  1.00  0.00     0.007 A 
HETATM   27  C   UNL     1      38.791  -9.239   3.333  1.00  0.00    -0.059 A 
HETATM   28  C   UNL     1      39.824  -8.682   2.574  1.00  0.00     0.007 A 
HETATM   29  C   UNL     1      40.659  -9.495   1.800  1.00  0.00     0.010 A 
BRANCH  27  30
HETATM   30  C   UNL     1      37.864  -8.358   4.133  1.00  0.00     0.034 C 
HETATM   31  C   UNL     1      37.079  -7.394   3.256  1.00  0.00     0.010 C 
ENDBRANCH  27  30
ENDBRANCH   1  24
BRANCH   4  32
HETATM   32  C   UNL     1      42.208 -16.135   3.352  1.00  0.00     0.261 C 
HETATM   33  N   UNL     1      43.327 -16.890   3.051  1.00  0.00    -0.323 N 
HETATM   34  H   UNL     1      44.022 -16.441   2.470  1.00  0.00     0.169 HD
HETATM   35  O   UNL     1      41.223 -16.527   3.968  1.00  0.00    -0.267 OA
BRANCH  33  36
HETATM   36  C   UNL     1      43.565 -18.241   3.385  1.00  0.00     0.035 A 
HETATM   37  C   UNL     1      43.953 -18.674   4.655  1.00  0.00     0.029 A 
HETATM   38  C   UNL     1      44.156 -20.034   4.913  1.00  0.00     0.002 A 
HETATM   39  C   UNL     1      43.983 -20.972   3.899  1.00  0.00     0.000 A 
HETATM   40  C   UNL     1      43.602 -20.552   2.629  1.00  0.00     0.002 A 
HETATM   41  C   UNL     1      43.387 -19.193   2.374  1.00  0.00     0.029 A 
ENDBRANCH  33  36
ENDBRANCH   4  32
TORSDOF 7
ENDMDL
MODEL 10
REMARK VINA RESULT:      -8.4     17.254     20.734
REMARK  7 active torsions:
REMARK  status: ('A' for Active; 'I' for Inactive)
REMARK    1  A    between atoms: C_2  and  C_3 
REMARK    2  A    between atoms: C_6  and  C_7 
REMARK    3  A    between atoms: C_10  and  C_11 
REMARK       I    between atoms: C_11  and  N_12 
REMARK    4  A    between atoms: N_12  and  C_13 
REMARK    5  A    between atoms: C_25  and  C_26 
REMARK       I    between atoms: C_26  and  N_27 
REMARK    6  A    between atoms: N_27  and  C_28 
REMARK    7  A    between atoms: C_31  and  O_32 
ROOT
HETATM    1  C   UNL     1      44.871 -29.660   0.869  1.00  0.00     0.185 C 
HETATM    2  N   UNL     1      44.946 -29.122  -0.497  1.00  0.00    -0.239 N 
HETATM    3  C   UNL     1      44.753 -29.873  -1.631  1.00  0.00     0.142 A 
HETATM    4  C   UNL     1      45.009 -29.021  -2.690  1.00  0.00     0.097 A 
HETATM    5  C   UNL     1      45.219 -27.761  -2.068  1.00  0.00     0.160 A 
HETATM    6  N   UNL     1      45.162 -27.812  -0.735  1.00  0.00    -0.181 NA
HETATM    7  N   UNL     1      44.347 -31.165  -1.494  1.00  0.00    -0.343 N 
HETATM    8  C   UNL     1      43.932 -31.684  -0.257  1.00  0.00     0.021 C 
HETATM    9  C   UNL     1      43.242 -33.027  -0.322  1.00  0.00     0.069 C 
HETATM   10  C   UNL     1      44.139 -30.992   0.894  1.00  0.00     0.061 C 
HETATM   11  H   UNL     1      43.905 -31.637  -2.285  1.00  0.00     0.167 HD
ENDROOT
BRANCH  10  12
HETATM   12  C   UNL     1      43.455 -31.385   2.172  1.00  0.00     0.256 C 
HETATM   13  N   UNL     1      42.122 -31.036   2.251  1.00  0.00    -0.323 N 
HETATM   14  H   UNL     1      41.734 -30.447   1.527  1.00  0.00     0.169 HD
HETATM   15  O   UNL     1      44.078 -32.023   3.014  1.00  0.00    -0.267 OA
BRANCH  13  16
HETATM   16  C   UNL     1      41.190 -31.436   3.235  1.00  0.00     0.035 A 
HETATM   17  C   UNL     1      41.210 -31.007   4.561  1.00  0.00     0.032 A 
HETATM   18  C   UNL     1      40.266 -31.491   5.476  1.00  0.00     0.039 A 
HETATM   19  C   UNL     1      39.298 -32.416   5.087  1.00  0.00     0.068 A 
HETATM   20  C   UNL     1      39.264 -32.840   3.760  1.00  0.00     0.039 A 
HETATM   21  C   UNL     1      40.201 -32.347   2.841  1.00  0.00     0.032 A 
BRANCH  19  22
HETATM   22  O   UNL     1      38.454 -32.818   6.084  1.00  0.00    -0.356 OA
HETATM   23  C   UNL     1      38.964 -32.780   7.411  1.00  0.00     0.210 C 
ENDBRANCH  19  22
ENDBRANCH  13  16
ENDBRANCH  10  12
BRANCH   1  24
HETATM   24  C   UNL     1      46.288 -29.705   1.451  1.00  0.00    -0.029 A 
HETATM   25  C   UNL     1      47.158 -30.736   1.059  1.00  0.00     0.010 A 
HETATM   26  C   UNL     1      48.445 -30.831   1.592  1.00  0.00     0.007 A 
HETATM   27  C   UNL     1      48.898 -29.896   2.529  1.00  0.00    -0.059 A 
HETATM   28  C   UNL     1      48.039 -28.866   2.925  1.00  0.00     0.007 A 
HETATM   29  C   UNL     1      46.744 -28.777   2.403  1.00  0.00     0.010 A 
BRANCH  27  30
HETATM   30  C   UNL     1      50.279 -30.016   3.124  1.00  0.00     0.034 C 
HETATM   31  C   UNL     1      50.257 -30.596   4.530  1.00  0.00     0.010 C 
ENDBRANCH  27  30
ENDBRANCH   1  24
BRANCH   4  32
HETATM   32  C   UNL     1      45.035 -29.251  -4.125  1.00  0.00     0.261 C 
HETATM   33  N   UNL     1      45.000 -30.584  -4.490  1.00  0.00    -0.323 N 
HETATM   34  H   UNL     1      45.009 -31.252  -3.731  1.00  0.00     0.169 HD
HETATM   35  O   UNL     1      45.115 -28.299  -4.894  1.00  0.00    -0.267 OA
BRANCH  33  36
HETATM   36  C   UNL     1      45.046 -31.117  -5.796  1.00  0.00     0.035 A 
HETATM   37  C   UNL     1      43.999 -31.023  -6.716  1.00  0.00     0.029 A 
HETATM   38  C   UNL     1      44.126 -31.564  -7.999  1.00  0.00     0.002 A 
HETATM   39  C   UNL     1      45.298 -32.215  -8.371  1.00  0.00     0.000 A 
HETATM   40  C   UNL     1      46.347 -32.320  -7.462  1.00  0.00     0.002 A 
HETATM   41  C   UNL     1      46.224 -31.768  -6.183  1.00  0.00     0.029 A 
ENDBRANCH  33  36
ENDBRANCH   4  32
TORSDOF 7
ENDMDL
