MODEL 1
REMARK VINA RESULT:      -8.0      0.000      0.000
REMARK  7 active torsions:
REMARK  status: ('A' for Active; 'I' for Inactive)
REMARK    1  A    between atoms: O_2  and  C_3 
REMARK    2  A    between atoms: C_4  and  C_5 
REMARK    3  A    between atoms: C_5  and  N_6 
REMARK    4  A    between atoms: N_6  and  C_7 
REMARK    5  A    between atoms: C_9  and  N_10 
REMARK    6  A    between atoms: N_10  and  C_11 
REMARK    7  A    between atoms: C_11  and  C_12 
ROOT
HETATM    1  C   UNL     1      41.152 -15.347   3.000  1.00  0.00     0.119 A 
HETATM    2  N   UNL     1      40.809 -15.622   1.727  1.00  0.00    -0.207 NA
HETATM    3  C   UNL     1      39.945 -14.801   1.117  1.00  0.00     0.181 A 
HETATM    4  N   UNL     1      39.439 -13.720   1.695  1.00  0.00    -0.330 N 
HETATM    5  H   UNL     1      38.865 -13.116   1.121  1.00  0.00     0.168 HD
HETATM    6  C   UNL     1      39.710 -13.421   2.969  1.00  0.00     0.048 A 
HETATM    7  C   UNL     1      40.576 -14.261   3.699  1.00  0.00     0.031 A 
HETATM    8  C   UNL     1      39.138 -12.285   3.559  1.00  0.00     0.030 A 
HETATM    9  C   UNL     1      39.406 -11.977   4.890  1.00  0.00     0.002 A 
HETATM   10  C   UNL     1      40.236 -12.805   5.640  1.00  0.00     0.001 A 
HETATM   11  C   UNL     1      40.815 -13.936   5.056  1.00  0.00     0.017 A 
ENDROOT
BRANCH   1  12
HETATM   12  N   UNL     1      42.044 -16.204   3.662  1.00  0.00    -0.272 NA
HETATM   13  H   UNL     1      42.407 -15.774   4.508  1.00  0.00     0.129 HD
BRANCH  12  14
HETATM   14  C   UNL     1      43.176 -16.729   2.884  1.00  0.00     0.135 C 
BRANCH  14  15
HETATM   15  C   UNL     1      43.465 -18.193   3.122  1.00  0.00    -0.012 A 
HETATM   16  C   UNL     1      43.939 -18.582   4.390  1.00  0.00     0.075 A 
HETATM   17  C   UNL     1      44.156 -19.929   4.693  1.00  0.00     0.037 A 
HETATM   18  C   UNL     1      43.948 -20.901   3.716  1.00  0.00     0.003 A 
HETATM   19  C   UNL     1      43.516 -20.530   2.445  1.00  0.00     0.001 A 
HETATM   20  C   UNL     1      43.272 -19.186   2.151  1.00  0.00     0.011 A 
BRANCH  16  21
HETATM   21  O   UNL     1      44.105 -17.588   5.324  1.00  0.00    -0.355 OA
HETATM   22  C   UNL     1      43.435 -17.849   6.556  1.00  0.00     0.210 C 
ENDBRANCH  16  21
ENDBRANCH  14  15
ENDBRANCH  12  14
ENDBRANCH   1  12
BRANCH   3  23
HETATM   23  N   UNL     1      39.641 -15.069  -0.209  1.00  0.00    -0.259 NA
HETATM   24  H   UNL     1      38.754 -15.582  -0.169  1.00  0.00     0.130 HD
BRANCH  23  25
HETATM   25  C   UNL     1      39.522 -13.919  -1.092  1.00  0.00     0.121 C 
BRANCH  25  26
HETATM   26  C   UNL     1      39.503 -14.435  -2.499  1.00  0.00    -0.022 C 
HETATM   27  C   UNL     1      38.403 -14.752  -3.195  1.00  0.00     0.008 C 
ENDBRANCH  25  26
ENDBRANCH  23  25
ENDBRANCH   3  23
TORSDOF 7
ENDMDL
MODEL 2
REMARK VINA RESULT:      -8.0      2.326      6.083
REMARK  7 active torsions:
REMARK  status: ('A' for Active; 'I' for Inactive)
REMARK    1  A    between atoms: O_2  and  C_3 
REMARK    2  A    between atoms: C_4  and  C_5 
REMARK    3  A    between atoms: C_5  and  N_6 
REMARK    4  A    between atoms: N_6  and  C_7 
REMARK    5  A    between atoms: C_9  and  N_10 
REMARK    6  A    between atoms: N_10  and  C_11 
REMARK    7  A    between atoms: C_11  and  C_12 
ROOT
HETATM    1  C   UNL     1      43.654 -16.786   4.439  1.00  0.00     0.119 A 
HETATM    2  N   UNL     1      43.387 -15.918   3.444  1.00  0.00    -0.207 NA
HETATM    3  C   UNL     1      43.177 -16.413   2.218  1.00  0.00     0.181 A 
HETATM    4  N   UNL     1      43.186 -17.711   1.946  1.00  0.00    -0.330 N 
HETATM    5  H   UNL     1      42.927 -17.988   1.009  1.00  0.00     0.168 HD
HETATM    6  C   UNL     1      43.486 -18.615   2.884  1.00  0.00     0.048 A 
HETATM    7  C   UNL     1      43.768 -18.175   4.194  1.00  0.00     0.031 A 
HETATM    8  C   UNL     1      43.514 -19.979   2.558  1.00  0.00     0.030 A 
HETATM    9  C   UNL     1      43.841 -20.923   3.528  1.00  0.00     0.002 A 
HETATM   10  C   UNL     1      44.148 -20.512   4.822  1.00  0.00     0.001 A 
HETATM   11  C   UNL     1      44.116 -19.155   5.154  1.00  0.00     0.017 A 
ENDROOT
BRANCH   1  12
HETATM   12  N   UNL     1      43.894 -16.287   5.728  1.00  0.00    -0.272 NA
HETATM   13  H   UNL     1      44.557 -16.870   6.230  1.00  0.00     0.129 HD
BRANCH  12  14
HETATM   14  C   UNL     1      42.725 -16.063   6.592  1.00  0.00     0.135 C 
BRANCH  14  15
HETATM   15  C   UNL     1      41.975 -14.784   6.301  1.00  0.00    -0.012 A 
HETATM   16  C   UNL     1      42.687 -13.569   6.342  1.00  0.00     0.075 A 
HETATM   17  C   UNL     1      42.065 -12.363   6.012  1.00  0.00     0.037 A 
HETATM   18  C   UNL     1      40.710 -12.348   5.682  1.00  0.00     0.003 A 
HETATM   19  C   UNL     1      39.983 -13.536   5.674  1.00  0.00     0.001 A 
HETATM   20  C   UNL     1      40.611 -14.747   5.976  1.00  0.00     0.011 A 
BRANCH  16  21
HETATM   21  O   UNL     1      44.023 -13.642   6.650  1.00  0.00    -0.355 OA
HETATM   22  C   UNL     1      44.663 -12.368   6.703  1.00  0.00     0.210 C 
ENDBRANCH  16  21
ENDBRANCH  14  15
ENDBRANCH  12  14
ENDBRANCH   1  12
BRANCH   3  23
HETATM   23  N   UNL     1      42.854 -15.512   1.215  1.00  0.00    -0.259 NA
HETATM   24  H   UNL     1      42.456 -16.091   0.469  1.00  0.00     0.130 HD
BRANCH  23  25
HETATM   25  C   UNL     1      41.933 -14.444   1.574  1.00  0.00     0.121 C 
BRANCH  25  26
HETATM   26  C   UNL     1      40.545 -14.937   1.296  1.00  0.00    -0.022 C 
HETATM   27  C   UNL     1      39.749 -15.555   2.180  1.00  0.00     0.008 C 
ENDBRANCH  25  26
ENDBRANCH  23  25
ENDBRANCH   3  23
TORSDOF 7
ENDMDL
MODEL 3
REMARK VINA RESULT:      -7.6      2.353      4.644
REMARK  7 active torsions:
REMARK  status: ('A' for Active; 'I' for Inactive)
REMARK    1  A    between atoms: O_2  and  C_3 
REMARK    2  A    between atoms: C_4  and  C_5 
REMARK    3  A    between atoms: C_5  and  N_6 
REMARK    4  A    between atoms: N_6  and  C_7 
REMARK    5  A    between atoms: C_9  and  N_10 
REMARK    6  A    between atoms: N_10  and  C_11 
REMARK    7  A    between atoms: C_11  and  C_12 
ROOT
HETATM    1  C   UNL     1      42.288 -14.739   2.584  1.00  0.00     0.119 A 
HETATM    2  N   UNL     1      43.102 -13.912   3.268  1.00  0.00    -0.207 NA
HETATM    3  C   UNL     1      43.068 -12.607   2.970  1.00  0.00     0.181 A 
HETATM    4  N   UNL     1      42.252 -12.091   2.060  1.00  0.00    -0.330 N 
HETATM    5  H   UNL     1      42.239 -11.083   1.972  1.00  0.00     0.168 HD
HETATM    6  C   UNL     1      41.454 -12.867   1.321  1.00  0.00     0.048 A 
HETATM    7  C   UNL     1      41.462 -14.261   1.539  1.00  0.00     0.031 A 
HETATM    8  C   UNL     1      40.623 -12.293   0.349  1.00  0.00     0.030 A 
HETATM    9  C   UNL     1      39.800 -13.100  -0.434  1.00  0.00     0.002 A 
HETATM   10  C   UNL     1      39.810 -14.480  -0.256  1.00  0.00     0.001 A 
HETATM   11  C   UNL     1      40.631 -15.058   0.716  1.00  0.00     0.017 A 
ENDROOT
BRANCH   1  12
HETATM   12  N   UNL     1      42.320 -16.111   2.870  1.00  0.00    -0.272 NA
HETATM   13  H   UNL     1      42.338 -16.277   3.873  1.00  0.00     0.129 HD
BRANCH  12  14
HETATM   14  C   UNL     1      43.393 -16.904   2.251  1.00  0.00     0.135 C 
BRANCH  14  15
HETATM   15  C   UNL     1      43.621 -18.250   2.897  1.00  0.00    -0.012 A 
HETATM   16  C   UNL     1      44.042 -18.282   4.241  1.00  0.00     0.075 A 
HETATM   17  C   UNL     1      44.200 -19.496   4.915  1.00  0.00     0.037 A 
HETATM   18  C   UNL     1      43.985 -20.697   4.240  1.00  0.00     0.003 A 
HETATM   19  C   UNL     1      43.605 -20.684   2.900  1.00  0.00     0.001 A 
HETATM   20  C   UNL     1      43.419 -19.469   2.234  1.00  0.00     0.011 A 
BRANCH  16  21
HETATM   21  O   UNL     1      44.217 -17.072   4.867  1.00  0.00    -0.355 OA
HETATM   22  C   UNL     1      43.610 -17.007   6.156  1.00  0.00     0.210 C 
ENDBRANCH  16  21
ENDBRANCH  14  15
ENDBRANCH  12  14
ENDBRANCH   1  12
BRANCH   3  23
HETATM   23  N   UNL     1      43.874 -11.762   3.717  1.00  0.00    -0.259 NA
HETATM   24  H   UNL     1      43.968 -10.921   3.139  1.00  0.00     0.130 HD
BRANCH  23  25
HETATM   25  C   UNL     1      43.393 -11.414   5.045  1.00  0.00     0.121 C 
BRANCH  25  26
HETATM   26  C   UNL     1      44.369 -11.974   6.036  1.00  0.00    -0.022 C 
HETATM   27  C   UNL     1      45.458 -11.341   6.496  1.00  0.00     0.008 C 
ENDBRANCH  25  26
ENDBRANCH  23  25
ENDBRANCH   3  23
TORSDOF 7
ENDMDL
MODEL 4
REMARK VINA RESULT:      -7.6      2.625      7.450
REMARK  7 active torsions:
REMARK  status: ('A' for Active; 'I' for Inactive)
REMARK    1  A    between atoms: O_2  and  C_3 
REMARK    2  A    between atoms: C_4  and  C_5 
REMARK    3  A    between atoms: C_5  and  N_6 
REMARK    4  A    between atoms: N_6  and  C_7 
REMARK    5  A    between atoms: C_9  and  N_10 
REMARK    6  A    between atoms: N_10  and  C_11 
REMARK    7  A    between atoms: C_11  and  C_12 
ROOT
HETATM    1  C   UNL     1      42.496 -15.401   2.462  1.00  0.00     0.119 A 
HETATM    2  N   UNL     1      42.444 -14.350   3.303  1.00  0.00    -0.207 NA
HETATM    3  C   UNL     1      42.909 -14.517   4.547  1.00  0.00     0.181 A 
HETATM    4  N   UNL     1      43.443 -15.652   4.978  1.00  0.00    -0.330 N 
HETATM    5  H   UNL     1      43.847 -15.649   5.905  1.00  0.00     0.168 HD
HETATM    6  C   UNL     1      43.482 -16.739   4.202  1.00  0.00     0.048 A 
HETATM    7  C   UNL     1      42.971 -16.663   2.890  1.00  0.00     0.031 A 
HETATM    8  C   UNL     1      44.030 -17.932   4.696  1.00  0.00     0.030 A 
HETATM    9  C   UNL     1      44.060 -19.072   3.896  1.00  0.00     0.002 A 
HETATM   10  C   UNL     1      43.537 -19.030   2.607  1.00  0.00     0.001 A 
HETATM   11  C   UNL     1      42.995 -17.842   2.107  1.00  0.00     0.017 A 
ENDROOT
BRANCH   1  12
HETATM   12  N   UNL     1      41.999 -15.251   1.159  1.00  0.00    -0.272 NA
HETATM   13  H   UNL     1      42.498 -14.523   0.657  1.00  0.00     0.129 HD
BRANCH  12  14
HETATM   14  C   UNL     1      40.555 -15.011   1.012  1.00  0.00     0.135 C 
BRANCH  14  15
HETATM   15  C   UNL     1      40.168 -14.346  -0.289  1.00  0.00    -0.012 A 
HETATM   16  C   UNL     1      40.593 -13.023  -0.514  1.00  0.00     0.075 A 
HETATM   17  C   UNL     1      40.328 -12.381  -1.727  1.00  0.00     0.037 A 
HETATM   18  C   UNL     1      39.591 -13.036  -2.712  1.00  0.00     0.003 A 
HETATM   19  C   UNL     1      39.131 -14.332  -2.490  1.00  0.00     0.001 A 
HETATM   20  C   UNL     1      39.421 -14.985  -1.289  1.00  0.00     0.011 A 
BRANCH  16  21
HETATM   21  O   UNL     1      41.335 -12.430   0.478  1.00  0.00    -0.355 OA
HETATM   22  C   UNL     1      40.745 -11.238   0.993  1.00  0.00     0.210 C 
ENDBRANCH  16  21
ENDBRANCH  14  15
ENDBRANCH  12  14
ENDBRANCH   1  12
BRANCH   3  23
HETATM   23  N   UNL     1      42.895 -13.412   5.385  1.00  0.00    -0.259 NA
HETATM   24  H   UNL     1      41.901 -13.187   5.495  1.00  0.00     0.130 HD
BRANCH  23  25
HETATM   25  C   UNL     1      43.526 -13.575   6.685  1.00  0.00     0.121 C 
BRANCH  25  26
HETATM   26  C   UNL     1      44.111 -12.250   7.069  1.00  0.00    -0.022 C 
HETATM   27  C   UNL     1      45.255 -11.739   6.594  1.00  0.00     0.008 C 
ENDBRANCH  25  26
ENDBRANCH  23  25
ENDBRANCH   3  23
TORSDOF 7
ENDMDL
MODEL 5
REMARK VINA RESULT:      -7.3      3.187      5.693
REMARK  7 active torsions:
REMARK  status: ('A' for Active; 'I' for Inactive)
REMARK    1  A    between atoms: O_2  and  C_3 
REMARK    2  A    between atoms: C_4  and  C_5 
REMARK    3  A    between atoms: C_5  and  N_6 
REMARK    4  A    between atoms: N_6  and  C_7 
REMARK    5  A    between atoms: C_9  and  N_10 
REMARK    6  A    between atoms: N_10  and  C_11 
REMARK    7  A    between atoms: C_11  and  C_12 
ROOT
HETATM    1  C   UNL     1      42.486 -13.392   4.859  1.00  0.00     0.119 A 
HETATM    2  N   UNL     1      43.338 -13.257   5.894  1.00  0.00    -0.207 NA
HETATM    3  C   UNL     1      43.107 -12.277   6.776  1.00  0.00     0.181 A 
HETATM    4  N   UNL     1      42.067 -11.458   6.696  1.00  0.00    -0.330 N 
HETATM    5  H   UNL     1      41.931 -10.809   7.460  1.00  0.00     0.168 HD
HETATM    6  C   UNL     1      41.213 -11.517   5.670  1.00  0.00     0.048 A 
HETATM    7  C   UNL     1      41.410 -12.492   4.670  1.00  0.00     0.031 A 
HETATM    8  C   UNL     1      40.138 -10.619   5.601  1.00  0.00     0.030 A 
HETATM    9  C   UNL     1      39.253 -10.668   4.526  1.00  0.00     0.002 A 
HETATM   10  C   UNL     1      39.442 -11.603   3.514  1.00  0.00     0.001 A 
HETATM   11  C   UNL     1      40.508 -12.505   3.579  1.00  0.00     0.017 A 
ENDROOT
BRANCH   1  12
HETATM   12  N   UNL     1      42.719 -14.402   3.916  1.00  0.00    -0.272 NA
HETATM   13  H   UNL     1      42.616 -14.051   2.968  1.00  0.00     0.129 HD
BRANCH  12  14
HETATM   14  C   UNL     1      41.931 -15.638   4.041  1.00  0.00     0.135 C 
BRANCH  14  15
HETATM   15  C   UNL     1      42.679 -16.892   3.653  1.00  0.00    -0.012 A 
HETATM   16  C   UNL     1      43.680 -17.367   4.522  1.00  0.00     0.075 A 
HETATM   17  C   UNL     1      44.356 -18.560   4.253  1.00  0.00     0.037 A 
HETATM   18  C   UNL     1      44.074 -19.269   3.087  1.00  0.00     0.003 A 
HETATM   19  C   UNL     1      43.115 -18.792   2.197  1.00  0.00     0.001 A 
HETATM   20  C   UNL     1      42.418 -17.615   2.480  1.00  0.00     0.011 A 
BRANCH  16  21
HETATM   21  O   UNL     1      43.902 -16.645   5.669  1.00  0.00    -0.355 OA
HETATM   22  C   UNL     1      43.554 -17.349   6.860  1.00  0.00     0.210 C 
ENDBRANCH  16  21
ENDBRANCH  14  15
ENDBRANCH  12  14
ENDBRANCH   1  12
BRANCH   3  23
HETATM   23  N   UNL     1      43.964 -12.183   7.861  1.00  0.00    -0.259 NA
HETATM   24  H   UNL     1      44.814 -12.671   7.559  1.00  0.00     0.130 HD
BRANCH  23  25
HETATM   25  C   UNL     1      44.286 -10.841   8.321  1.00  0.00     0.121 C 
BRANCH  25  26
HETATM   26  C   UNL     1      45.664 -10.517   7.829  1.00  0.00    -0.022 C 
HETATM   27  C   UNL     1      46.304  -9.355   8.021  1.00  0.00     0.008 C 
ENDBRANCH  25  26
ENDBRANCH  23  25
ENDBRANCH   3  23
TORSDOF 7
ENDMDL
MODEL 6
REMARK VINA RESULT:      -7.2      2.110      3.239
REMARK  7 active torsions:
REMARK  status: ('A' for Active; 'I' for Inactive)
REMARK    1  A    between atoms: O_2  and  C_3 
REMARK    2  A    between atoms: C_4  and  C_5 
REMARK    3  A    between atoms: C_5  and  N_6 
REMARK    4  A    between atoms: N_6  and  C_7 
REMARK    5  A    between atoms: C_9  and  N_10 
REMARK    6  A    between atoms: N_10  and  C_11 
REMARK    7  A    between atoms: C_11  and  C_12 
ROOT
HETATM    1  C   UNL     1      40.789 -14.312   3.727  1.00  0.00     0.119 A 
HETATM    2  N   UNL     1      40.504 -14.615   2.446  1.00  0.00    -0.207 NA
HETATM    3  C   UNL     1      41.190 -13.986   1.483  1.00  0.00     0.181 A 
HETATM    4  N   UNL     1      42.153 -13.108   1.732  1.00  0.00    -0.330 N 
HETATM    5  H   UNL     1      42.671 -12.756   0.939  1.00  0.00     0.168 HD
HETATM    6  C   UNL     1      42.449 -12.737   2.981  1.00  0.00     0.048 A 
HETATM    7  C   UNL     1      41.741 -13.318   4.054  1.00  0.00     0.031 A 
HETATM    8  C   UNL     1      43.454 -11.787   3.209  1.00  0.00     0.030 A 
HETATM    9  C   UNL     1      43.757 -11.386   4.508  1.00  0.00     0.002 A 
HETATM   10  C   UNL     1      43.054 -11.924   5.582  1.00  0.00     0.001 A 
HETATM   11  C   UNL     1      42.055 -12.877   5.362  1.00  0.00     0.017 A 
ENDROOT
BRANCH   1  12
HETATM   12  N   UNL     1      40.070 -14.948   4.750  1.00  0.00    -0.272 NA
HETATM   13  H   UNL     1      40.074 -14.393   5.601  1.00  0.00     0.129 HD
BRANCH  12  14
HETATM   14  C   UNL     1      40.459 -16.324   5.092  1.00  0.00     0.135 C 
BRANCH  14  15
HETATM   15  C   UNL     1      41.831 -16.444   5.712  1.00  0.00    -0.012 A 
HETATM   16  C   UNL     1      42.881 -16.944   4.918  1.00  0.00     0.075 A 
HETATM   17  C   UNL     1      44.186 -17.011   5.413  1.00  0.00     0.037 A 
HETATM   18  C   UNL     1      44.451 -16.624   6.726  1.00  0.00     0.003 A 
HETATM   19  C   UNL     1      43.416 -16.163   7.537  1.00  0.00     0.001 A 
HETATM   20  C   UNL     1      42.116 -16.069   7.033  1.00  0.00     0.011 A 
BRANCH  16  21
HETATM   21  O   UNL     1      42.573 -17.289   3.625  1.00  0.00    -0.355 OA
HETATM   22  C   UNL     1      43.453 -16.717   2.659  1.00  0.00     0.210 C 
ENDBRANCH  16  21
ENDBRANCH  14  15
ENDBRANCH  12  14
ENDBRANCH   1  12
BRANCH   3  23
HETATM   23  N   UNL     1      40.921 -14.346   0.172  1.00  0.00    -0.259 NA
HETATM   24  H   UNL     1      40.813 -15.365   0.203  1.00  0.00     0.130 HD
BRANCH  23  25
HETATM   25  C   UNL     1      39.754 -13.732  -0.444  1.00  0.00     0.121 C 
BRANCH  25  26
HETATM   26  C   UNL     1      39.786 -14.072  -1.903  1.00  0.00    -0.022 C 
HETATM   27  C   UNL     1      38.949 -14.916  -2.522  1.00  0.00     0.008 C 
ENDBRANCH  25  26
ENDBRANCH  23  25
ENDBRANCH   3  23
TORSDOF 7
ENDMDL
MODEL 7
REMARK VINA RESULT:      -7.0     14.067     15.748
REMARK  7 active torsions:
REMARK  status: ('A' for Active; 'I' for Inactive)
REMARK    1  A    between atoms: O_2  and  C_3 
REMARK    2  A    between atoms: C_4  and  C_5 
REMARK    3  A    between atoms: C_5  and  N_6 
REMARK    4  A    between atoms: N_6  and  C_7 
REMARK    5  A    between atoms: C_9  and  N_10 
REMARK    6  A    between atoms: N_10  and  C_11 
REMARK    7  A    between atoms: C_11  and  C_12 
ROOT
HETATM    1  C   UNL     1      45.482 -28.766   1.619  1.00  0.00     0.119 A 
HETATM    2  N   UNL     1      46.520 -28.707   2.477  1.00  0.00    -0.207 NA
HETATM    3  C   UNL     1      47.731 -28.424   1.980  1.00  0.00     0.181 A 
HETATM    4  N   UNL     1      47.949 -28.170   0.697  1.00  0.00    -0.330 N 
HETATM    5  H   UNL     1      48.881 -27.879   0.436  1.00  0.00     0.168 HD
HETATM    6  C   UNL     1      46.966 -28.256  -0.206  1.00  0.00     0.048 A 
HETATM    7  C   UNL     1      45.667 -28.595   0.227  1.00  0.00     0.031 A 
HETATM    8  C   UNL     1      47.235 -28.007  -1.559  1.00  0.00     0.030 A 
HETATM    9  C   UNL     1      46.218 -28.110  -2.505  1.00  0.00     0.002 A 
HETATM   10  C   UNL     1      44.934 -28.469  -2.107  1.00  0.00     0.001 A 
HETATM   11  C   UNL     1      44.658 -28.712  -0.758  1.00  0.00     0.017 A 
ENDROOT
BRANCH   1  12
HETATM   12  N   UNL     1      44.209 -29.078   2.117  1.00  0.00    -0.272 NA
HETATM   13  H   UNL     1      43.870 -28.349   2.740  1.00  0.00     0.129 HD
BRANCH  12  14
HETATM   14  C   UNL     1      44.047 -30.376   2.789  1.00  0.00     0.135 C 
BRANCH  14  15
HETATM   15  C   UNL     1      42.631 -30.902   2.785  1.00  0.00    -0.012 A 
HETATM   16  C   UNL     1      42.120 -31.433   1.585  1.00  0.00     0.075 A 
HETATM   17  C   UNL     1      40.844 -32.000   1.537  1.00  0.00     0.037 A 
HETATM   18  C   UNL     1      40.042 -32.001   2.677  1.00  0.00     0.003 A 
HETATM   19  C   UNL     1      40.518 -31.446   3.863  1.00  0.00     0.001 A 
HETATM   20  C   UNL     1      41.805 -30.905   3.919  1.00  0.00     0.011 A 
BRANCH  16  21
HETATM   21  O   UNL     1      42.958 -31.429   0.497  1.00  0.00    -0.355 OA
HETATM   22  C   UNL     1      43.157 -32.722  -0.071  1.00  0.00     0.210 C 
ENDBRANCH  16  21
ENDBRANCH  14  15
ENDBRANCH  12  14
ENDBRANCH   1  12
BRANCH   3  23
HETATM   23  N   UNL     1      48.778 -28.316   2.882  1.00  0.00    -0.259 NA
HETATM   24  H   UNL     1      48.719 -27.354   3.229  1.00  0.00     0.130 HD
BRANCH  23  25
HETATM   25  C   UNL     1      48.779 -29.257   3.991  1.00  0.00     0.121 C 
BRANCH  25  26
HETATM   26  C   UNL     1      50.005 -30.108   3.857  1.00  0.00    -0.022 C 
HETATM   27  C   UNL     1      50.941 -29.976   2.907  1.00  0.00     0.008 C 
ENDBRANCH  25  26
ENDBRANCH  23  25
ENDBRANCH   3  23
TORSDOF 7
ENDMDL
MODEL 8
REMARK VINA RESULT:      -7.0      2.238      6.776
REMARK  7 active torsions:
REMARK  status: ('A' for Active; 'I' for Inactive)
REMARK    1  A    between atoms: O_2  and  C_3 
REMARK    2  A    between atoms: C_4  and  C_5 
REMARK    3  A    between atoms: C_5  and  N_6 
REMARK    4  A    between atoms: N_6  and  C_7 
REMARK    5  A    between atoms: C_9  and  N_10 
REMARK    6  A    between atoms: N_10  and  C_11 
REMARK    7  A    between atoms: C_11  and  C_12 
ROOT
HETATM    1  C   UNL     1      40.733 -15.031   2.252  1.00  0.00     0.119 A 
HETATM    2  N   UNL     1      41.745 -15.905   2.094  1.00  0.00    -0.207 NA
HETATM    3  C   UNL     1      42.612 -16.053   3.104  1.00  0.00     0.181 A 
HETATM    4  N   UNL     1      42.502 -15.406   4.257  1.00  0.00    -0.330 N 
HETATM    5  H   UNL     1      43.155 -15.654   4.988  1.00  0.00     0.168 HD
HETATM    6  C   UNL     1      41.544 -14.496   4.454  1.00  0.00     0.048 A 
HETATM    7  C   UNL     1      40.615 -14.245   3.423  1.00  0.00     0.031 A 
HETATM    8  C   UNL     1      41.470 -13.810   5.675  1.00  0.00     0.030 A 
HETATM    9  C   UNL     1      40.482 -12.850   5.880  1.00  0.00     0.002 A 
HETATM   10  C   UNL     1      39.571 -12.565   4.868  1.00  0.00     0.001 A 
HETATM   11  C   UNL     1      39.634 -13.250   3.651  1.00  0.00     0.017 A 
ENDROOT
BRANCH   1  12
HETATM   12  N   UNL     1      39.824 -14.850   1.200  1.00  0.00    -0.272 NA
HETATM   13  H   UNL     1      39.206 -15.651   1.106  1.00  0.00     0.129 HD
BRANCH  12  14
HETATM   14  C   UNL     1      40.380 -14.536  -0.125  1.00  0.00     0.135 C 
BRANCH  14  15
HETATM   15  C   UNL     1      39.346 -14.138  -1.152  1.00  0.00    -0.012 A 
HETATM   16  C   UNL     1      38.698 -12.897  -1.000  1.00  0.00     0.075 A 
HETATM   17  C   UNL     1      37.785 -12.443  -1.956  1.00  0.00     0.037 A 
HETATM   18  C   UNL     1      37.472 -13.245  -3.052  1.00  0.00     0.003 A 
HETATM   19  C   UNL     1      38.075 -14.492  -3.197  1.00  0.00     0.001 A 
HETATM   20  C   UNL     1      39.010 -14.934  -2.257  1.00  0.00     0.011 A 
BRANCH  16  21
HETATM   21  O   UNL     1      39.059 -12.135   0.084  1.00  0.00    -0.355 OA
HETATM   22  C   UNL     1      37.959 -11.470   0.702  1.00  0.00     0.210 C 
ENDBRANCH  16  21
ENDBRANCH  14  15
ENDBRANCH  12  14
ENDBRANCH   1  12
BRANCH   3  23
HETATM   23  N   UNL     1      43.619 -16.993   2.946  1.00  0.00    -0.259 NA
HETATM   24  H   UNL     1      44.469 -16.512   3.256  1.00  0.00     0.130 HD
BRANCH  23  25
HETATM   25  C   UNL     1      43.455 -18.247   3.665  1.00  0.00     0.121 C 
BRANCH  25  26
HETATM   26  C   UNL     1      43.978 -19.341   2.784  1.00  0.00    -0.022 C 
HETATM   27  C   UNL     1      43.226 -20.167   2.042  1.00  0.00     0.008 C 
ENDBRANCH  25  26
ENDBRANCH  23  25
ENDBRANCH   3  23
TORSDOF 7
ENDMDL
MODEL 9
REMARK VINA RESULT:      -7.0      2.326      5.862
REMARK  7 active torsions:
REMARK  status: ('A' for Active; 'I' for Inactive)
REMARK    1  A    between atoms: O_2  and  C_3 
REMARK    2  A    between atoms: C_4  and  C_5 
REMARK    3  A    between atoms: C_5  and  N_6 
REMARK    4  A    between atoms: N_6  and  C_7 
REMARK    5  A    between atoms: C_9  and  N_10 
REMARK    6  A    between atoms: N_10  and  C_11 
REMARK    7  A    between atoms: C_11  and  C_12 
ROOT
HETATM    1  C   UNL     1      41.390 -15.613   4.516  1.00  0.00     0.119 A 
HETATM    2  N   UNL     1      40.527 -15.116   3.609  1.00  0.00    -0.207 NA
HETATM    3  C   UNL     1      40.553 -15.625   2.371  1.00  0.00     0.181 A 
HETATM    4  N   UNL     1      41.362 -16.612   2.008  1.00  0.00    -0.330 N 
HETATM    5  H   UNL     1      41.242 -16.986   1.077  1.00  0.00     0.168 HD
HETATM    6  C   UNL     1      42.267 -17.115   2.853  1.00  0.00     0.048 A 
HETATM    7  C   UNL     1      42.339 -16.602   4.165  1.00  0.00     0.031 A 
HETATM    8  C   UNL     1      43.126 -18.139   2.430  1.00  0.00     0.030 A 
HETATM    9  C   UNL     1      44.081 -18.657   3.302  1.00  0.00     0.002 A 
HETATM   10  C   UNL     1      44.189 -18.149   4.593  1.00  0.00     0.001 A 
HETATM   11  C   UNL     1      43.332 -17.132   5.023  1.00  0.00     0.017 A 
ENDROOT
BRANCH   1  12
HETATM   12  N   UNL     1      41.390 -15.082   5.814  1.00  0.00    -0.272 NA
HETATM   13  H   UNL     1      40.464 -14.754   6.077  1.00  0.00     0.129 HD
BRANCH  12  14
HETATM   14  C   UNL     1      42.359 -14.015   6.106  1.00  0.00     0.135 C 
BRANCH  14  15
HETATM   15  C   UNL     1      42.292 -12.840   5.158  1.00  0.00    -0.012 A 
HETATM   16  C   UNL     1      41.160 -12.004   5.212  1.00  0.00     0.075 A 
HETATM   17  C   UNL     1      41.073 -10.862   4.411  1.00  0.00     0.037 A 
HETATM   18  C   UNL     1      42.095 -10.568   3.510  1.00  0.00     0.003 A 
HETATM   19  C   UNL     1      43.203 -11.406   3.417  1.00  0.00     0.001 A 
HETATM   20  C   UNL     1      43.305 -12.532   4.238  1.00  0.00     0.011 A 
BRANCH  16  21
HETATM   21  O   UNL     1      40.193 -12.326   6.132  1.00  0.00    -0.355 OA
HETATM   22  C   UNL     1      39.488 -11.191   6.635  1.00  0.00     0.210 C 
ENDBRANCH  16  21
ENDBRANCH  14  15
ENDBRANCH  12  14
ENDBRANCH   1  12
BRANCH   3  23
HETATM   23  N   UNL     1      39.625 -15.138   1.464  1.00  0.00    -0.259 NA
HETATM   24  H   UNL     1      39.128 -14.403   1.977  1.00  0.00     0.130 HD
BRANCH  23  25
HETATM   25  C   UNL     1      40.152 -14.617   0.213  1.00  0.00     0.121 C 
BRANCH  25  26
HETATM   26  C   UNL     1      40.930 -13.377   0.536  1.00  0.00    -0.022 C 
HETATM   27  C   UNL     1      40.419 -12.140   0.621  1.00  0.00     0.008 C 
ENDBRANCH  25  26
ENDBRANCH  23  25
ENDBRANCH   3  23
TORSDOF 7
ENDMDL
MODEL 10
REMARK VINA RESULT:      -6.9      1.754      4.836
REMARK  7 active torsions:
REMARK  status: ('A' for Active; 'I' for Inactive)
REMARK    1  A    between atoms: O_2  and  C_3 
REMARK    2  A    between atoms: C_4  and  C_5 
REMARK    3  A    between atoms: C_5  and  N_6 
REMARK    4  A    between atoms: N_6  and  C_7 
REMARK    5  A    between atoms: C_9  and  N_10 
REMARK    6  A    between atoms: N_10  and  C_11 
REMARK    7  A    between atoms: C_11  and  C_12 
ROOT
HETATM    1  C   UNL     1      40.299 -13.985   0.871  1.00  0.00     0.119 A 
HETATM    2  N   UNL     1      40.000 -13.165   1.897  1.00  0.00    -0.207 NA
HETATM    3  C   UNL     1      39.078 -12.215   1.694  1.00  0.00     0.181 A 
HETATM    4  N   UNL     1      38.428 -12.066   0.548  1.00  0.00    -0.330 N 
HETATM    5  H   UNL     1      37.688 -11.377   0.524  1.00  0.00     0.168 HD
HETATM    6  C   UNL     1      38.714 -12.822  -0.517  1.00  0.00     0.048 A 
HETATM    7  C   UNL     1      39.706 -13.817  -0.402  1.00  0.00     0.031 A 
HETATM    8  C   UNL     1      38.027 -12.621  -1.723  1.00  0.00     0.030 A 
HETATM    9  C   UNL     1      38.331 -13.397  -2.839  1.00  0.00     0.002 A 
HETATM   10  C   UNL     1      39.325 -14.368  -2.759  1.00  0.00     0.001 A 
HETATM   11  C   UNL     1      40.009 -14.577  -1.558  1.00  0.00     0.017 A 
ENDROOT
BRANCH   1  12
HETATM   12  N   UNL     1      41.274 -14.976   1.058  1.00  0.00    -0.272 NA
HETATM   13  H   UNL     1      41.643 -15.300   0.169  1.00  0.00     0.129 HD
BRANCH  12  14
HETATM   14  C   UNL     1      40.896 -16.150   1.860  1.00  0.00     0.135 C 
BRANCH  14  15
HETATM   15  C   UNL     1      42.038 -16.761   2.639  1.00  0.00    -0.012 A 
HETATM   16  C   UNL     1      42.472 -16.107   3.808  1.00  0.00     0.075 A 
HETATM   17  C   UNL     1      43.475 -16.661   4.609  1.00  0.00     0.037 A 
HETATM   18  C   UNL     1      44.089 -17.852   4.226  1.00  0.00     0.003 A 
HETATM   19  C   UNL     1      43.698 -18.491   3.052  1.00  0.00     0.001 A 
HETATM   20  C   UNL     1      42.676 -17.953   2.266  1.00  0.00     0.011 A 
BRANCH  16  21
HETATM   21  O   UNL     1      41.818 -14.950   4.153  1.00  0.00    -0.355 OA
HETATM   22  C   UNL     1      42.682 -13.819   4.258  1.00  0.00     0.210 C 
ENDBRANCH  16  21
ENDBRANCH  14  15
ENDBRANCH  12  14
ENDBRANCH   1  12
BRANCH   3  23
HETATM   23  N   UNL     1      38.744 -11.412   2.774  1.00  0.00    -0.259 NA
HETATM   24  H   UNL     1      38.165 -12.012   3.369  1.00  0.00     0.130 HD
BRANCH  23  25
HETATM   25  C   UNL     1      39.851 -10.857   3.537  1.00  0.00     0.121 C 
BRANCH  25  26
HETATM   26  C   UNL     1      39.624 -11.208   4.976  1.00  0.00    -0.022 C 
HETATM   27  C   UNL     1      39.389 -12.441   5.446  1.00  0.00     0.008 C 
ENDBRANCH  25  26
ENDBRANCH  23  25
ENDBRANCH   3  23
TORSDOF 7
ENDMDL
