MODEL 1
REMARK VINA RESULT:      -8.4      0.000      0.000
REMARK  4 active torsions:
REMARK  status: ('A' for Active; 'I' for Inactive)
REMARK    1  A    between atoms: C_4  and  C_5 
REMARK    2  A    between atoms: C_8  and  C_9 
REMARK    3  A    between atoms: C_9  and  N_10 
REMARK       I    between atoms: N_10  and  C_11 
REMARK       I    between atoms: C_11  and  N_12 
REMARK    4  A    between atoms: N_12  and  C_13 
ROOT
HETATM    1  C   UNL     1      42.003 -13.228   3.463  1.00  0.00     0.213 C 
ENDROOT
BRANCH   1   2
HETATM    2  C   UNL     1      42.604 -14.528   3.078  1.00  0.00     0.190 A 
HETATM    3  O   UNL     1      43.156 -14.601   1.835  1.00  0.00    -0.194 OA
HETATM    4  N   UNL     1      43.574 -15.917   1.663  1.00  0.00    -0.106 NA
HETATM    5  C   UNL     1      43.238 -16.516   2.818  1.00  0.00     0.189 A 
HETATM    6  N   UNL     1      42.636 -15.670   3.729  1.00  0.00    -0.202 NA
BRANCH   5   7
HETATM    7  C   UNL     1      43.454 -17.934   3.090  1.00  0.00     0.014 A 
HETATM    8  C   UNL     1      44.003 -18.362   4.309  1.00  0.00     0.015 A 
HETATM    9  C   UNL     1      44.216 -19.721   4.558  1.00  0.00     0.001 A 
HETATM   10  C   UNL     1      43.883 -20.667   3.590  1.00  0.00     0.000 A 
HETATM   11  C   UNL     1      43.339 -20.258   2.376  1.00  0.00     0.001 A 
HETATM   12  C   UNL     1      43.125 -18.899   2.126  1.00  0.00     0.015 A 
ENDBRANCH   5   7
ENDBRANCH   1   2
BRANCH   1  13
HETATM   13  N   UNL     1      42.603 -12.730   4.685  1.00  0.00    -0.335 N 
HETATM   14  C   UNL     1      42.054 -12.999   5.898  1.00  0.00     0.321 C 
HETATM   15  N   UNL     1      42.769 -12.664   7.006  1.00  0.00    -0.309 N 
HETATM   16  O   UNL     1      40.991 -13.601   6.028  1.00  0.00    -0.247 OA
HETATM   17  H   UNL     1      42.402 -13.131   7.827  1.00  0.00     0.170 HD
HETATM   18  H   UNL     1      43.596 -12.556   4.665  1.00  0.00     0.164 HD
BRANCH  15  19
HETATM   19  C   UNL     1      43.882 -11.830   7.206  1.00  0.00     0.036 A 
HETATM   20  C   UNL     1      45.111 -11.996   6.562  1.00  0.00     0.029 A 
HETATM   21  C   UNL     1      46.167 -11.119   6.823  1.00  0.00     0.002 A 
HETATM   22  C   UNL     1      46.001 -10.064   7.718  1.00  0.00     0.000 A 
HETATM   23  C   UNL     1      44.769  -9.869   8.335  1.00  0.00     0.002 A 
HETATM   24  C   UNL     1      43.712 -10.741   8.070  1.00  0.00     0.029 A 
ENDBRANCH  15  19
ENDBRANCH   1  13
TORSDOF 4
ENDMDL
MODEL 2
REMARK VINA RESULT:      -8.2      3.346      6.089
REMARK  4 active torsions:
REMARK  status: ('A' for Active; 'I' for Inactive)
REMARK    1  A    between atoms: C_4  and  C_5 
REMARK    2  A    between atoms: C_8  and  C_9 
REMARK    3  A    between atoms: C_9  and  N_10 
REMARK       I    between atoms: N_10  and  C_11 
REMARK       I    between atoms: C_11  and  N_12 
REMARK    4  A    between atoms: N_12  and  C_13 
ROOT
HETATM    1  C   UNL     1      42.387 -13.213   3.266  1.00  0.00     0.213 C 
ENDROOT
BRANCH   1   2
HETATM    2  C   UNL     1      42.733 -14.584   3.709  1.00  0.00     0.190 A 
HETATM    3  O   UNL     1      43.216 -14.713   4.976  1.00  0.00    -0.194 OA
HETATM    4  N   UNL     1      43.547 -16.055   5.140  1.00  0.00    -0.106 NA
HETATM    5  C   UNL     1      43.232 -16.612   3.959  1.00  0.00     0.189 A 
HETATM    6  N   UNL     1      42.711 -15.719   3.043  1.00  0.00    -0.202 NA
BRANCH   5   7
HETATM    7  C   UNL     1      43.442 -18.023   3.645  1.00  0.00     0.014 A 
HETATM    8  C   UNL     1      43.122 -18.537   2.378  1.00  0.00     0.015 A 
HETATM    9  C   UNL     1      43.316 -19.891   2.088  1.00  0.00     0.001 A 
HETATM   10  C   UNL     1      43.832 -20.745   3.061  1.00  0.00     0.000 A 
HETATM   11  C   UNL     1      44.153 -20.249   4.322  1.00  0.00     0.001 A 
HETATM   12  C   UNL     1      43.959 -18.896   4.614  1.00  0.00     0.015 A 
ENDBRANCH   5   7
ENDBRANCH   1   2
BRANCH   1  13
HETATM   13  N   UNL     1      41.557 -13.253   2.079  1.00  0.00    -0.335 N 
HETATM   14  C   UNL     1      40.203 -13.300   2.170  1.00  0.00     0.321 C 
HETATM   15  N   UNL     1      39.485 -13.144   1.024  1.00  0.00    -0.309 N 
HETATM   16  O   UNL     1      39.611 -13.389   3.242  1.00  0.00    -0.247 OA
HETATM   17  H   UNL     1      38.514 -12.937   1.231  1.00  0.00     0.170 HD
HETATM   18  H   UNL     1      41.942 -12.845   1.241  1.00  0.00     0.164 HD
BRANCH  15  19
HETATM   19  C   UNL     1      39.833 -13.208  -0.336  1.00  0.00     0.036 A 
HETATM   20  C   UNL     1      39.513 -14.276  -1.177  1.00  0.00     0.029 A 
HETATM   21  C   UNL     1      39.902 -14.258  -2.519  1.00  0.00     0.002 A 
HETATM   22  C   UNL     1      40.601 -13.168  -3.034  1.00  0.00     0.000 A 
HETATM   23  C   UNL     1      40.892 -12.083  -2.212  1.00  0.00     0.002 A 
HETATM   24  C   UNL     1      40.497 -12.098  -0.873  1.00  0.00     0.029 A 
ENDBRANCH  15  19
ENDBRANCH   1  13
TORSDOF 4
ENDMDL
MODEL 3
REMARK VINA RESULT:      -8.2      3.803      7.379
REMARK  4 active torsions:
REMARK  status: ('A' for Active; 'I' for Inactive)
REMARK    1  A    between atoms: C_4  and  C_5 
REMARK    2  A    between atoms: C_8  and  C_9 
REMARK    3  A    between atoms: C_9  and  N_10 
REMARK       I    between atoms: N_10  and  C_11 
REMARK       I    between atoms: C_11  and  N_12 
REMARK    4  A    between atoms: N_12  and  C_13 
ROOT
HETATM    1  C   UNL     1      40.765 -15.189   4.006  1.00  0.00     0.213 C 
ENDROOT
BRANCH   1   2
HETATM    2  C   UNL     1      40.653 -14.603   2.649  1.00  0.00     0.190 A 
HETATM    3  O   UNL     1      41.465 -13.545   2.372  1.00  0.00    -0.194 OA
HETATM    4  N   UNL     1      41.130 -13.113   1.092  1.00  0.00    -0.106 NA
HETATM    5  C   UNL     1      40.151 -13.951   0.714  1.00  0.00     0.189 A 
HETATM    6  N   UNL     1      39.834 -14.902   1.664  1.00  0.00    -0.202 NA
BRANCH   5   7
HETATM    7  C   UNL     1      39.453 -13.860  -0.566  1.00  0.00     0.014 A 
HETATM    8  C   UNL     1      38.776 -12.688  -0.939  1.00  0.00     0.015 A 
HETATM    9  C   UNL     1      38.101 -12.612  -2.160  1.00  0.00     0.001 A 
HETATM   10  C   UNL     1      38.096 -13.706  -3.023  1.00  0.00     0.000 A 
HETATM   11  C   UNL     1      38.762 -14.876  -2.666  1.00  0.00     0.001 A 
HETATM   12  C   UNL     1      39.437 -14.953  -1.445  1.00  0.00     0.015 A 
ENDBRANCH   5   7
ENDBRANCH   1   2
BRANCH   1  13
HETATM   13  N   UNL     1      41.792 -16.211   4.039  1.00  0.00    -0.335 N 
HETATM   14  C   UNL     1      43.033 -15.945   4.524  1.00  0.00     0.321 C 
HETATM   15  N   UNL     1      43.882 -16.994   4.700  1.00  0.00    -0.309 N 
HETATM   16  O   UNL     1      43.380 -14.824   4.884  1.00  0.00    -0.247 OA
HETATM   17  H   UNL     1      44.661 -16.732   5.294  1.00  0.00     0.170 HD
HETATM   18  H   UNL     1      41.479 -17.168   4.092  1.00  0.00     0.164 HD
BRANCH  15  19
HETATM   19  C   UNL     1      43.871 -18.319   4.233  1.00  0.00     0.036 A 
HETATM   20  C   UNL     1      43.759 -18.674   2.887  1.00  0.00     0.029 A 
HETATM   21  C   UNL     1      43.754 -20.021   2.512  1.00  0.00     0.002 A 
HETATM   22  C   UNL     1      43.874 -21.021   3.475  1.00  0.00     0.000 A 
HETATM   23  C   UNL     1      44.023 -20.674   4.815  1.00  0.00     0.002 A 
HETATM   24  C   UNL     1      44.035 -19.330   5.190  1.00  0.00     0.029 A 
ENDBRANCH  15  19
ENDBRANCH   1  13
TORSDOF 4
ENDMDL
MODEL 4
REMARK VINA RESULT:      -8.1      4.192      6.800
REMARK  4 active torsions:
REMARK  status: ('A' for Active; 'I' for Inactive)
REMARK    1  A    between atoms: C_4  and  C_5 
REMARK    2  A    between atoms: C_8  and  C_9 
REMARK    3  A    between atoms: C_9  and  N_10 
REMARK       I    between atoms: N_10  and  C_11 
REMARK       I    between atoms: C_11  and  N_12 
REMARK    4  A    between atoms: N_12  and  C_13 
ROOT
HETATM    1  C   UNL     1      40.867 -13.880   2.597  1.00  0.00     0.213 C 
ENDROOT
BRANCH   1   2
HETATM    2  C   UNL     1      41.838 -14.999   2.551  1.00  0.00     0.190 A 
HETATM    3  O   UNL     1      42.875 -14.872   1.676  1.00  0.00    -0.194 OA
HETATM    4  N   UNL     1      43.597 -16.060   1.743  1.00  0.00    -0.106 NA
HETATM    5  C   UNL     1      42.932 -16.793   2.652  1.00  0.00     0.189 A 
HETATM    6  N   UNL     1      41.829 -16.153   3.183  1.00  0.00    -0.202 NA
BRANCH   5   7
HETATM    7  C   UNL     1      43.307 -18.152   3.031  1.00  0.00     0.014 A 
HETATM    8  C   UNL     1      43.878 -18.422   4.285  1.00  0.00     0.015 A 
HETATM    9  C   UNL     1      44.244 -19.724   4.636  1.00  0.00     0.001 A 
HETATM   10  C   UNL     1      44.044 -20.771   3.739  1.00  0.00     0.000 A 
HETATM   11  C   UNL     1      43.479 -20.518   2.491  1.00  0.00     0.001 A 
HETATM   12  C   UNL     1      43.112 -19.217   2.138  1.00  0.00     0.015 A 
ENDBRANCH   5   7
ENDBRANCH   1   2
BRANCH   1  13
HETATM   13  N   UNL     1      40.422 -13.533   1.262  1.00  0.00    -0.335 N 
HETATM   14  C   UNL     1      40.830 -12.386   0.661  1.00  0.00     0.321 C 
HETATM   15  N   UNL     1      40.529 -12.218  -0.656  1.00  0.00    -0.309 N 
HETATM   16  O   UNL     1      41.524 -11.547   1.230  1.00  0.00    -0.247 OA
HETATM   17  H   UNL     1      41.088 -11.477  -1.062  1.00  0.00     0.170 HD
HETATM   18  H   UNL     1      40.167 -14.298   0.656  1.00  0.00     0.164 HD
BRANCH  15  19
HETATM   19  C   UNL     1      39.628 -12.865  -1.517  1.00  0.00     0.036 A 
HETATM   20  C   UNL     1      39.941 -14.000  -2.269  1.00  0.00     0.029 A 
HETATM   21  C   UNL     1      38.981 -14.579  -3.104  1.00  0.00     0.002 A 
HETATM   22  C   UNL     1      37.699 -14.038  -3.185  1.00  0.00     0.000 A 
HETATM   23  C   UNL     1      37.368 -12.929  -2.412  1.00  0.00     0.002 A 
HETATM   24  C   UNL     1      38.324 -12.355  -1.572  1.00  0.00     0.029 A 
ENDBRANCH  15  19
ENDBRANCH   1  13
TORSDOF 4
ENDMDL
MODEL 5
REMARK VINA RESULT:      -8.0      1.763      2.094
REMARK  4 active torsions:
REMARK  status: ('A' for Active; 'I' for Inactive)
REMARK    1  A    between atoms: C_4  and  C_5 
REMARK    2  A    between atoms: C_8  and  C_9 
REMARK    3  A    between atoms: C_9  and  N_10 
REMARK       I    between atoms: N_10  and  C_11 
REMARK       I    between atoms: C_11  and  N_12 
REMARK    4  A    between atoms: N_12  and  C_13 
ROOT
HETATM    1  C   UNL     1      41.732 -14.402   6.483  1.00  0.00     0.213 C 
ENDROOT
BRANCH   1   2
HETATM    2  C   UNL     1      42.555 -15.546   6.023  1.00  0.00     0.190 A 
HETATM    3  O   UNL     1      43.878 -15.516   6.348  1.00  0.00    -0.194 OA
HETATM    4  N   UNL     1      44.458 -16.630   5.747  1.00  0.00    -0.106 NA
HETATM    5  C   UNL     1      43.434 -17.229   5.119  1.00  0.00     0.189 A 
HETATM    6  N   UNL     1      42.225 -16.580   5.279  1.00  0.00    -0.202 NA
BRANCH   5   7
HETATM    7  C   UNL     1      43.572 -18.438   4.311  1.00  0.00     0.014 A 
HETATM    8  C   UNL     1      43.970 -19.653   4.890  1.00  0.00     0.015 A 
HETATM    9  C   UNL     1      44.111 -20.804   4.109  1.00  0.00     0.001 A 
HETATM   10  C   UNL     1      43.855 -20.752   2.740  1.00  0.00     0.000 A 
HETATM   11  C   UNL     1      43.460 -19.553   2.151  1.00  0.00     0.001 A 
HETATM   12  C   UNL     1      43.319 -18.402   2.932  1.00  0.00     0.015 A 
ENDBRANCH   5   7
ENDBRANCH   1   2
BRANCH   1  13
HETATM   13  N   UNL     1      42.537 -13.202   6.586  1.00  0.00    -0.335 N 
HETATM   14  C   UNL     1      42.517 -12.256   5.610  1.00  0.00     0.321 C 
HETATM   15  N   UNL     1      43.146 -11.075   5.859  1.00  0.00    -0.309 N 
HETATM   16  O   UNL     1      41.889 -12.394   4.564  1.00  0.00    -0.247 OA
HETATM   17  H   UNL     1      42.856 -10.366   5.196  1.00  0.00     0.170 HD
HETATM   18  H   UNL     1      42.770 -12.890   7.516  1.00  0.00     0.164 HD
BRANCH  15  19
HETATM   19  C   UNL     1      44.077 -10.678   6.833  1.00  0.00     0.036 A 
HETATM   20  C   UNL     1      45.444 -10.956   6.767  1.00  0.00     0.029 A 
HETATM   21  C   UNL     1      46.301 -10.523   7.784  1.00  0.00     0.002 A 
HETATM   22  C   UNL     1      45.801  -9.798   8.864  1.00  0.00     0.000 A 
HETATM   23  C   UNL     1      44.446  -9.485   8.918  1.00  0.00     0.002 A 
HETATM   24  C   UNL     1      43.592  -9.911   7.900  1.00  0.00     0.029 A 
ENDBRANCH  15  19
ENDBRANCH   1  13
TORSDOF 4
ENDMDL
MODEL 6
REMARK VINA RESULT:      -7.9      4.259      7.126
REMARK  4 active torsions:
REMARK  status: ('A' for Active; 'I' for Inactive)
REMARK    1  A    between atoms: C_4  and  C_5 
REMARK    2  A    between atoms: C_8  and  C_9 
REMARK    3  A    between atoms: C_9  and  N_10 
REMARK       I    between atoms: N_10  and  C_11 
REMARK       I    between atoms: C_11  and  N_12 
REMARK    4  A    between atoms: N_12  and  C_13 
ROOT
HETATM    1  C   UNL     1      39.169 -12.897   3.097  1.00  0.00     0.213 C 
ENDROOT
BRANCH   1   2
HETATM    2  C   UNL     1      40.177 -13.879   3.562  1.00  0.00     0.190 A 
HETATM    3  O   UNL     1      40.816 -13.593   4.730  1.00  0.00    -0.194 OA
HETATM    4  N   UNL     1      41.762 -14.595   4.920  1.00  0.00    -0.106 NA
HETATM    5  C   UNL     1      41.605 -15.396   3.853  1.00  0.00     0.189 A 
HETATM    6  N   UNL     1      40.613 -14.979   2.986  1.00  0.00    -0.202 NA
BRANCH   5   7
HETATM    7  C   UNL     1      42.419 -16.581   3.600  1.00  0.00     0.014 A 
HETATM    8  C   UNL     1      42.233 -17.352   2.441  1.00  0.00     0.015 A 
HETATM    9  C   UNL     1      43.009 -18.492   2.211  1.00  0.00     0.001 A 
HETATM   10  C   UNL     1      43.978 -18.874   3.137  1.00  0.00     0.000 A 
HETATM   11  C   UNL     1      44.173 -18.119   4.291  1.00  0.00     0.001 A 
HETATM   12  C   UNL     1      43.398 -16.979   4.522  1.00  0.00     0.015 A 
ENDBRANCH   5   7
ENDBRANCH   1   2
BRANCH   1  13
HETATM   13  N   UNL     1      39.132 -12.849   1.649  1.00  0.00    -0.335 N 
HETATM   14  C   UNL     1      39.532 -11.741   0.972  1.00  0.00     0.321 C 
HETATM   15  N   UNL     1      39.651 -11.833  -0.380  1.00  0.00    -0.309 N 
HETATM   16  O   UNL     1      39.868 -10.703   1.535  1.00  0.00    -0.247 OA
HETATM   17  H   UNL     1      40.191 -11.058  -0.749  1.00  0.00     0.170 HD
HETATM   18  H   UNL     1      39.207 -13.729   1.163  1.00  0.00     0.164 HD
BRANCH  15  19
HETATM   19  C   UNL     1      39.186 -12.772  -1.317  1.00  0.00     0.036 A 
HETATM   20  C   UNL     1      39.900 -13.908  -1.706  1.00  0.00     0.029 A 
HETATM   21  C   UNL     1      39.362 -14.790  -2.647  1.00  0.00     0.002 A 
HETATM   22  C   UNL     1      38.103 -14.551  -3.196  1.00  0.00     0.000 A 
HETATM   23  C   UNL     1      37.370 -13.442  -2.786  1.00  0.00     0.002 A 
HETATM   24  C   UNL     1      37.904 -12.564  -1.841  1.00  0.00     0.029 A 
ENDBRANCH  15  19
ENDBRANCH   1  13
TORSDOF 4
ENDMDL
MODEL 7
REMARK VINA RESULT:      -7.8      1.857      7.837
REMARK  4 active torsions:
REMARK  status: ('A' for Active; 'I' for Inactive)
REMARK    1  A    between atoms: C_4  and  C_5 
REMARK    2  A    between atoms: C_8  and  C_9 
REMARK    3  A    between atoms: C_9  and  N_10 
REMARK       I    between atoms: N_10  and  C_11 
REMARK       I    between atoms: C_11  and  N_12 
REMARK    4  A    between atoms: N_12  and  C_13 
ROOT
HETATM    1  C   UNL     1      42.732 -12.121   3.635  1.00  0.00     0.213 C 
ENDROOT
BRANCH   1   2
HETATM    2  C   UNL     1      43.483 -11.545   4.775  1.00  0.00     0.190 A 
HETATM    3  O   UNL     1      44.833 -11.435   4.625  1.00  0.00    -0.194 OA
HETATM    4  N   UNL     1      45.329 -10.957   5.834  1.00  0.00    -0.106 NA
HETATM    5  C   UNL     1      44.235 -10.820   6.601  1.00  0.00     0.189 A 
HETATM    6  N   UNL     1      43.061 -11.172   5.964  1.00  0.00    -0.202 NA
BRANCH   5   7
HETATM    7  C   UNL     1      44.268 -10.372   7.991  1.00  0.00     0.014 A 
HETATM    8  C   UNL     1      43.111  -9.893   8.624  1.00  0.00     0.015 A 
HETATM    9  C   UNL     1      43.153  -9.456   9.951  1.00  0.00     0.001 A 
HETATM   10  C   UNL     1      44.353  -9.493  10.659  1.00  0.00     0.000 A 
HETATM   11  C   UNL     1      45.509  -9.965  10.044  1.00  0.00     0.001 A 
HETATM   12  C   UNL     1      45.469 -10.402   8.717  1.00  0.00     0.015 A 
ENDBRANCH   5   7
ENDBRANCH   1   2
BRANCH   1  13
HETATM   13  N   UNL     1      42.609 -13.557   3.777  1.00  0.00    -0.335 N 
HETATM   14  C   UNL     1      41.500 -14.117   4.326  1.00  0.00     0.321 C 
HETATM   15  N   UNL     1      41.371 -15.470   4.254  1.00  0.00    -0.309 N 
HETATM   16  O   UNL     1      40.584 -13.451   4.801  1.00  0.00    -0.247 OA
HETATM   17  H   UNL     1      40.418 -15.753   4.451  1.00  0.00     0.170 HD
HETATM   18  H   UNL     1      43.127 -14.124   3.123  1.00  0.00     0.164 HD
BRANCH  15  19
HETATM   19  C   UNL     1      42.280 -16.501   3.961  1.00  0.00     0.036 A 
HETATM   20  C   UNL     1      43.230 -16.987   4.862  1.00  0.00     0.029 A 
HETATM   21  C   UNL     1      44.098 -18.015   4.484  1.00  0.00     0.002 A 
HETATM   22  C   UNL     1      44.015 -18.574   3.210  1.00  0.00     0.000 A 
HETATM   23  C   UNL     1      43.047 -18.121   2.319  1.00  0.00     0.002 A 
HETATM   24  C   UNL     1      42.176 -17.098   2.698  1.00  0.00     0.029 A 
ENDBRANCH  15  19
ENDBRANCH   1  13
TORSDOF 4
ENDMDL
MODEL 8
REMARK VINA RESULT:      -7.7      3.904      7.078
REMARK  4 active torsions:
REMARK  status: ('A' for Active; 'I' for Inactive)
REMARK    1  A    between atoms: C_4  and  C_5 
REMARK    2  A    between atoms: C_8  and  C_9 
REMARK    3  A    between atoms: C_9  and  N_10 
REMARK       I    between atoms: N_10  and  C_11 
REMARK       I    between atoms: C_11  and  N_12 
REMARK    4  A    between atoms: N_12  and  C_13 
ROOT
HETATM    1  C   UNL     1      42.724 -12.636   2.782  1.00  0.00     0.213 C 
ENDROOT
BRANCH   1   2
HETATM    2  C   UNL     1      41.685 -12.441   1.743  1.00  0.00     0.190 A 
HETATM    3  O   UNL     1      40.967 -11.285   1.806  1.00  0.00    -0.194 OA
HETATM    4  N   UNL     1      40.008 -11.359   0.800  1.00  0.00    -0.106 NA
HETATM    5  C   UNL     1      40.237 -12.549   0.221  1.00  0.00     0.189 A 
HETATM    6  N   UNL     1      41.287 -13.249   0.783  1.00  0.00    -0.202 NA
BRANCH   5   7
HETATM    7  C   UNL     1      39.441 -13.084  -0.880  1.00  0.00     0.014 A 
HETATM    8  C   UNL     1      39.841 -14.240  -1.568  1.00  0.00     0.015 A 
HETATM    9  C   UNL     1      39.079 -14.739  -2.628  1.00  0.00     0.001 A 
HETATM   10  C   UNL     1      37.909 -14.088  -3.013  1.00  0.00     0.000 A 
HETATM   11  C   UNL     1      37.500 -12.939  -2.340  1.00  0.00     0.001 A 
HETATM   12  C   UNL     1      38.261 -12.439  -1.280  1.00  0.00     0.015 A 
ENDBRANCH   5   7
ENDBRANCH   1   2
BRANCH   1  13
HETATM   13  N   UNL     1      42.781 -14.024   3.194  1.00  0.00    -0.335 N 
HETATM   14  C   UNL     1      42.282 -14.422   4.394  1.00  0.00     0.321 C 
HETATM   15  N   UNL     1      42.197 -15.759   4.632  1.00  0.00    -0.309 N 
HETATM   16  O   UNL     1      41.832 -13.635   5.222  1.00  0.00    -0.247 OA
HETATM   17  H   UNL     1      41.587 -15.947   5.420  1.00  0.00     0.170 HD
HETATM   18  H   UNL     1      42.804 -14.715   2.461  1.00  0.00     0.164 HD
BRANCH  15  19
HETATM   19  C   UNL     1      42.770 -16.878   4.005  1.00  0.00     0.036 A 
HETATM   20  C   UNL     1      42.368 -17.370   2.761  1.00  0.00     0.029 A 
HETATM   21  C   UNL     1      42.994 -18.492   2.211  1.00  0.00     0.002 A 
HETATM   22  C   UNL     1      44.033 -19.123   2.893  1.00  0.00     0.000 A 
HETATM   23  C   UNL     1      44.464 -18.618   4.115  1.00  0.00     0.002 A 
HETATM   24  C   UNL     1      43.844 -17.492   4.661  1.00  0.00     0.029 A 
ENDBRANCH  15  19
ENDBRANCH   1  13
TORSDOF 4
ENDMDL
MODEL 9
REMARK VINA RESULT:      -7.6      2.243      3.230
REMARK  4 active torsions:
REMARK  status: ('A' for Active; 'I' for Inactive)
REMARK    1  A    between atoms: C_4  and  C_5 
REMARK    2  A    between atoms: C_8  and  C_9 
REMARK    3  A    between atoms: C_9  and  N_10 
REMARK       I    between atoms: N_10  and  C_11 
REMARK       I    between atoms: C_11  and  N_12 
REMARK    4  A    between atoms: N_12  and  C_13 
ROOT
HETATM    1  C   UNL     1      39.941 -12.493   6.135  1.00  0.00     0.213 C 
ENDROOT
BRANCH   1   2
HETATM    2  C   UNL     1      40.371 -13.874   5.808  1.00  0.00     0.190 A 
HETATM    3  O   UNL     1      39.900 -14.867   6.613  1.00  0.00    -0.194 OA
HETATM    4  N   UNL     1      40.494 -16.047   6.175  1.00  0.00    -0.106 NA
HETATM    5  C   UNL     1      41.264 -15.659   5.146  1.00  0.00     0.189 A 
HETATM    6  N   UNL     1      41.203 -14.304   4.884  1.00  0.00    -0.202 NA
BRANCH   5   7
HETATM    7  C   UNL     1      42.118 -16.566   4.383  1.00  0.00     0.014 A 
HETATM    8  C   UNL     1      41.916 -16.764   3.008  1.00  0.00     0.015 A 
HETATM    9  C   UNL     1      42.730 -17.642   2.287  1.00  0.00     0.001 A 
HETATM   10  C   UNL     1      43.755 -18.331   2.932  1.00  0.00     0.000 A 
HETATM   11  C   UNL     1      43.967 -18.145   4.296  1.00  0.00     0.001 A 
HETATM   12  C   UNL     1      43.153 -17.268   5.018  1.00  0.00     0.015 A 
ENDBRANCH   5   7
ENDBRANCH   1   2
BRANCH   1  13
HETATM   13  N   UNL     1      41.076 -11.688   6.541  1.00  0.00    -0.335 N 
HETATM   14  C   UNL     1      41.504 -10.645   5.783  1.00  0.00     0.321 C 
HETATM   15  N   UNL     1      42.447  -9.821   6.315  1.00  0.00    -0.309 N 
HETATM   16  O   UNL     1      41.017 -10.373   4.689  1.00  0.00    -0.247 OA
HETATM   17  H   UNL     1      42.503  -8.953   5.794  1.00  0.00     0.170 HD
HETATM   18  H   UNL     1      41.268 -11.640   7.529  1.00  0.00     0.164 HD
BRANCH  15  19
HETATM   19  C   UNL     1      43.314  -9.947   7.413  1.00  0.00     0.036 A 
HETATM   20  C   UNL     1      43.004  -9.525   8.708  1.00  0.00     0.029 A 
HETATM   21  C   UNL     1      43.929  -9.688   9.743  1.00  0.00     0.002 A 
HETATM   22  C   UNL     1      45.164 -10.285   9.496  1.00  0.00     0.000 A 
HETATM   23  C   UNL     1      45.466 -10.742   8.217  1.00  0.00     0.002 A 
HETATM   24  C   UNL     1      44.540 -10.585   7.184  1.00  0.00     0.029 A 
ENDBRANCH  15  19
ENDBRANCH   1  13
TORSDOF 4
ENDMDL
MODEL 10
REMARK VINA RESULT:      -7.6      2.284      3.534
REMARK  4 active torsions:
REMARK  status: ('A' for Active; 'I' for Inactive)
REMARK    1  A    between atoms: C_4  and  C_5 
REMARK    2  A    between atoms: C_8  and  C_9 
REMARK    3  A    between atoms: C_9  and  N_10 
REMARK       I    between atoms: N_10  and  C_11 
REMARK       I    between atoms: C_11  and  N_12 
REMARK    4  A    between atoms: N_12  and  C_13 
ROOT
HETATM    1  C   UNL     1      42.702 -11.645   5.629  1.00  0.00     0.213 C 
ENDROOT
BRANCH   1   2
HETATM    2  C   UNL     1      42.843 -13.120   5.608  1.00  0.00     0.190 A 
HETATM    3  O   UNL     1      42.879 -13.748   6.816  1.00  0.00    -0.194 OA
HETATM    4  N   UNL     1      43.099 -15.097   6.556  1.00  0.00    -0.106 NA
HETATM    5  C   UNL     1      43.172 -15.160   5.216  1.00  0.00     0.189 A 
HETATM    6  N   UNL     1      43.007 -13.939   4.591  1.00  0.00    -0.202 NA
BRANCH   5   7
HETATM    7  C   UNL     1      43.433 -16.391   4.474  1.00  0.00     0.014 A 
HETATM    8  C   UNL     1      42.925 -16.576   3.179  1.00  0.00     0.015 A 
HETATM    9  C   UNL     1      43.169 -17.761   2.479  1.00  0.00     0.001 A 
HETATM   10  C   UNL     1      43.925 -18.774   3.066  1.00  0.00     0.000 A 
HETATM   11  C   UNL     1      44.435 -18.605   4.351  1.00  0.00     0.001 A 
HETATM   12  C   UNL     1      44.191 -17.420   5.052  1.00  0.00     0.015 A 
ENDBRANCH   5   7
ENDBRANCH   1   2
BRANCH   1  13
HETATM   13  N   UNL     1      43.260 -11.096   6.849  1.00  0.00    -0.335 N 
HETATM   14  C   UNL     1      44.593 -10.863   6.969  1.00  0.00     0.321 C 
HETATM   15  N   UNL     1      45.019 -10.173   8.063  1.00  0.00    -0.309 N 
HETATM   16  O   UNL     1      45.403 -11.170   6.100  1.00  0.00    -0.247 OA
HETATM   17  H   UNL     1      45.965  -9.834   7.929  1.00  0.00     0.170 HD
HETATM   18  H   UNL     1      42.647 -10.528   7.413  1.00  0.00     0.164 HD
BRANCH  15  19
HETATM   19  C   UNL     1      44.408  -9.854   9.287  1.00  0.00     0.036 A 
HETATM   20  C   UNL     1      44.219 -10.765  10.328  1.00  0.00     0.029 A 
HETATM   21  C   UNL     1      43.598 -10.361  11.514  1.00  0.00     0.002 A 
HETATM   22  C   UNL     1      43.175  -9.043  11.673  1.00  0.00     0.000 A 
HETATM   23  C   UNL     1      43.393  -8.120  10.654  1.00  0.00     0.002 A 
HETATM   24  C   UNL     1      44.019  -8.521   9.473  1.00  0.00     0.029 A 
ENDBRANCH  15  19
ENDBRANCH   1  13
TORSDOF 4
ENDMDL
