MODEL 1
REMARK VINA RESULT:      -7.9      0.000      0.000
REMARK  6 active torsions:
REMARK  status: ('A' for Active; 'I' for Inactive)
REMARK    1  A    between atoms: C_2  and  N_3 
REMARK    2  A    between atoms: C_4  and  S_5 
REMARK    3  A    between atoms: S_5  and  C_6 
REMARK    4  A    between atoms: C_6  and  C_7 
REMARK       I    between atoms: C_7  and  N_8 
REMARK    5  A    between atoms: N_8  and  C_9 
REMARK    6  A    between atoms: C_23  and  C_24 
ROOT
HETATM    1  C   UNL     1      42.429 -13.508   2.954  1.00  0.00     0.231 C 
HETATM    2  N   UNL     1      41.876 -14.588   3.625  1.00  0.00    -0.325 N 
HETATM    3  O   UNL     1      43.511 -13.524   2.372  1.00  0.00    -0.272 OA
HETATM    4  H   UNL     1      40.860 -14.659   3.546  1.00  0.00     0.169 HD
ENDROOT
BRANCH   2   5
HETATM    5  C   UNL     1      42.558 -15.813   3.795  1.00  0.00     0.054 A 
HETATM    6  C   UNL     1      43.404 -16.091   4.909  1.00  0.00     0.040 A 
HETATM    7 BR   UNL     1      43.553 -14.912   6.401  1.00  0.00    -0.049 Br
HETATM    8  C   UNL     1      44.058 -17.326   5.033  1.00  0.00     0.053 A 
HETATM    9  C   UNL     1      43.830 -18.249   4.043  1.00  0.00     0.064 A 
HETATM   10  C   UNL     1      42.978 -17.996   2.971  1.00  0.00     0.065 A 
HETATM   11  N   UNL     1      44.328 -19.540   3.899  1.00  0.00    -0.306 N 
HETATM   12  N   UNL     1      42.961 -19.127   2.161  1.00  0.00    -0.306 N 
HETATM   13  C   UNL     1      42.312 -16.802   2.828  1.00  0.00     0.063 A 
HETATM   14  C   UNL     1      43.799 -20.099   2.727  1.00  0.00     0.325 A 
HETATM   15  H   UNL     1      42.450 -19.256   1.304  1.00  0.00     0.170 HD
HETATM   16  O   UNL     1      44.023 -21.211   2.286  1.00  0.00    -0.247 OA
HETATM   17  H   UNL     1      44.965 -20.022   4.511  1.00  0.00     0.170 HD
ENDBRANCH   2   5
BRANCH   1  18
HETATM   18  C   UNL     1      41.592 -12.242   3.016  1.00  0.00     0.185 C 
BRANCH  18  19
HETATM   19  S   UNL     1      39.822 -12.550   2.730  1.00  0.00    -0.081 SA
BRANCH  19  20
HETATM   20  C   UNL     1      39.928 -13.385   1.225  1.00  0.00     0.192 A 
HETATM   21  N   UNL     1      39.777 -12.811  -0.005  1.00  0.00    -0.311 N 
HETATM   22  C   UNL     1      39.640 -13.866  -0.875  1.00  0.00     0.135 A 
HETATM   23  N   UNL     1      39.787 -14.995  -0.212  1.00  0.00    -0.134 NA
HETATM   24  N   UNL     1      39.975 -14.691   1.110  1.00  0.00    -0.123 NA
BRANCH  21  25
HETATM   25  C   UNL     1      39.725 -11.404  -0.335  1.00  0.00     0.128 C 
HETATM   26  C   UNL     1      41.069 -10.856  -0.784  1.00  0.00     0.027 C 
ENDBRANCH  21  25
BRANCH  22  27
HETATM   27  C   UNL     1      39.314 -13.792  -2.361  1.00  0.00     0.057 A 
HETATM   28  C   UNL     1      38.597 -14.961  -3.001  1.00  0.00     0.013 A 
HETATM   29  C   UNL     1      37.850 -13.698  -2.747  1.00  0.00     0.013 A 
ENDBRANCH  22  27
ENDBRANCH  19  20
ENDBRANCH  18  19
ENDBRANCH   1  18
TORSDOF 6
ENDMDL
MODEL 2
REMARK VINA RESULT:      -7.8      1.501      2.123
REMARK  6 active torsions:
REMARK  status: ('A' for Active; 'I' for Inactive)
REMARK    1  A    between atoms: C_2  and  N_3 
REMARK    2  A    between atoms: C_4  and  S_5 
REMARK    3  A    between atoms: S_5  and  C_6 
REMARK    4  A    between atoms: C_6  and  C_7 
REMARK       I    between atoms: C_7  and  N_8 
REMARK    5  A    between atoms: N_8  and  C_9 
REMARK    6  A    between atoms: C_23  and  C_24 
ROOT
HETATM    1  C   UNL     1      41.534 -14.094   4.426  1.00  0.00     0.231 C 
HETATM    2  N   UNL     1      42.826 -14.580   4.300  1.00  0.00    -0.325 N 
HETATM    3  O   UNL     1      40.574 -14.749   4.826  1.00  0.00    -0.272 OA
HETATM    4  H   UNL     1      43.556 -13.903   4.530  1.00  0.00     0.169 HD
ENDROOT
BRANCH   2   5
HETATM    5  C   UNL     1      43.159 -15.934   4.529  1.00  0.00     0.054 A 
HETATM    6  C   UNL     1      43.439 -16.464   5.822  1.00  0.00     0.040 A 
HETATM    7 BR   UNL     1      43.198 -15.449   7.419  1.00  0.00    -0.049 Br
HETATM    8  C   UNL     1      43.762 -17.818   5.997  1.00  0.00     0.053 A 
HETATM    9  C   UNL     1      43.780 -18.600   4.869  1.00  0.00     0.064 A 
HETATM   10  C   UNL     1      43.475 -18.095   3.608  1.00  0.00     0.065 A 
HETATM   11  N   UNL     1      44.059 -19.956   4.732  1.00  0.00    -0.306 N 
HETATM   12  N   UNL     1      43.577 -19.138   2.693  1.00  0.00    -0.306 N 
HETATM   13  C   UNL     1      43.141 -16.777   3.406  1.00  0.00     0.063 A 
HETATM   14  C   UNL     1      43.941 -20.306   3.379  1.00  0.00     0.325 A 
HETATM   15  H   UNL     1      43.428 -19.094   1.698  1.00  0.00     0.170 HD
HETATM   16  O   UNL     1      44.119 -21.408   2.895  1.00  0.00    -0.247 OA
HETATM   17  H   UNL     1      44.309 -20.606   5.458  1.00  0.00     0.170 HD
ENDBRANCH   2   5
BRANCH   1  18
HETATM   18  C   UNL     1      41.367 -12.648   3.989  1.00  0.00     0.185 C 
BRANCH  18  19
HETATM   19  S   UNL     1      42.230 -12.278   2.430  1.00  0.00    -0.081 SA
BRANCH  19  20
HETATM   20  C   UNL     1      40.903 -12.424   1.339  1.00  0.00     0.192 A 
HETATM   21  N   UNL     1      40.566 -13.558   0.657  1.00  0.00    -0.311 N 
HETATM   22  C   UNL     1      39.664 -13.146  -0.294  1.00  0.00     0.135 A 
HETATM   23  N   UNL     1      39.416 -11.862  -0.128  1.00  0.00    -0.134 NA
HETATM   24  N   UNL     1      40.193 -11.409   0.905  1.00  0.00    -0.123 NA
BRANCH  21  25
HETATM   25  C   UNL     1      41.071 -14.899   0.848  1.00  0.00     0.128 C 
HETATM   26  C   UNL     1      40.057 -15.820   1.505  1.00  0.00     0.027 C 
ENDBRANCH  21  25
BRANCH  22  27
HETATM   27  C   UNL     1      39.062 -13.986  -1.413  1.00  0.00     0.057 A 
HETATM   28  C   UNL     1      38.639 -13.292  -2.689  1.00  0.00     0.013 A 
HETATM   29  C   UNL     1      39.872 -14.128  -2.687  1.00  0.00     0.013 A 
ENDBRANCH  22  27
ENDBRANCH  19  20
ENDBRANCH  18  19
ENDBRANCH   1  18
TORSDOF 6
ENDMDL
MODEL 3
REMARK VINA RESULT:      -7.8      4.021      6.666
REMARK  6 active torsions:
REMARK  status: ('A' for Active; 'I' for Inactive)
REMARK    1  A    between atoms: C_2  and  N_3 
REMARK    2  A    between atoms: C_4  and  S_5 
REMARK    3  A    between atoms: S_5  and  C_6 
REMARK    4  A    between atoms: C_6  and  C_7 
REMARK       I    between atoms: C_7  and  N_8 
REMARK    5  A    between atoms: N_8  and  C_9 
REMARK    6  A    between atoms: C_23  and  C_24 
ROOT
HETATM    1  C   UNL     1      41.549 -14.095   4.752  1.00  0.00     0.231 C 
HETATM    2  N   UNL     1      42.838 -14.547   4.514  1.00  0.00    -0.325 N 
HETATM    3  O   UNL     1      40.594 -14.816   5.033  1.00  0.00    -0.272 OA
HETATM    4  H   UNL     1      43.573 -13.927   4.859  1.00  0.00     0.169 HD
ENDROOT
BRANCH   2   5
HETATM    5  C   UNL     1      43.171 -15.920   4.471  1.00  0.00     0.054 A 
HETATM    6  C   UNL     1      43.586 -16.661   5.615  1.00  0.00     0.040 A 
HETATM    7 BR   UNL     1      43.546 -15.933   7.377  1.00  0.00    -0.049 Br
HETATM    8  C   UNL     1      43.903 -18.025   5.520  1.00  0.00     0.053 A 
HETATM    9  C   UNL     1      43.779 -18.604   4.281  1.00  0.00     0.064 A 
HETATM   10  C   UNL     1      43.342 -17.892   3.167  1.00  0.00     0.065 A 
HETATM   11  N   UNL     1      44.016 -19.916   3.886  1.00  0.00    -0.306 N 
HETATM   12  N   UNL     1      43.321 -18.764   2.084  1.00  0.00    -0.306 N 
HETATM   13  C   UNL     1      43.010 -16.560   3.231  1.00  0.00     0.063 A 
HETATM   14  C   UNL     1      43.740 -20.031   2.516  1.00  0.00     0.325 A 
HETATM   15  H   UNL     1      43.061 -18.553   1.135  1.00  0.00     0.170 HD
HETATM   16  O   UNL     1      43.842 -21.035   1.835  1.00  0.00    -0.247 OA
HETATM   17  H   UNL     1      44.336 -20.680   4.458  1.00  0.00     0.170 HD
ENDBRANCH   2   5
BRANCH   1  18
HETATM   18  C   UNL     1      41.380 -12.593   4.606  1.00  0.00     0.185 C 
BRANCH  18  19
HETATM   19  S   UNL     1      42.961 -11.722   4.383  1.00  0.00    -0.081 SA
BRANCH  19  20
HETATM   20  C   UNL     1      43.429 -11.571   6.036  1.00  0.00     0.192 A 
HETATM   21  N   UNL     1      43.113 -10.522   6.850  1.00  0.00    -0.311 N 
HETATM   22  C   UNL     1      43.922 -10.669   7.951  1.00  0.00     0.135 A 
HETATM   23  N   UNL     1      44.613 -11.786   7.833  1.00  0.00    -0.134 NA
HETATM   24  N   UNL     1      44.296 -12.357   6.629  1.00  0.00    -0.123 NA
BRANCH  21  25
HETATM   25  C   UNL     1      42.169  -9.454   6.606  1.00  0.00     0.128 C 
HETATM   26  C   UNL     1      40.803  -9.727   7.212  1.00  0.00     0.027 C 
ENDBRANCH  21  25
BRANCH  22  27
HETATM   27  C   UNL     1      44.073  -9.699   9.115  1.00  0.00     0.057 A 
HETATM   28  C   UNL     1      45.399  -9.646   9.843  1.00  0.00     0.013 A 
HETATM   29  C   UNL     1      45.024  -8.532   8.928  1.00  0.00     0.013 A 
ENDBRANCH  22  27
ENDBRANCH  19  20
ENDBRANCH  18  19
ENDBRANCH   1  18
TORSDOF 6
ENDMDL
MODEL 4
REMARK VINA RESULT:      -7.8      3.122      7.879
REMARK  6 active torsions:
REMARK  status: ('A' for Active; 'I' for Inactive)
REMARK    1  A    between atoms: C_2  and  N_3 
REMARK    2  A    between atoms: C_4  and  S_5 
REMARK    3  A    between atoms: S_5  and  C_6 
REMARK    4  A    between atoms: C_6  and  C_7 
REMARK       I    between atoms: C_7  and  N_8 
REMARK    5  A    between atoms: N_8  and  C_9 
REMARK    6  A    between atoms: C_23  and  C_24 
ROOT
HETATM    1  C   UNL     1      40.299 -14.670   2.520  1.00  0.00     0.231 C 
HETATM    2  N   UNL     1      40.542 -13.657   1.605  1.00  0.00    -0.325 N 
HETATM    3  O   UNL     1      39.463 -15.560   2.376  1.00  0.00    -0.272 OA
HETATM    4  H   UNL     1      41.523 -13.384   1.529  1.00  0.00     0.169 HD
ENDROOT
BRANCH   2   5
HETATM    5  C   UNL     1      39.771 -13.483   0.434  1.00  0.00     0.054 A 
HETATM    6  C   UNL     1      38.939 -12.348   0.206  1.00  0.00     0.040 A 
HETATM    7 BR   UNL     1      38.929 -10.836   1.367  1.00  0.00    -0.049 Br
HETATM    8  C   UNL     1      38.195 -12.221  -0.977  1.00  0.00     0.053 A 
HETATM    9  C   UNL     1      38.320 -13.231  -1.898  1.00  0.00     0.064 A 
HETATM   10  C   UNL     1      39.156 -14.325  -1.695  1.00  0.00     0.065 A 
HETATM   11  N   UNL     1      37.718 -13.377  -3.143  1.00  0.00    -0.306 N 
HETATM   12  N   UNL     1      39.060 -15.151  -2.810  1.00  0.00    -0.306 N 
HETATM   13  C   UNL     1      39.909 -14.472  -0.554  1.00  0.00     0.063 A 
HETATM   14  C   UNL     1      38.165 -14.573  -3.723  1.00  0.00     0.325 A 
HETATM   15  H   UNL     1      39.533 -16.026  -2.965  1.00  0.00     0.170 HD
HETATM   16  O   UNL     1      37.841 -15.022  -4.807  1.00  0.00    -0.247 OA
HETATM   17  H   UNL     1      37.063 -12.752  -3.585  1.00  0.00     0.170 HD
ENDBRANCH   2   5
BRANCH   1  18
HETATM   18  C   UNL     1      41.143 -14.587   3.780  1.00  0.00     0.185 C 
BRANCH  18  19
HETATM   19  S   UNL     1      42.928 -14.688   3.442  1.00  0.00    -0.081 SA
BRANCH  19  20
HETATM   20  C   UNL     1      43.103 -16.403   3.394  1.00  0.00     0.192 A 
HETATM   21  N   UNL     1      43.609 -17.170   4.404  1.00  0.00    -0.311 N 
HETATM   22  C   UNL     1      43.840 -18.400   3.836  1.00  0.00     0.135 A 
HETATM   23  N   UNL     1      43.416 -18.386   2.588  1.00  0.00    -0.134 NA
HETATM   24  N   UNL     1      42.946 -17.129   2.313  1.00  0.00    -0.123 NA
BRANCH  21  25
HETATM   25  C   UNL     1      43.889 -16.781   5.768  1.00  0.00     0.128 C 
HETATM   26  C   UNL     1      42.647 -16.763   6.642  1.00  0.00     0.027 C 
ENDBRANCH  21  25
BRANCH  22  27
HETATM   27  C   UNL     1      44.523 -19.597   4.484  1.00  0.00     0.057 A 
HETATM   28  C   UNL     1      43.810 -20.310   5.612  1.00  0.00     0.013 A 
HETATM   29  C   UNL     1      43.886 -20.957   4.273  1.00  0.00     0.013 A 
ENDBRANCH  22  27
ENDBRANCH  19  20
ENDBRANCH  18  19
ENDBRANCH   1  18
TORSDOF 6
ENDMDL
MODEL 5
REMARK VINA RESULT:      -6.7      3.283      8.489
REMARK  6 active torsions:
REMARK  status: ('A' for Active; 'I' for Inactive)
REMARK    1  A    between atoms: C_2  and  N_3 
REMARK    2  A    between atoms: C_4  and  S_5 
REMARK    3  A    between atoms: S_5  and  C_6 
REMARK    4  A    between atoms: C_6  and  C_7 
REMARK       I    between atoms: C_7  and  N_8 
REMARK    5  A    between atoms: N_8  and  C_9 
REMARK    6  A    between atoms: C_23  and  C_24 
ROOT
HETATM    1  C   UNL     1      40.137 -13.824   2.550  1.00  0.00     0.231 C 
HETATM    2  N   UNL     1      41.121 -13.574   1.605  1.00  0.00    -0.325 N 
HETATM    3  O   UNL     1      39.070 -13.219   2.627  1.00  0.00    -0.272 OA
HETATM    4  H   UNL     1      41.610 -14.408   1.275  1.00  0.00     0.169 HD
ENDROOT
BRANCH   2   5
HETATM    5  C   UNL     1      41.039 -12.511   0.678  1.00  0.00     0.054 A 
HETATM    6  C   UNL     1      40.490 -12.653  -0.629  1.00  0.00     0.040 A 
HETATM    7 BR   UNL     1      39.618 -14.248  -1.207  1.00  0.00    -0.049 Br
HETATM    8  C   UNL     1      40.428 -11.564  -1.512  1.00  0.00     0.053 A 
HETATM    9  C   UNL     1      40.907 -10.363  -1.048  1.00  0.00     0.064 A 
HETATM   10  C   UNL     1      41.413 -10.212   0.240  1.00  0.00     0.065 A 
HETATM   11  N   UNL     1      40.973  -9.128  -1.683  1.00  0.00    -0.306 N 
HETATM   12  N   UNL     1      41.802  -8.885   0.393  1.00  0.00    -0.306 N 
HETATM   13  C   UNL     1      41.474 -11.255   1.133  1.00  0.00     0.063 A 
HETATM   14  C   UNL     1      41.534  -8.196  -0.799  1.00  0.00     0.325 A 
HETATM   15  H   UNL     1      42.215  -8.460   1.207  1.00  0.00     0.170 HD
HETATM   16  O   UNL     1      41.747  -7.018  -1.022  1.00  0.00    -0.247 OA
HETATM   17  H   UNL     1      40.681  -8.905  -2.620  1.00  0.00     0.170 HD
ENDBRANCH   2   5
BRANCH   1  18
HETATM   18  C   UNL     1      40.492 -14.917   3.544  1.00  0.00     0.185 C 
BRANCH  18  19
HETATM   19  S   UNL     1      42.229 -14.848   4.078  1.00  0.00    -0.081 SA
BRANCH  19  20
HETATM   20  C   UNL     1      42.680 -16.483   3.761  1.00  0.00     0.192 A 
HETATM   21  N   UNL     1      43.209 -17.344   4.679  1.00  0.00    -0.311 N 
HETATM   22  C   UNL     1      43.684 -18.402   3.941  1.00  0.00     0.135 A 
HETATM   23  N   UNL     1      43.377 -18.216   2.672  1.00  0.00    -0.134 NA
HETATM   24  N   UNL     1      42.738 -17.009   2.561  1.00  0.00    -0.123 NA
BRANCH  21  25
HETATM   25  C   UNL     1      43.300 -17.179   6.112  1.00  0.00     0.128 C 
HETATM   26  C   UNL     1      44.584 -16.492   6.545  1.00  0.00     0.027 C 
ENDBRANCH  21  25
BRANCH  22  27
HETATM   27  C   UNL     1      44.488 -19.590   4.452  1.00  0.00     0.057 A 
HETATM   28  C   UNL     1      43.886 -20.456   5.536  1.00  0.00     0.013 A 
HETATM   29  C   UNL     1      43.954 -20.975   4.142  1.00  0.00     0.013 A 
ENDBRANCH  22  27
ENDBRANCH  19  20
ENDBRANCH  18  19
ENDBRANCH   1  18
TORSDOF 6
ENDMDL
MODEL 6
REMARK VINA RESULT:      -6.7      6.336      9.019
REMARK  6 active torsions:
REMARK  status: ('A' for Active; 'I' for Inactive)
REMARK    1  A    between atoms: C_2  and  N_3 
REMARK    2  A    between atoms: C_4  and  S_5 
REMARK    3  A    between atoms: S_5  and  C_6 
REMARK    4  A    between atoms: C_6  and  C_7 
REMARK       I    between atoms: C_7  and  N_8 
REMARK    5  A    between atoms: N_8  and  C_9 
REMARK    6  A    between atoms: C_23  and  C_24 
ROOT
HETATM    1  C   UNL     1      42.975 -11.621   6.166  1.00  0.00     0.231 C 
HETATM    2  N   UNL     1      42.220 -12.751   6.439  1.00  0.00    -0.325 N 
HETATM    3  O   UNL     1      43.740 -11.503   5.212  1.00  0.00    -0.272 OA
HETATM    4  H   UNL     1      41.293 -12.557   6.822  1.00  0.00     0.169 HD
ENDROOT
BRANCH   2   5
HETATM    5  C   UNL     1      42.329 -13.943   5.688  1.00  0.00     0.054 A 
HETATM    6  C   UNL     1      41.486 -14.252   4.581  1.00  0.00     0.040 A 
HETATM    7 BR   UNL     1      40.244 -12.997   3.859  1.00  0.00    -0.049 Br
HETATM    8  C   UNL     1      41.637 -15.449   3.865  1.00  0.00     0.053 A 
HETATM    9  C   UNL     1      42.640 -16.293   4.276  1.00  0.00     0.064 A 
HETATM   10  C   UNL     1      43.488 -15.981   5.336  1.00  0.00     0.065 A 
HETATM   11  N   UNL     1      43.025 -17.528   3.768  1.00  0.00    -0.306 N 
HETATM   12  N   UNL     1      44.387 -17.031   5.486  1.00  0.00    -0.306 N 
HETATM   13  C   UNL     1      43.374 -14.810   6.047  1.00  0.00     0.063 A 
HETATM   14  C   UNL     1      44.111 -18.005   4.515  1.00  0.00     0.325 A 
HETATM   15  H   UNL     1      45.121 -17.113   6.171  1.00  0.00     0.170 HD
HETATM   16  O   UNL     1      44.700 -19.058   4.353  1.00  0.00    -0.247 OA
HETATM   17  H   UNL     1      42.614 -18.029   2.997  1.00  0.00     0.170 HD
ENDBRANCH   2   5
BRANCH   1  18
HETATM   18  C   UNL     1      42.814 -10.504   7.183  1.00  0.00     0.185 C 
BRANCH  18  19
HETATM   19  S   UNL     1      44.389 -10.017   7.952  1.00  0.00    -0.081 SA
BRANCH  19  20
HETATM   20  C   UNL     1      43.878  -9.926   9.596  1.00  0.00     0.192 A 
HETATM   21  N   UNL     1      43.586  -8.773  10.266  1.00  0.00    -0.311 N 
HETATM   22  C   UNL     1      43.523  -9.137  11.590  1.00  0.00     0.135 A 
HETATM   23  N   UNL     1      43.682 -10.442  11.687  1.00  0.00    -0.134 NA
HETATM   24  N   UNL     1      43.900 -10.939  10.429  1.00  0.00    -0.123 NA
BRANCH  21  25
HETATM   25  C   UNL     1      43.420  -7.442   9.726  1.00  0.00     0.128 C 
HETATM   26  C   UNL     1      42.050  -7.225   9.108  1.00  0.00     0.027 C 
ENDBRANCH  21  25
BRANCH  22  27
HETATM   27  C   UNL     1      43.354  -8.213  12.789  1.00  0.00     0.057 A 
HETATM   28  C   UNL     1      42.049  -7.462  12.942  1.00  0.00     0.013 A 
HETATM   29  C   UNL     1      42.336  -8.617  13.838  1.00  0.00     0.013 A 
ENDBRANCH  22  27
ENDBRANCH  19  20
ENDBRANCH  18  19
ENDBRANCH   1  18
TORSDOF 6
ENDMDL
MODEL 7
REMARK VINA RESULT:      -6.7      1.678      2.799
REMARK  6 active torsions:
REMARK  status: ('A' for Active; 'I' for Inactive)
REMARK    1  A    between atoms: C_2  and  N_3 
REMARK    2  A    between atoms: C_4  and  S_5 
REMARK    3  A    between atoms: S_5  and  C_6 
REMARK    4  A    between atoms: C_6  and  C_7 
REMARK       I    between atoms: C_7  and  N_8 
REMARK    5  A    between atoms: N_8  and  C_9 
REMARK    6  A    between atoms: C_23  and  C_24 
ROOT
HETATM    1  C   UNL     1      41.071 -14.124   4.372  1.00  0.00     0.231 C 
HETATM    2  N   UNL     1      42.270 -14.470   3.767  1.00  0.00    -0.325 N 
HETATM    3  O   UNL     1      40.431 -14.853   5.127  1.00  0.00    -0.272 OA
HETATM    4  H   UNL     1      42.936 -13.700   3.680  1.00  0.00     0.169 HD
ENDROOT
BRANCH   2   5
HETATM    5  C   UNL     1      42.841 -15.757   3.881  1.00  0.00     0.054 A 
HETATM    6  C   UNL     1      43.621 -16.171   5.000  1.00  0.00     0.040 A 
HETATM    7 BR   UNL     1      43.814 -15.100   6.567  1.00  0.00    -0.049 Br
HETATM    8  C   UNL     1      44.164 -17.464   5.068  1.00  0.00     0.053 A 
HETATM    9  C   UNL     1      43.894 -18.303   4.015  1.00  0.00     0.064 A 
HETATM   10  C   UNL     1      43.105 -17.914   2.936  1.00  0.00     0.065 A 
HETATM   11  N   UNL     1      44.287 -19.620   3.807  1.00  0.00    -0.306 N 
HETATM   12  N   UNL     1      43.023 -18.990   2.057  1.00  0.00    -0.306 N 
HETATM   13  C   UNL     1      42.548 -16.661   2.848  1.00  0.00     0.063 A 
HETATM   14  C   UNL     1      43.756 -20.062   2.587  1.00  0.00     0.325 A 
HETATM   15  H   UNL     1      42.533 -19.024   1.178  1.00  0.00     0.170 HD
HETATM   16  O   UNL     1      43.902 -21.161   2.085  1.00  0.00    -0.247 OA
HETATM   17  H   UNL     1      44.860 -20.191   4.407  1.00  0.00     0.170 HD
ENDBRANCH   2   5
BRANCH   1  18
HETATM   18  C   UNL     1      40.561 -12.743   3.998  1.00  0.00     0.185 C 
BRANCH  18  19
HETATM   19  S   UNL     1      39.514 -12.755   2.511  1.00  0.00    -0.081 SA
BRANCH  19  20
HETATM   20  C   UNL     1      40.347 -11.568   1.577  1.00  0.00     0.192 A 
HETATM   21  N   UNL     1      40.206 -11.386   0.231  1.00  0.00    -0.311 N 
HETATM   22  C   UNL     1      41.250 -10.568  -0.128  1.00  0.00     0.135 A 
HETATM   23  N   UNL     1      41.917 -10.218   0.953  1.00  0.00    -0.134 NA
HETATM   24  N   UNL     1      41.343 -10.844   2.028  1.00  0.00    -0.123 NA
BRANCH  21  25
HETATM   25  C   UNL     1      39.210 -11.956  -0.649  1.00  0.00     0.128 C 
HETATM   26  C   UNL     1      39.659 -13.265  -1.275  1.00  0.00     0.027 C 
ENDBRANCH  21  25
BRANCH  22  27
HETATM   27  C   UNL     1      41.645 -10.151  -1.539  1.00  0.00     0.057 A 
HETATM   28  C   UNL     1      40.785  -9.136  -2.259  1.00  0.00     0.013 A 
HETATM   29  C   UNL     1      42.115  -8.722  -1.734  1.00  0.00     0.013 A 
ENDBRANCH  22  27
ENDBRANCH  19  20
ENDBRANCH  18  19
ENDBRANCH   1  18
TORSDOF 6
ENDMDL
MODEL 8
REMARK VINA RESULT:      -6.6      5.230      7.892
REMARK  6 active torsions:
REMARK  status: ('A' for Active; 'I' for Inactive)
REMARK    1  A    between atoms: C_2  and  N_3 
REMARK    2  A    between atoms: C_4  and  S_5 
REMARK    3  A    between atoms: S_5  and  C_6 
REMARK    4  A    between atoms: C_6  and  C_7 
REMARK       I    between atoms: C_7  and  N_8 
REMARK    5  A    between atoms: N_8  and  C_9 
REMARK    6  A    between atoms: C_23  and  C_24 
ROOT
HETATM    1  C   UNL     1      42.437 -12.844   5.377  1.00  0.00     0.231 C 
HETATM    2  N   UNL     1      41.705 -13.982   5.073  1.00  0.00    -0.325 N 
HETATM    3  O   UNL     1      43.643 -12.713   5.181  1.00  0.00    -0.272 OA
HETATM    4  H   UNL     1      40.758 -13.798   4.738  1.00  0.00     0.169 HD
ENDROOT
BRANCH   2   5
HETATM    5  C   UNL     1      42.301 -15.167   4.587  1.00  0.00     0.054 A 
HETATM    6  C   UNL     1      42.610 -15.382   3.212  1.00  0.00     0.040 A 
HETATM    7 BR   UNL     1      42.439 -14.011   1.898  1.00  0.00    -0.049 Br
HETATM    8  C   UNL     1      43.206 -16.577   2.780  1.00  0.00     0.053 A 
HETATM    9  C   UNL     1      43.485 -17.513   3.745  1.00  0.00     0.064 A 
HETATM   10  C   UNL     1      43.216 -17.295   5.094  1.00  0.00     0.065 A 
HETATM   11  N   UNL     1      44.066 -18.770   3.622  1.00  0.00    -0.306 N 
HETATM   12  N   UNL     1      43.621 -18.423   5.799  1.00  0.00    -0.306 N 
HETATM   13  C   UNL     1      42.646 -16.130   5.550  1.00  0.00     0.063 A 
HETATM   14  C   UNL     1      44.154 -19.353   4.894  1.00  0.00     0.325 A 
HETATM   15  H   UNL     1      43.553 -18.581   6.791  1.00  0.00     0.170 HD
HETATM   16  O   UNL     1      44.605 -20.452   5.162  1.00  0.00    -0.247 OA
HETATM   17  H   UNL     1      44.380 -19.220   2.778  1.00  0.00     0.170 HD
ENDBRANCH   2   5
BRANCH   1  18
HETATM   18  C   UNL     1      41.625 -11.737   6.027  1.00  0.00     0.185 C 
BRANCH  18  19
HETATM   19  S   UNL     1      42.487 -10.136   6.027  1.00  0.00    -0.081 SA
BRANCH  19  20
HETATM   20  C   UNL     1      42.214  -9.675   7.666  1.00  0.00     0.192 A 
HETATM   21  N   UNL     1      43.127  -9.782   8.675  1.00  0.00    -0.311 N 
HETATM   22  C   UNL     1      42.405  -9.592   9.829  1.00  0.00     0.135 A 
HETATM   23  N   UNL     1      41.157  -9.304   9.516  1.00  0.00    -0.134 NA
HETATM   24  N   UNL     1      41.040  -9.350   8.152  1.00  0.00    -0.123 NA
BRANCH  21  25
HETATM   25  C   UNL     1      44.539 -10.075   8.577  1.00  0.00     0.128 C 
HETATM   26  C   UNL     1      45.399  -8.823   8.545  1.00  0.00     0.027 C 
ENDBRANCH  21  25
BRANCH  22  27
HETATM   27  C   UNL     1      42.907  -9.735  11.260  1.00  0.00     0.057 A 
HETATM   28  C   UNL     1      43.687  -8.591  11.869  1.00  0.00     0.013 A 
HETATM   29  C   UNL     1      42.284  -8.832  12.308  1.00  0.00     0.013 A 
ENDBRANCH  22  27
ENDBRANCH  19  20
ENDBRANCH  18  19
ENDBRANCH   1  18
TORSDOF 6
ENDMDL
MODEL 9
REMARK VINA RESULT:      -6.6      5.053      8.759
REMARK  6 active torsions:
REMARK  status: ('A' for Active; 'I' for Inactive)
REMARK    1  A    between atoms: C_2  and  N_3 
REMARK    2  A    between atoms: C_4  and  S_5 
REMARK    3  A    between atoms: S_5  and  C_6 
REMARK    4  A    between atoms: C_6  and  C_7 
REMARK       I    between atoms: C_7  and  N_8 
REMARK    5  A    between atoms: N_8  and  C_9 
REMARK    6  A    between atoms: C_23  and  C_24 
ROOT
HETATM    1  C   UNL     1      41.635 -11.455   3.646  1.00  0.00     0.231 C 
HETATM    2  N   UNL     1      42.173 -11.964   2.474  1.00  0.00    -0.325 N 
HETATM    3  O   UNL     1      40.515 -11.721   4.076  1.00  0.00    -0.272 OA
HETATM    4  H   UNL     1      43.176 -12.155   2.518  1.00  0.00     0.169 HD
ENDROOT
BRANCH   2   5
HETATM    5  C   UNL     1      41.438 -12.781   1.586  1.00  0.00     0.054 A 
HETATM    6  C   UNL     1      41.486 -14.205   1.611  1.00  0.00     0.040 A 
HETATM    7 BR   UNL     1      42.393 -15.176   2.978  1.00  0.00    -0.049 Br
HETATM    8  C   UNL     1      40.732 -14.972   0.708  1.00  0.00     0.053 A 
HETATM    9  C   UNL     1      39.945 -14.283  -0.181  1.00  0.00     0.064 A 
HETATM   10  C   UNL     1      39.869 -12.893  -0.187  1.00  0.00     0.065 A 
HETATM   11  N   UNL     1      39.100 -14.763  -1.175  1.00  0.00    -0.306 N 
HETATM   12  N   UNL     1      38.985 -12.517  -1.194  1.00  0.00    -0.306 N 
HETATM   13  C   UNL     1      40.582 -12.115   0.693  1.00  0.00     0.063 A 
HETATM   14  C   UNL     1      38.497 -13.673  -1.820  1.00  0.00     0.325 A 
HETATM   15  H   UNL     1      38.723 -11.582  -1.458  1.00  0.00     0.170 HD
HETATM   16  O   UNL     1      37.705 -13.721  -2.743  1.00  0.00    -0.247 OA
HETATM   17  H   UNL     1      38.927 -15.724  -1.422  1.00  0.00     0.170 HD
ENDBRANCH   2   5
BRANCH   1  18
HETATM   18  C   UNL     1      42.543 -10.480   4.376  1.00  0.00     0.185 C 
BRANCH  18  19
HETATM   19  S   UNL     1      43.697 -11.307   5.513  1.00  0.00    -0.081 SA
BRANCH  19  20
HETATM   20  C   UNL     1      43.355 -10.416   6.950  1.00  0.00     0.192 A 
HETATM   21  N   UNL     1      44.215 -10.253   7.997  1.00  0.00    -0.311 N 
HETATM   22  C   UNL     1      43.442  -9.751   9.017  1.00  0.00     0.135 A 
HETATM   23  N   UNL     1      42.218  -9.549   8.572  1.00  0.00    -0.134 NA
HETATM   24  N   UNL     1      42.166  -9.962   7.267  1.00  0.00    -0.123 NA
BRANCH  21  25
HETATM   25  C   UNL     1      45.623 -10.574   8.057  1.00  0.00     0.128 C 
HETATM   26  C   UNL     1      46.511  -9.343   7.976  1.00  0.00     0.027 C 
ENDBRANCH  21  25
BRANCH  22  27
HETATM   27  C   UNL     1      43.871  -9.505  10.458  1.00  0.00     0.057 A 
HETATM   28  C   UNL     1      42.828  -9.611  11.549  1.00  0.00     0.013 A 
HETATM   29  C   UNL     1      43.842 -10.691  11.403  1.00  0.00     0.013 A 
ENDBRANCH  22  27
ENDBRANCH  19  20
ENDBRANCH  18  19
ENDBRANCH   1  18
TORSDOF 6
ENDMDL
MODEL 10
REMARK VINA RESULT:      -6.5      3.300      5.352
REMARK  6 active torsions:
REMARK  status: ('A' for Active; 'I' for Inactive)
REMARK    1  A    between atoms: C_2  and  N_3 
REMARK    2  A    between atoms: C_4  and  S_5 
REMARK    3  A    between atoms: S_5  and  C_6 
REMARK    4  A    between atoms: C_6  and  C_7 
REMARK       I    between atoms: C_7  and  N_8 
REMARK    5  A    between atoms: N_8  and  C_9 
REMARK    6  A    between atoms: C_23  and  C_24 
ROOT
HETATM    1  C   UNL     1      41.398 -14.008   3.639  1.00  0.00     0.231 C 
HETATM    2  N   UNL     1      42.725 -14.407   3.596  1.00  0.00    -0.325 N 
HETATM    3  O   UNL     1      40.461 -14.727   3.978  1.00  0.00    -0.272 OA
HETATM    4  H   UNL     1      43.392 -13.683   3.871  1.00  0.00     0.169 HD
ENDROOT
BRANCH   2   5
HETATM    5  C   UNL     1      43.133 -15.736   3.848  1.00  0.00     0.054 A 
HETATM    6  C   UNL     1      43.641 -16.174   5.106  1.00  0.00     0.040 A 
HETATM    7 BR   UNL     1      43.639 -15.062   6.655  1.00  0.00    -0.049 Br
HETATM    8  C   UNL     1      44.030 -17.507   5.306  1.00  0.00     0.053 A 
HETATM    9  C   UNL     1      43.883 -18.361   4.241  1.00  0.00     0.064 A 
HETATM   10  C   UNL     1      43.356 -17.946   3.021  1.00  0.00     0.065 A 
HETATM   11  N   UNL     1      44.175 -19.717   4.143  1.00  0.00    -0.306 N 
HETATM   12  N   UNL     1      43.335 -19.044   2.168  1.00  0.00    -0.306 N 
HETATM   13  C   UNL     1      42.953 -16.651   2.798  1.00  0.00     0.063 A 
HETATM   14  C   UNL     1      43.844 -20.157   2.853  1.00  0.00     0.325 A 
HETATM   15  H   UNL     1      43.021 -19.069   1.212  1.00  0.00     0.170 HD
HETATM   16  O   UNL     1      43.972 -21.285   2.414  1.00  0.00    -0.247 OA
HETATM   17  H   UNL     1      44.564 -20.313   4.855  1.00  0.00     0.170 HD
ENDBRANCH   2   5
BRANCH   1  18
HETATM   18  C   UNL     1      41.163 -12.576   3.190  1.00  0.00     0.185 C 
BRANCH  18  19
HETATM   19  S   UNL     1      39.406 -12.106   3.220  1.00  0.00    -0.081 SA
BRANCH  19  20
HETATM   20  C   UNL     1      39.297 -11.549   4.849  1.00  0.00     0.192 A 
HETATM   21  N   UNL     1      39.736 -10.336   5.296  1.00  0.00    -0.311 N 
HETATM   22  C   UNL     1      39.727 -10.438   6.666  1.00  0.00     0.135 A 
HETATM   23  N   UNL     1      39.232 -11.610   7.010  1.00  0.00    -0.134 NA
HETATM   24  N   UNL     1      38.955 -12.307   5.863  1.00  0.00    -0.123 NA
BRANCH  21  25
HETATM   25  C   UNL     1      40.163  -9.196   4.516  1.00  0.00     0.128 C 
HETATM   26  C   UNL     1      39.046  -8.193   4.281  1.00  0.00     0.027 C 
ENDBRANCH  21  25
BRANCH  22  27
HETATM   27  C   UNL     1      40.247  -9.413   7.666  1.00  0.00     0.057 A 
HETATM   28  C   UNL     1      39.364  -8.236   8.017  1.00  0.00     0.013 A 
HETATM   29  C   UNL     1      39.543  -9.333   9.007  1.00  0.00     0.013 A 
ENDBRANCH  22  27
ENDBRANCH  19  20
ENDBRANCH  18  19
ENDBRANCH   1  18
TORSDOF 6
ENDMDL
