MODEL 1
REMARK VINA RESULT:      -8.0      0.000      0.000
REMARK  2 active torsions:
REMARK  status: ('A' for Active; 'I' for Inactive)
REMARK    1  A    between atoms: C_2  and  C_3 
REMARK    2  A    between atoms: C_7  and  C_8 
REMARK       I    between atoms: C_8  and  N_9 
ROOT
HETATM    1  C   UNL     1      45.182  -9.120   8.456  1.00  0.00     0.271 C 
HETATM    2  N   UNL     1      44.653 -10.179   7.694  1.00  0.00    -0.346 N 
HETATM    3  C   UNL     1      45.592 -10.848   6.797  1.00  0.00     0.130 C 
HETATM    4  C   UNL     1      45.100 -12.227   6.379  1.00  0.00     0.068 C 
HETATM    5  C   UNL     1      43.666 -12.202   5.823  1.00  0.00     0.094 C 
HETATM    6  N   UNL     1      43.215 -13.565   5.639  1.00  0.00    -0.334 N 
HETATM    7  C   UNL     1      42.123 -13.886   4.878  1.00  0.00     0.255 C 
HETATM    8  O   UNL     1      41.524 -14.942   5.035  1.00  0.00    -0.268 OA
HETATM    9  C   UNL     1      41.730 -12.898   3.856  1.00  0.00     0.053 A 
HETATM   10  C   UNL     1      42.530 -11.757   3.713  1.00  0.00     0.026 A 
HETATM   11  N   UNL     1      43.673 -11.569   4.505  1.00  0.00    -0.265 NA
HETATM   12  C   UNL     1      40.614 -13.116   3.043  1.00  0.00     0.019 A 
HETATM   13  C   UNL     1      40.301 -12.192   2.048  1.00  0.00     0.001 A 
HETATM   14  C   UNL     1      41.115 -11.074   1.860  1.00  0.00     0.002 A 
HETATM   15  C   UNL     1      42.232 -10.867   2.677  1.00  0.00     0.024 A 
HETATM   16  C   UNL     1      42.738 -11.461   6.805  1.00  0.00     0.068 C 
HETATM   17  C   UNL     1      43.281 -10.094   7.187  1.00  0.00     0.130 C 
HETATM   18  O   UNL     1      46.326  -8.708   8.273  1.00  0.00    -0.266 OA
HETATM   19  H   UNL     1      43.397 -14.241   6.368  1.00  0.00     0.164 HD
HETATM   20  H   UNL     1      44.002 -10.609   4.489  1.00  0.00     0.130 HD
ENDROOT
BRANCH   1  21
HETATM   21  C   UNL     1      44.335  -8.565   9.479  1.00  0.00     0.119 A 
HETATM   22  N   UNL     1      43.613  -7.411   9.363  1.00  0.00    -0.273 N 
HETATM   23  N   UNL     1      42.923  -7.084  10.463  1.00  0.00    -0.178 NA
HETATM   24  H   UNL     1      43.565  -6.791   8.562  1.00  0.00     0.189 HD
HETATM   25  C   UNL     1      43.124  -8.113  11.301  1.00  0.00     0.064 A 
HETATM   26  C   UNL     1      43.980  -9.078  10.710  1.00  0.00     0.066 A 
BRANCH  25  27
HETATM   27  C   UNL     1      42.463  -8.123  12.670  1.00  0.00    -0.005 C 
HETATM   28  C   UNL     1      42.306  -9.574  13.169  1.00  0.00     0.021 C 
HETATM   29  C   UNL     1      41.068  -7.466  12.592  1.00  0.00     0.021 C 
HETATM   30  C   UNL     1      43.293  -7.346  13.713  1.00  0.00     0.021 C 
ENDBRANCH  25  27
ENDBRANCH   1  21
TORSDOF 2
ENDMDL
MODEL 2
REMARK VINA RESULT:      -7.9      2.412      8.225
REMARK  2 active torsions:
REMARK  status: ('A' for Active; 'I' for Inactive)
REMARK    1  A    between atoms: C_2  and  C_3 
REMARK    2  A    between atoms: C_7  and  C_8 
REMARK       I    between atoms: C_8  and  N_9 
ROOT
HETATM    1  C   UNL     1      45.030 -11.009   7.233  1.00  0.00     0.271 C 
HETATM    2  N   UNL     1      44.351  -9.990   7.928  1.00  0.00    -0.346 N 
HETATM    3  C   UNL     1      45.187  -8.914   8.455  1.00  0.00     0.130 C 
HETATM    4  C   UNL     1      44.379  -7.660   8.762  1.00  0.00     0.068 C 
HETATM    5  C   UNL     1      43.154  -7.946   9.647  1.00  0.00     0.094 C 
HETATM    6  N   UNL     1      42.345  -6.748   9.724  1.00  0.00    -0.334 N 
HETATM    7  C   UNL     1      41.370  -6.573  10.669  1.00  0.00     0.255 C 
HETATM    8  O   UNL     1      40.455  -5.777  10.502  1.00  0.00    -0.268 OA
HETATM    9  C   UNL     1      41.503  -7.380  11.896  1.00  0.00     0.053 A 
HETATM   10  C   UNL     1      42.629  -8.205  12.013  1.00  0.00     0.026 A 
HETATM   11  N   UNL     1      43.604  -8.249  11.005  1.00  0.00    -0.265 NA
HETATM   12  C   UNL     1      40.547  -7.297  12.913  1.00  0.00     0.019 A 
HETATM   13  C   UNL     1      40.728  -8.029  14.084  1.00  0.00     0.001 A 
HETATM   14  C   UNL     1      41.869  -8.818  14.238  1.00  0.00     0.002 A 
HETATM   15  C   UNL     1      42.821  -8.893  13.215  1.00  0.00     0.024 A 
HETATM   16  C   UNL     1      42.335  -9.105   9.048  1.00  0.00     0.068 C 
HETATM   17  C   UNL     1      43.194 -10.326   8.761  1.00  0.00     0.130 C 
HETATM   18  O   UNL     1      46.259 -11.048   7.193  1.00  0.00    -0.266 OA
HETATM   19  H   UNL     1      42.168  -6.225   8.876  1.00  0.00     0.164 HD
HETATM   20  H   UNL     1      44.211  -9.058  11.089  1.00  0.00     0.130 HD
ENDROOT
BRANCH   1  21
HETATM   21  C   UNL     1      44.221 -11.981   6.545  1.00  0.00     0.119 A 
HETATM   22  N   UNL     1      43.590 -11.776   5.351  1.00  0.00    -0.273 N 
HETATM   23  N   UNL     1      42.870 -12.822   4.926  1.00  0.00    -0.178 NA
HETATM   24  H   UNL     1      43.596 -10.934   4.785  1.00  0.00     0.189 HD
HETATM   25  C   UNL     1      43.115 -13.785   5.829  1.00  0.00     0.064 A 
HETATM   26  C   UNL     1      43.983 -13.306   6.845  1.00  0.00     0.066 A 
BRANCH  25  27
HETATM   27  C   UNL     1      42.489 -15.160   5.668  1.00  0.00    -0.005 C 
HETATM   28  C   UNL     1      42.148 -15.750   7.051  1.00  0.00     0.021 C 
HETATM   29  C   UNL     1      43.467 -16.110   4.944  1.00  0.00     0.021 C 
HETATM   30  C   UNL     1      41.188 -15.104   4.839  1.00  0.00     0.021 C 
ENDBRANCH  25  27
ENDBRANCH   1  21
TORSDOF 2
ENDMDL
MODEL 3
REMARK VINA RESULT:      -7.8      1.567      8.309
REMARK  2 active torsions:
REMARK  status: ('A' for Active; 'I' for Inactive)
REMARK    1  A    between atoms: C_2  and  C_3 
REMARK    2  A    between atoms: C_7  and  C_8 
REMARK       I    between atoms: C_8  and  N_9 
ROOT
HETATM    1  C   UNL     1      42.700 -13.594   5.199  1.00  0.00     0.271 C 
HETATM    2  N   UNL     1      43.236 -12.528   5.946  1.00  0.00    -0.346 N 
HETATM    3  C   UNL     1      44.466 -12.822   6.678  1.00  0.00     0.130 C 
HETATM    4  C   UNL     1      45.221 -11.555   7.060  1.00  0.00     0.068 C 
HETATM    5  C   UNL     1      44.332 -10.530   7.783  1.00  0.00     0.094 C 
HETATM    6  N   UNL     1      45.070  -9.294   7.930  1.00  0.00    -0.334 N 
HETATM    7  C   UNL     1      44.689  -8.303   8.794  1.00  0.00     0.255 C 
HETATM    8  O   UNL     1      45.059  -7.145   8.640  1.00  0.00    -0.268 OA
HETATM    9  C   UNL     1      43.830  -8.716   9.919  1.00  0.00     0.053 A 
HETATM   10  C   UNL     1      43.528 -10.078  10.040  1.00  0.00     0.026 A 
HETATM   11  N   UNL     1      44.036 -11.018   9.131  1.00  0.00    -0.265 NA
HETATM   12  C   UNL     1      43.363  -7.777  10.844  1.00  0.00     0.019 A 
HETATM   13  C   UNL     1      42.600  -8.206  11.928  1.00  0.00     0.001 A 
HETATM   14  C   UNL     1      42.330  -9.565  12.091  1.00  0.00     0.002 A 
HETATM   15  C   UNL     1      42.804 -10.497  11.161  1.00  0.00     0.024 A 
HETATM   16  C   UNL     1      43.045 -10.290   6.972  1.00  0.00     0.068 C 
HETATM   17  C   UNL     1      42.337 -11.588   6.619  1.00  0.00     0.130 C 
HETATM   18  O   UNL     1      43.170 -14.728   5.270  1.00  0.00    -0.266 OA
HETATM   19  H   UNL     1      45.597  -8.946   7.141  1.00  0.00     0.164 HD
HETATM   20  H   UNL     1      43.542 -11.903   9.170  1.00  0.00     0.130 HD
ENDROOT
BRANCH   1  21
HETATM   21  C   UNL     1      41.599 -13.287   4.323  1.00  0.00     0.119 A 
HETATM   22  N   UNL     1      40.331 -13.780   4.451  1.00  0.00    -0.273 N 
HETATM   23  N   UNL     1      39.486 -13.372   3.495  1.00  0.00    -0.178 NA
HETATM   24  H   UNL     1      39.985 -14.418   5.160  1.00  0.00     0.189 HD
HETATM   25  C   UNL     1      40.202 -12.502   2.767  1.00  0.00     0.064 A 
HETATM   26  C   UNL     1      41.524 -12.397   3.272  1.00  0.00     0.066 A 
BRANCH  25  27
HETATM   27  C   UNL     1      39.563 -11.788   1.587  1.00  0.00    -0.005 C 
HETATM   28  C   UNL     1      40.401 -10.552   1.202  1.00  0.00     0.021 C 
HETATM   29  C   UNL     1      38.134 -11.331   1.950  1.00  0.00     0.021 C 
HETATM   30  C   UNL     1      39.465 -12.703   0.348  1.00  0.00     0.021 C 
ENDBRANCH  25  27
ENDBRANCH   1  21
TORSDOF 2
ENDMDL
MODEL 4
REMARK VINA RESULT:      -7.8      5.953      7.824
REMARK  2 active torsions:
REMARK  status: ('A' for Active; 'I' for Inactive)
REMARK    1  A    between atoms: C_2  and  C_3 
REMARK    2  A    between atoms: C_7  and  C_8 
REMARK       I    between atoms: C_8  and  N_9 
ROOT
HETATM    1  C   UNL     1      40.117 -13.092   5.312  1.00  0.00     0.271 C 
HETATM    2  N   UNL     1      40.436 -12.283   4.206  1.00  0.00    -0.346 N 
HETATM    3  C   UNL     1      39.872 -10.935   4.221  1.00  0.00     0.130 C 
HETATM    4  C   UNL     1      40.612  -9.994   3.280  1.00  0.00     0.068 C 
HETATM    5  C   UNL     1      40.746 -10.563   1.857  1.00  0.00     0.094 C 
HETATM    6  N   UNL     1      41.623  -9.702   1.092  1.00  0.00    -0.334 N 
HETATM    7  C   UNL     1      41.699  -9.749  -0.274  1.00  0.00     0.255 C 
HETATM    8  O   UNL     1      42.681  -9.330  -0.873  1.00  0.00    -0.268 OA
HETATM    9  C   UNL     1      40.528 -10.315  -0.970  1.00  0.00     0.053 A 
HETATM   10  C   UNL     1      39.430 -10.697  -0.190  1.00  0.00     0.026 A 
HETATM   11  N   UNL     1      39.438 -10.535   1.204  1.00  0.00    -0.265 NA
HETATM   12  C   UNL     1      40.514 -10.433  -2.363  1.00  0.00     0.019 A 
HETATM   13  C   UNL     1      39.372 -10.918  -2.997  1.00  0.00     0.001 A 
HETATM   14  C   UNL     1      38.251 -11.258  -2.239  1.00  0.00     0.002 A 
HETATM   15  C   UNL     1      38.274 -11.133  -0.845  1.00  0.00     0.024 A 
HETATM   16  C   UNL     1      41.320 -11.991   1.918  1.00  0.00     0.068 C 
HETATM   17  C   UNL     1      40.543 -12.883   2.874  1.00  0.00     0.130 C 
HETATM   18  O   UNL     1      39.310 -12.725   6.164  1.00  0.00    -0.266 OA
HETATM   19  H   UNL     1      42.478  -9.373   1.521  1.00  0.00     0.164 HD
HETATM   20  H   UNL     1      38.715 -11.080   1.662  1.00  0.00     0.130 HD
ENDROOT
BRANCH   1  21
HETATM   21  C   UNL     1      40.805 -14.353   5.417  1.00  0.00     0.119 A 
HETATM   22  N   UNL     1      40.222 -15.581   5.280  1.00  0.00    -0.273 N 
HETATM   23  N   UNL     1      41.063 -16.609   5.450  1.00  0.00    -0.178 NA
HETATM   24  H   UNL     1      39.247 -15.784   5.088  1.00  0.00     0.189 HD
HETATM   25  C   UNL     1      42.265 -16.032   5.611  1.00  0.00     0.064 A 
HETATM   26  C   UNL     1      42.150 -14.619   5.567  1.00  0.00     0.066 A 
BRANCH  25  27
HETATM   27  C   UNL     1      43.503 -16.892   5.804  1.00  0.00    -0.005 C 
HETATM   28  C   UNL     1      43.959 -17.471   4.449  1.00  0.00     0.021 C 
HETATM   29  C   UNL     1      43.199 -18.056   6.770  1.00  0.00     0.021 C 
HETATM   30  C   UNL     1      44.676 -16.083   6.396  1.00  0.00     0.021 C 
ENDBRANCH  25  27
ENDBRANCH   1  21
TORSDOF 2
ENDMDL
MODEL 5
REMARK VINA RESULT:      -7.8      2.900      4.871
REMARK  2 active torsions:
REMARK  status: ('A' for Active; 'I' for Inactive)
REMARK    1  A    between atoms: C_2  and  C_3 
REMARK    2  A    between atoms: C_7  and  C_8 
REMARK       I    between atoms: C_8  and  N_9 
ROOT
HETATM    1  C   UNL     1      40.009 -10.644   6.674  1.00  0.00     0.271 C 
HETATM    2  N   UNL     1      40.490 -11.633   5.796  1.00  0.00    -0.346 N 
HETATM    3  C   UNL     1      39.476 -12.495   5.194  1.00  0.00     0.130 C 
HETATM    4  C   UNL     1      39.990 -13.196   3.943  1.00  0.00     0.068 C 
HETATM    5  C   UNL     1      41.323 -13.926   4.178  1.00  0.00     0.094 C 
HETATM    6  N   UNL     1      41.830 -14.391   2.905  1.00  0.00    -0.334 N 
HETATM    7  C   UNL     1      42.818 -15.333   2.801  1.00  0.00     0.255 C 
HETATM    8  O   UNL     1      43.501 -15.433   1.789  1.00  0.00    -0.268 OA
HETATM    9  C   UNL     1      42.993 -16.221   3.965  1.00  0.00     0.053 A 
HETATM   10  C   UNL     1      42.109 -16.066   5.040  1.00  0.00     0.026 A 
HETATM   11  N   UNL     1      41.084 -15.109   5.004  1.00  0.00    -0.265 NA
HETATM   12  C   UNL     1      43.992 -17.200   3.973  1.00  0.00     0.019 A 
HETATM   13  C   UNL     1      44.096 -18.062   5.063  1.00  0.00     0.001 A 
HETATM   14  C   UNL     1      43.193 -17.953   6.121  1.00  0.00     0.002 A 
HETATM   15  C   UNL     1      42.196 -16.972   6.102  1.00  0.00     0.024 A 
HETATM   16  C   UNL     1      42.334 -12.968   4.837  1.00  0.00     0.068 C 
HETATM   17  C   UNL     1      41.765 -12.297   6.077  1.00  0.00     0.130 C 
HETATM   18  O   UNL     1      38.827 -10.603   7.008  1.00  0.00    -0.266 OA
HETATM   19  H   UNL     1      41.801 -13.765   2.111  1.00  0.00     0.164 HD
HETATM   20  H   UNL     1      40.695 -14.923   5.923  1.00  0.00     0.130 HD
ENDROOT
BRANCH   1  21
HETATM   21  C   UNL     1      40.959  -9.665   7.137  1.00  0.00     0.119 A 
HETATM   22  N   UNL     1      41.244  -8.487   6.507  1.00  0.00    -0.273 N 
HETATM   23  N   UNL     1      42.186  -7.755   7.116  1.00  0.00    -0.178 NA
HETATM   24  H   UNL     1      40.842  -8.134   5.645  1.00  0.00     0.189 HD
HETATM   25  C   UNL     1      42.461  -8.434   8.240  1.00  0.00     0.064 A 
HETATM   26  C   UNL     1      41.690  -9.624   8.305  1.00  0.00     0.066 A 
BRANCH  25  27
HETATM   27  C   UNL     1      43.481  -7.892   9.229  1.00  0.00    -0.005 C 
HETATM   28  C   UNL     1      43.284  -8.558  10.606  1.00  0.00     0.021 C 
HETATM   29  C   UNL     1      43.315  -6.365   9.382  1.00  0.00     0.021 C 
HETATM   30  C   UNL     1      44.927  -8.165   8.769  1.00  0.00     0.021 C 
ENDBRANCH  25  27
ENDBRANCH   1  21
TORSDOF 2
ENDMDL
MODEL 6
REMARK VINA RESULT:      -7.5      2.724      5.005
REMARK  2 active torsions:
REMARK  status: ('A' for Active; 'I' for Inactive)
REMARK    1  A    between atoms: C_2  and  C_3 
REMARK    2  A    between atoms: C_7  and  C_8 
REMARK       I    between atoms: C_8  and  N_9 
ROOT
HETATM    1  C   UNL     1      42.907 -12.996   5.706  1.00  0.00     0.271 C 
HETATM    2  N   UNL     1      41.852 -12.833   4.789  1.00  0.00    -0.346 N 
HETATM    3  C   UNL     1      41.462 -14.033   4.051  1.00  0.00     0.130 C 
HETATM    4  C   UNL     1      40.065 -13.909   3.456  1.00  0.00     0.068 C 
HETATM    5  C   UNL     1      39.882 -12.623   2.634  1.00  0.00     0.094 C 
HETATM    6  N   UNL     1      38.485 -12.493   2.277  1.00  0.00    -0.334 N 
HETATM    7  C   UNL     1      38.047 -11.642   1.298  1.00  0.00     0.255 C 
HETATM    8  O   UNL     1      36.888 -11.247   1.267  1.00  0.00    -0.268 OA
HETATM    9  C   UNL     1      39.045 -11.249   0.285  1.00  0.00     0.053 A 
HETATM   10  C   UNL     1      40.322 -11.818   0.376  1.00  0.00     0.026 A 
HETATM   11  N   UNL     1      40.636 -12.738   1.386  1.00  0.00    -0.265 NA
HETATM   12  C   UNL     1      38.709 -10.363  -0.742  1.00  0.00     0.019 A 
HETATM   13  C   UNL     1      39.656 -10.055  -1.717  1.00  0.00     0.001 A 
HETATM   14  C   UNL     1      40.917 -10.649  -1.670  1.00  0.00     0.002 A 
HETATM   15  C   UNL     1      41.242 -11.537  -0.639  1.00  0.00     0.024 A 
HETATM   16  C   UNL     1      40.336 -11.405   3.462  1.00  0.00     0.068 C 
HETATM   17  C   UNL     1      41.734 -11.586   4.030  1.00  0.00     0.130 C 
HETATM   18  O   UNL     1      43.539 -14.048   5.777  1.00  0.00    -0.266 OA
HETATM   19  H   UNL     1      37.783 -12.673   2.983  1.00  0.00     0.164 HD
HETATM   20  H   UNL     1      41.637 -12.866   1.497  1.00  0.00     0.130 HD
ENDROOT
BRANCH   1  21
HETATM   21  C   UNL     1      43.190 -11.886   6.578  1.00  0.00     0.119 A 
HETATM   22  N   UNL     1      42.250 -11.089   7.168  1.00  0.00    -0.273 N 
HETATM   23  N   UNL     1      42.760 -10.100   7.914  1.00  0.00    -0.178 NA
HETATM   24  H   UNL     1      41.242 -11.158   7.085  1.00  0.00     0.189 HD
HETATM   25  C   UNL     1      44.085 -10.314   7.889  1.00  0.00     0.064 A 
HETATM   26  C   UNL     1      44.393 -11.443   7.086  1.00  0.00     0.066 A 
BRANCH  25  27
HETATM   27  C   UNL     1      45.020  -9.399   8.662  1.00  0.00    -0.005 C 
HETATM   28  C   UNL     1      45.235  -9.947  10.087  1.00  0.00     0.021 C 
HETATM   29  C   UNL     1      44.419  -7.980   8.757  1.00  0.00     0.021 C 
HETATM   30  C   UNL     1      46.400  -9.281   7.983  1.00  0.00     0.021 C 
ENDBRANCH  25  27
ENDBRANCH   1  21
TORSDOF 2
ENDMDL
MODEL 7
REMARK VINA RESULT:      -7.5      6.575      9.297
REMARK  2 active torsions:
REMARK  status: ('A' for Active; 'I' for Inactive)
REMARK    1  A    between atoms: C_2  and  C_3 
REMARK    2  A    between atoms: C_7  and  C_8 
REMARK       I    between atoms: C_8  and  N_9 
ROOT
HETATM    1  C   UNL     1      39.543 -12.095   1.251  1.00  0.00     0.271 C 
HETATM    2  N   UNL     1      40.211 -13.275   1.631  1.00  0.00    -0.346 N 
HETATM    3  C   UNL     1      39.358 -14.364   2.101  1.00  0.00     0.130 C 
HETATM    4  C   UNL     1      40.066 -15.711   2.043  1.00  0.00     0.068 C 
HETATM    5  C   UNL     1      41.438 -15.690   2.737  1.00  0.00     0.094 C 
HETATM    6  N   UNL     1      42.117 -16.940   2.464  1.00  0.00    -0.334 N 
HETATM    7  C   UNL     1      43.204 -17.363   3.181  1.00  0.00     0.255 C 
HETATM    8  O   UNL     1      43.992 -18.180   2.722  1.00  0.00    -0.268 OA
HETATM    9  C   UNL     1      43.353 -16.792   4.533  1.00  0.00     0.053 A 
HETATM   10  C   UNL     1      42.353 -15.922   4.985  1.00  0.00     0.026 A 
HETATM   11  N   UNL     1      41.242 -15.615   4.185  1.00  0.00    -0.265 NA
HETATM   12  C   UNL     1      44.442 -17.138   5.338  1.00  0.00     0.019 A 
HETATM   13  C   UNL     1      44.526 -16.627   6.632  1.00  0.00     0.001 A 
HETATM   14  C   UNL     1      43.514 -15.797   7.115  1.00  0.00     0.002 A 
HETATM   15  C   UNL     1      42.427 -15.459   6.302  1.00  0.00     0.024 A 
HETATM   16  C   UNL     1      42.271 -14.505   2.214  1.00  0.00     0.068 C 
HETATM   17  C   UNL     1      41.513 -13.190   2.295  1.00  0.00     0.130 C 
HETATM   18  O   UNL     1      38.334 -11.956   1.432  1.00  0.00    -0.266 OA
HETATM   19  H   UNL     1      42.102 -17.306   1.522  1.00  0.00     0.164 HD
HETATM   20  H   UNL     1      40.745 -14.792   4.510  1.00  0.00     0.130 HD
ENDROOT
BRANCH   1  21
HETATM   21  C   UNL     1      40.332 -11.076   0.611  1.00  0.00     0.119 A 
HETATM   22  N   UNL     1      41.529 -10.603   1.071  1.00  0.00    -0.273 N 
HETATM   23  N   UNL     1      42.060  -9.632   0.317  1.00  0.00    -0.178 NA
HETATM   24  H   UNL     1      42.027 -10.891   1.906  1.00  0.00     0.189 HD
HETATM   25  C   UNL     1      41.227  -9.529  -0.729  1.00  0.00     0.064 A 
HETATM   26  C   UNL     1      40.146 -10.439  -0.598  1.00  0.00     0.066 A 
BRANCH  25  27
HETATM   27  C   UNL     1      41.517  -8.533  -1.841  1.00  0.00    -0.005 C 
HETATM   28  C   UNL     1      42.988  -8.077  -1.769  1.00  0.00     0.021 C 
HETATM   29  C   UNL     1      40.602  -7.298  -1.701  1.00  0.00     0.021 C 
HETATM   30  C   UNL     1      41.274  -9.145  -3.236  1.00  0.00     0.021 C 
ENDBRANCH  25  27
ENDBRANCH   1  21
TORSDOF 2
ENDMDL
MODEL 8
REMARK VINA RESULT:      -7.3      2.866      8.478
REMARK  2 active torsions:
REMARK  status: ('A' for Active; 'I' for Inactive)
REMARK    1  A    between atoms: C_2  and  C_3 
REMARK    2  A    between atoms: C_7  and  C_8 
REMARK       I    between atoms: C_8  and  N_9 
ROOT
HETATM    1  C   UNL     1      42.186 -11.056   3.017  1.00  0.00     0.271 C 
HETATM    2  N   UNL     1      41.811 -10.570   4.284  1.00  0.00    -0.346 N 
HETATM    3  C   UNL     1      41.612  -9.126   4.376  1.00  0.00     0.130 C 
HETATM    4  C   UNL     1      40.779  -8.740   5.592  1.00  0.00     0.068 C 
HETATM    5  C   UNL     1      41.318  -9.348   6.897  1.00  0.00     0.094 C 
HETATM    6  N   UNL     1      40.365  -9.095   7.957  1.00  0.00    -0.334 N 
HETATM    7  C   UNL     1      40.681  -9.225   9.283  1.00  0.00     0.255 C 
HETATM    8  O   UNL     1      39.815  -9.397  10.132  1.00  0.00    -0.268 OA
HETATM    9  C   UNL     1      42.113  -9.127   9.622  1.00  0.00     0.053 A 
HETATM   10  C   UNL     1      43.010  -8.856   8.581  1.00  0.00     0.026 A 
HETATM   11  N   UNL     1      42.561  -8.671   7.266  1.00  0.00    -0.265 NA
HETATM   12  C   UNL     1      42.546  -9.273  10.944  1.00  0.00     0.019 A 
HETATM   13  C   UNL     1      43.898  -9.119  11.241  1.00  0.00     0.001 A 
HETATM   14  C   UNL     1      44.799  -8.801  10.225  1.00  0.00     0.002 A 
HETATM   15  C   UNL     1      44.356  -8.655   8.906  1.00  0.00     0.024 A 
HETATM   16  C   UNL     1      41.528 -10.864   6.720  1.00  0.00     0.068 C 
HETATM   17  C   UNL     1      42.363 -11.188   5.492  1.00  0.00     0.130 C 
HETATM   18  O   UNL     1      42.454 -10.293   2.091  1.00  0.00    -0.266 OA
HETATM   19  H   UNL     1      39.382  -9.240   7.772  1.00  0.00     0.164 HD
HETATM   20  H   UNL     1      43.311  -8.745   6.586  1.00  0.00     0.130 HD
ENDROOT
BRANCH   1  21
HETATM   21  C   UNL     1      42.208 -12.486   2.848  1.00  0.00     0.119 A 
HETATM   22  N   UNL     1      43.323 -13.230   2.588  1.00  0.00    -0.273 N 
HETATM   23  N   UNL     1      43.086 -14.540   2.442  1.00  0.00    -0.178 NA
HETATM   24  H   UNL     1      44.276 -12.899   2.479  1.00  0.00     0.189 HD
HETATM   25  C   UNL     1      41.778 -14.673   2.710  1.00  0.00     0.064 A 
HETATM   26  C   UNL     1      41.197 -13.412   2.999  1.00  0.00     0.066 A 
BRANCH  25  27
HETATM   27  C   UNL     1      41.128 -16.047   2.678  1.00  0.00    -0.005 C 
HETATM   28  C   UNL     1      42.182 -17.121   2.340  1.00  0.00     0.021 C 
HETATM   29  C   UNL     1      40.014 -16.085   1.610  1.00  0.00     0.021 C 
HETATM   30  C   UNL     1      40.492 -16.413   4.035  1.00  0.00     0.021 C 
ENDBRANCH  25  27
ENDBRANCH   1  21
TORSDOF 2
ENDMDL
MODEL 9
REMARK VINA RESULT:      -7.3      6.864      9.550
REMARK  2 active torsions:
REMARK  status: ('A' for Active; 'I' for Inactive)
REMARK    1  A    between atoms: C_2  and  C_3 
REMARK    2  A    between atoms: C_7  and  C_8 
REMARK       I    between atoms: C_8  and  N_9 
ROOT
HETATM    1  C   UNL     1      40.352  -8.961   1.308  1.00  0.00     0.271 C 
HETATM    2  N   UNL     1      40.165 -10.350   1.444  1.00  0.00    -0.346 N 
HETATM    3  C   UNL     1      39.373 -10.773   2.596  1.00  0.00     0.130 C 
HETATM    4  C   UNL     1      38.827 -12.185   2.427  1.00  0.00     0.068 C 
HETATM    5  C   UNL     1      39.918 -13.202   2.053  1.00  0.00     0.094 C 
HETATM    6  N   UNL     1      39.287 -14.462   1.722  1.00  0.00    -0.334 N 
HETATM    7  C   UNL     1      39.980 -15.641   1.654  1.00  0.00     0.255 C 
HETATM    8  O   UNL     1      39.556 -16.595   1.013  1.00  0.00    -0.268 OA
HETATM    9  C   UNL     1      41.247 -15.695   2.407  1.00  0.00     0.053 A 
HETATM   10  C   UNL     1      41.600 -14.571   3.165  1.00  0.00     0.026 A 
HETATM   11  N   UNL     1      40.772 -13.440   3.216  1.00  0.00    -0.265 NA
HETATM   12  C   UNL     1      42.045 -16.843   2.383  1.00  0.00     0.019 A 
HETATM   13  C   UNL     1      43.207 -16.884   3.150  1.00  0.00     0.001 A 
HETATM   14  C   UNL     1      43.549 -15.793   3.948  1.00  0.00     0.002 A 
HETATM   15  C   UNL     1      42.743 -14.650   3.968  1.00  0.00     0.024 A 
HETATM   16  C   UNL     1      40.729 -12.680   0.851  1.00  0.00     0.068 C 
HETATM   17  C   UNL     1      41.245 -11.268   1.076  1.00  0.00     0.130 C 
HETATM   18  O   UNL     1      39.982  -8.176   2.178  1.00  0.00    -0.266 OA
HETATM   19  H   UNL     1      38.466 -14.455   1.133  1.00  0.00     0.164 HD
HETATM   20  H   UNL     1      41.255 -12.622   3.572  1.00  0.00     0.130 HD
ENDROOT
BRANCH   1  21
HETATM   21  C   UNL     1      40.966  -8.503   0.089  1.00  0.00     0.119 A 
HETATM   22  N   UNL     1      42.266  -8.100  -0.035  1.00  0.00    -0.273 N 
HETATM   23  N   UNL     1      42.597  -7.688  -1.265  1.00  0.00    -0.178 NA
HETATM   24  H   UNL     1      42.973  -8.065   0.691  1.00  0.00     0.189 HD
HETATM   25  C   UNL     1      41.498  -7.919  -2.001  1.00  0.00     0.064 A 
HETATM   26  C   UNL     1      40.462  -8.458  -1.195  1.00  0.00     0.066 A 
BRANCH  25  27
HETATM   27  C   UNL     1      41.496  -7.603  -3.488  1.00  0.00    -0.005 C 
HETATM   28  C   UNL     1      41.052  -8.844  -4.289  1.00  0.00     0.021 C 
HETATM   29  C   UNL     1      42.910  -7.189  -3.947  1.00  0.00     0.021 C 
HETATM   30  C   UNL     1      40.533  -6.447  -3.827  1.00  0.00     0.021 C 
ENDBRANCH  25  27
ENDBRANCH   1  21
TORSDOF 2
ENDMDL
MODEL 10
REMARK VINA RESULT:      -7.2      7.756      9.896
REMARK  2 active torsions:
REMARK  status: ('A' for Active; 'I' for Inactive)
REMARK    1  A    between atoms: C_2  and  C_3 
REMARK    2  A    between atoms: C_7  and  C_8 
REMARK       I    between atoms: C_8  and  N_9 
ROOT
HETATM    1  C   UNL     1      39.806 -14.186  -0.338  1.00  0.00     0.271 C 
HETATM    2  N   UNL     1      39.654 -12.786  -0.328  1.00  0.00    -0.346 N 
HETATM    3  C   UNL     1      39.054 -12.204  -1.526  1.00  0.00     0.130 C 
HETATM    4  C   UNL     1      38.501 -10.809  -1.269  1.00  0.00     0.068 C 
HETATM    5  C   UNL     1      39.530  -9.876  -0.610  1.00  0.00     0.094 C 
HETATM    6  N   UNL     1      38.866  -8.648  -0.226  1.00  0.00    -0.334 N 
HETATM    7  C   UNL     1      39.550  -7.505   0.093  1.00  0.00     0.255 C 
HETATM    8  O   UNL     1      39.040  -6.625   0.774  1.00  0.00    -0.268 OA
HETATM    9  C   UNL     1      40.918  -7.396  -0.446  1.00  0.00     0.053 A 
HETATM   10  C   UNL     1      41.376  -8.429  -1.274  1.00  0.00     0.026 A 
HETATM   11  N   UNL     1      40.555  -9.522  -1.591  1.00  0.00    -0.265 NA
HETATM   12  C   UNL     1      41.713  -6.282  -0.158  1.00  0.00     0.019 A 
HETATM   13  C   UNL     1      42.980  -6.180  -0.728  1.00  0.00     0.001 A 
HETATM   14  C   UNL     1      43.433  -7.176  -1.593  1.00  0.00     0.002 A 
HETATM   15  C   UNL     1      42.629  -8.285  -1.877  1.00  0.00     0.024 A 
HETATM   16  C   UNL     1      40.140 -10.561   0.628  1.00  0.00     0.068 C 
HETATM   17  C   UNL     1      40.672 -11.949   0.311  1.00  0.00     0.130 C 
HETATM   18  O   UNL     1      39.569 -14.850  -1.345  1.00  0.00    -0.266 OA
HETATM   19  H   UNL     1      37.963  -8.703   0.226  1.00  0.00     0.164 HD
HETATM   20  H   UNL     1      41.080 -10.305  -1.967  1.00  0.00     0.130 HD
ENDROOT
BRANCH   1  21
HETATM   21  C   UNL     1      40.220 -14.805   0.894  1.00  0.00     0.119 A 
HETATM   22  N   UNL     1      39.389 -15.139   1.926  1.00  0.00    -0.273 N 
HETATM   23  N   UNL     1      40.013 -15.678   2.981  1.00  0.00    -0.178 NA
HETATM   24  H   UNL     1      38.384 -15.005   1.977  1.00  0.00     0.189 HD
HETATM   25  C   UNL     1      41.292 -15.790   2.588  1.00  0.00     0.064 A 
HETATM   26  C   UNL     1      41.457 -15.282   1.274  1.00  0.00     0.066 A 
BRANCH  25  27
HETATM   27  C   UNL     1      42.325 -16.401   3.521  1.00  0.00    -0.005 C 
HETATM   28  C   UNL     1      42.930 -17.667   2.881  1.00  0.00     0.021 C 
HETATM   29  C   UNL     1      41.669 -16.784   4.865  1.00  0.00     0.021 C 
HETATM   30  C   UNL     1      43.477 -15.421   3.822  1.00  0.00     0.021 C 
ENDBRANCH  25  27
ENDBRANCH   1  21
TORSDOF 2
ENDMDL
