MODEL 1
REMARK VINA RESULT:      -8.5      0.000      0.000
REMARK  5 active torsions:
REMARK  status: ('A' for Active; 'I' for Inactive)
REMARK    1  A    between atoms: C_3  and  N_4 
REMARK    2  A    between atoms: N_5  and  C_6 
REMARK    3  A    between atoms: C_6  and  C_7 
REMARK    4  A    between atoms: C_7  and  C_8 
REMARK    5  A    between atoms: C_16  and  C_17 
ROOT
HETATM    1  C   UNL     1      43.221 -11.714   3.511  1.00  0.00     0.175 C 
HETATM    2  N   UNL     1      43.184 -12.742   4.542  1.00  0.00    -0.186 N 
HETATM    3  C   UNL     1      42.808 -14.000   4.323  1.00  0.00     0.680 A 
HETATM    4  N   UNL     1      43.089 -14.730   5.396  1.00  0.00    -0.184 N 
HETATM    5  C   UNL     1      43.642 -13.900   6.354  1.00  0.00     0.140 A 
HETATM    6  C   UNL     1      43.667 -12.612   5.861  1.00  0.00     0.077 A 
ENDROOT
BRANCH   4   7
HETATM    7  C   UNL     1      42.790 -16.161   5.611  1.00  0.00     0.231 C 
BRANCH   7   8
HETATM    8  C   UNL     1      43.983 -17.060   5.312  1.00  0.00     0.178 C 
HETATM    9  O   UNL     1      45.074 -16.879   5.859  1.00  0.00    -0.290 OA
BRANCH   8  10
HETATM   10  C   UNL     1      43.816 -18.186   4.359  1.00  0.00     0.011 A 
HETATM   11  C   UNL     1      43.388 -17.984   3.041  1.00  0.00     0.015 A 
HETATM   12  C   UNL     1      43.232 -19.079   2.188  1.00  0.00     0.001 A 
HETATM   13  C   UNL     1      43.508 -20.368   2.645  1.00  0.00     0.000 A 
HETATM   14  C   UNL     1      43.951 -20.569   3.950  1.00  0.00     0.001 A 
HETATM   15  C   UNL     1      44.112 -19.480   4.807  1.00  0.00     0.015 A 
ENDBRANCH   8  10
ENDBRANCH   7   8
ENDBRANCH   4   7
BRANCH   3  16
HETATM   16  N   UNL     1      42.256 -14.447   3.201  1.00  0.00    -0.234 N 
HETATM   17  H   UNL     1      41.261 -14.489   3.060  1.00  0.00     0.174 HD
HETATM   18  H   UNL     1      42.846 -14.567   2.375  1.00  0.00     0.174 HD
ENDBRANCH   3  16
BRANCH   6  19
HETATM   19  C   UNL     1      44.134 -11.400   6.627  1.00  0.00    -0.004 A 
HETATM   20  C   UNL     1      43.192 -10.449   7.051  1.00  0.00     0.053 A 
HETATM   21  C   UNL     1      43.647  -9.349   7.750  1.00  0.00     0.106 A 
HETATM   22  C   UNL     1      44.978  -9.163   8.028  1.00  0.00     0.105 A 
HETATM   23  O   UNL     1      42.870  -8.344   8.234  1.00  0.00    -0.323 OA
HETATM   24  O   UNL     1      45.208  -8.020   8.723  1.00  0.00    -0.323 OA
HETATM   25  C   UNL     1      45.930 -10.066   7.615  1.00  0.00     0.040 A 
HETATM   26  C   UNL     1      43.867  -7.500   8.853  1.00  0.00     0.352 A 
HETATM   27  C   UNL     1      45.501 -11.193   6.900  1.00  0.00     0.017 A 
ENDBRANCH   6  19
TORSDOF 5
ENDMDL
MODEL 2
REMARK VINA RESULT:      -8.4      4.768      7.306
REMARK  5 active torsions:
REMARK  status: ('A' for Active; 'I' for Inactive)
REMARK    1  A    between atoms: C_3  and  N_4 
REMARK    2  A    between atoms: N_5  and  C_6 
REMARK    3  A    between atoms: C_6  and  C_7 
REMARK    4  A    between atoms: C_7  and  C_8 
REMARK    5  A    between atoms: C_16  and  C_17 
ROOT
HETATM    1  C   UNL     1      39.455 -13.054   3.331  1.00  0.00     0.175 C 
HETATM    2  N   UNL     1      40.691 -13.772   3.055  1.00  0.00    -0.186 N 
HETATM    3  C   UNL     1      41.508 -14.235   3.999  1.00  0.00     0.680 A 
HETATM    4  N   UNL     1      42.419 -15.021   3.439  1.00  0.00    -0.184 N 
HETATM    5  C   UNL     1      42.196 -15.040   2.074  1.00  0.00     0.140 A 
HETATM    6  C   UNL     1      41.132 -14.209   1.789  1.00  0.00     0.077 A 
ENDROOT
BRANCH   4   7
HETATM    7  C   UNL     1      43.553 -15.695   4.104  1.00  0.00     0.231 C 
BRANCH   7   8
HETATM    8  C   UNL     1      43.130 -16.959   4.842  1.00  0.00     0.178 C 
HETATM    9  O   UNL     1      42.534 -16.901   5.921  1.00  0.00    -0.290 OA
BRANCH   8  10
HETATM   10  C   UNL     1      43.426 -18.282   4.237  1.00  0.00     0.011 A 
HETATM   11  C   UNL     1      43.309 -18.510   2.860  1.00  0.00     0.015 A 
HETATM   12  C   UNL     1      43.585 -19.777   2.342  1.00  0.00     0.001 A 
HETATM   13  C   UNL     1      43.982 -20.810   3.191  1.00  0.00     0.000 A 
HETATM   14  C   UNL     1      44.117 -20.580   4.559  1.00  0.00     0.001 A 
HETATM   15  C   UNL     1      43.846 -19.316   5.083  1.00  0.00     0.015 A 
ENDBRANCH   8  10
ENDBRANCH   7   8
ENDBRANCH   4   7
BRANCH   3  16
HETATM   16  N   UNL     1      41.408 -13.960   5.295  1.00  0.00    -0.234 N 
HETATM   17  H   UNL     1      41.851 -14.514   6.008  1.00  0.00     0.174 HD
HETATM   18  H   UNL     1      41.038 -13.050   5.579  1.00  0.00     0.174 HD
ENDBRANCH   3  16
BRANCH   6  19
HETATM   19  C   UNL     1      40.617 -13.906   0.404  1.00  0.00    -0.004 A 
HETATM   20  C   UNL     1      39.850 -14.870  -0.271  1.00  0.00     0.053 A 
HETATM   21  C   UNL     1      39.393 -14.567  -1.538  1.00  0.00     0.106 A 
HETATM   22  C   UNL     1      39.672 -13.369  -2.145  1.00  0.00     0.105 A 
HETATM   23  O   UNL     1      38.637 -15.383  -2.320  1.00  0.00    -0.323 OA
HETATM   24  O   UNL     1      39.128 -13.275  -3.385  1.00  0.00    -0.323 OA
HETATM   25  C   UNL     1      40.433 -12.408  -1.519  1.00  0.00     0.040 A 
HETATM   26  C   UNL     1      38.471 -14.556  -3.495  1.00  0.00     0.352 A 
HETATM   27  C   UNL     1      40.915 -12.685  -0.233  1.00  0.00     0.017 A 
ENDBRANCH   6  19
TORSDOF 5
ENDMDL
MODEL 3
REMARK VINA RESULT:      -8.4      1.402      1.589
REMARK  5 active torsions:
REMARK  status: ('A' for Active; 'I' for Inactive)
REMARK    1  A    between atoms: C_3  and  N_4 
REMARK    2  A    between atoms: N_5  and  C_6 
REMARK    3  A    between atoms: C_6  and  C_7 
REMARK    4  A    between atoms: C_7  and  C_8 
REMARK    5  A    between atoms: C_16  and  C_17 
ROOT
HETATM    1  C   UNL     1      42.712 -10.953   3.503  1.00  0.00     0.175 C 
HETATM    2  N   UNL     1      42.716 -12.281   4.099  1.00  0.00    -0.186 N 
HETATM    3  C   UNL     1      42.195 -13.359   3.518  1.00  0.00     0.680 A 
HETATM    4  N   UNL     1      42.547 -14.438   4.206  1.00  0.00    -0.184 N 
HETATM    5  C   UNL     1      43.302 -14.033   5.292  1.00  0.00     0.140 A 
HETATM    6  C   UNL     1      43.384 -12.656   5.284  1.00  0.00     0.077 A 
ENDROOT
BRANCH   4   7
HETATM    7  C   UNL     1      42.142 -15.836   3.952  1.00  0.00     0.231 C 
BRANCH   7   8
HETATM    8  C   UNL     1      43.043 -16.531   2.938  1.00  0.00     0.178 C 
HETATM    9  O   UNL     1      43.528 -15.915   1.985  1.00  0.00    -0.290 OA
BRANCH   8  10
HETATM   10  C   UNL     1      43.354 -17.971   3.118  1.00  0.00     0.011 A 
HETATM   11  C   UNL     1      43.124 -18.911   2.107  1.00  0.00     0.015 A 
HETATM   12  C   UNL     1      43.421 -20.257   2.332  1.00  0.00     0.001 A 
HETATM   13  C   UNL     1      43.950 -20.663   3.557  1.00  0.00     0.000 A 
HETATM   14  C   UNL     1      44.196 -19.726   4.559  1.00  0.00     0.001 A 
HETATM   15  C   UNL     1      43.905 -18.379   4.340  1.00  0.00     0.015 A 
ENDBRANCH   8  10
ENDBRANCH   7   8
ENDBRANCH   4   7
BRANCH   3  16
HETATM   16  N   UNL     1      41.454 -13.346   2.415  1.00  0.00    -0.234 N 
HETATM   17  H   UNL     1      41.850 -13.327   1.490  1.00  0.00     0.174 HD
HETATM   18  H   UNL     1      40.458 -13.562   2.487  1.00  0.00     0.174 HD
ENDBRANCH   3  16
BRANCH   6  19
HETATM   19  C   UNL     1      44.066 -11.823   6.340  1.00  0.00    -0.004 A 
HETATM   20  C   UNL     1      43.299 -11.259   7.373  1.00  0.00     0.053 A 
HETATM   21  C   UNL     1      43.949 -10.500   8.325  1.00  0.00     0.106 A 
HETATM   22  C   UNL     1      45.303 -10.283   8.283  1.00  0.00     0.105 A 
HETATM   23  O   UNL     1      43.357  -9.892   9.388  1.00  0.00    -0.323 OA
HETATM   24  O   UNL     1      45.737  -9.512   9.313  1.00  0.00    -0.323 OA
HETATM   25  C   UNL     1      46.083 -10.807   7.278  1.00  0.00     0.040 A 
HETATM   26  C   UNL     1      44.499  -9.264  10.014  1.00  0.00     0.352 A 
HETATM   27  C   UNL     1      45.453 -11.580   6.293  1.00  0.00     0.017 A 
ENDBRANCH   6  19
TORSDOF 5
ENDMDL
MODEL 4
REMARK VINA RESULT:      -8.2      1.520      1.992
REMARK  5 active torsions:
REMARK  status: ('A' for Active; 'I' for Inactive)
REMARK    1  A    between atoms: C_3  and  N_4 
REMARK    2  A    between atoms: N_5  and  C_6 
REMARK    3  A    between atoms: C_6  and  C_7 
REMARK    4  A    between atoms: C_7  and  C_8 
REMARK    5  A    between atoms: C_16  and  C_17 
ROOT
HETATM    1  C   UNL     1      39.922 -12.951   6.034  1.00  0.00     0.175 C 
HETATM    2  N   UNL     1      41.187 -13.501   5.570  1.00  0.00    -0.186 N 
HETATM    3  C   UNL     1      41.289 -14.583   4.801  1.00  0.00     0.680 A 
HETATM    4  N   UNL     1      42.542 -14.698   4.377  1.00  0.00    -0.184 N 
HETATM    5  C   UNL     1      43.282 -13.662   4.920  1.00  0.00     0.140 A 
HETATM    6  C   UNL     1      42.457 -12.910   5.732  1.00  0.00     0.077 A 
ENDROOT
BRANCH   4   7
HETATM    7  C   UNL     1      43.113 -15.781   3.551  1.00  0.00     0.231 C 
BRANCH   7   8
HETATM    8  C   UNL     1      43.718 -16.900   4.390  1.00  0.00     0.178 C 
HETATM    9  O   UNL     1      44.181 -16.680   5.512  1.00  0.00    -0.290 OA
BRANCH   8  10
HETATM   10  C   UNL     1      43.727 -18.282   3.849  1.00  0.00     0.011 A 
HETATM   11  C   UNL     1      43.351 -18.564   2.530  1.00  0.00     0.015 A 
HETATM   12  C   UNL     1      43.363 -19.885   2.073  1.00  0.00     0.001 A 
HETATM   13  C   UNL     1      43.753 -20.917   2.926  1.00  0.00     0.000 A 
HETATM   14  C   UNL     1      44.144 -20.637   4.234  1.00  0.00     0.001 A 
HETATM   15  C   UNL     1      44.138 -19.320   4.695  1.00  0.00     0.015 A 
ENDBRANCH   8  10
ENDBRANCH   7   8
ENDBRANCH   4   7
BRANCH   3  16
HETATM   16  N   UNL     1      40.287 -15.401   4.499  1.00  0.00    -0.234 N 
HETATM   17  H   UNL     1      40.298 -16.383   4.717  1.00  0.00     0.174 HD
HETATM   18  H   UNL     1      39.391 -14.999   4.217  1.00  0.00     0.174 HD
ENDBRANCH   3  16
BRANCH   6  19
HETATM   19  C   UNL     1      42.901 -11.730   6.559  1.00  0.00    -0.004 A 
HETATM   20  C   UNL     1      43.958 -11.888   7.471  1.00  0.00     0.053 A 
HETATM   21  C   UNL     1      44.342 -10.792   8.217  1.00  0.00     0.106 A 
HETATM   22  C   UNL     1      43.721  -9.574   8.094  1.00  0.00     0.105 A 
HETATM   23  O   UNL     1      45.345 -10.774   9.134  1.00  0.00    -0.323 OA
HETATM   24  O   UNL     1      44.254  -8.635   8.917  1.00  0.00    -0.323 OA
HETATM   25  C   UNL     1      42.673  -9.387   7.223  1.00  0.00     0.040 A 
HETATM   26  C   UNL     1      45.285  -9.399   9.577  1.00  0.00     0.352 A 
HETATM   27  C   UNL     1      42.256 -10.482   6.453  1.00  0.00     0.017 A 
ENDBRANCH   6  19
TORSDOF 5
ENDMDL
MODEL 5
REMARK VINA RESULT:      -8.2      2.156      8.466
REMARK  5 active torsions:
REMARK  status: ('A' for Active; 'I' for Inactive)
REMARK    1  A    between atoms: C_3  and  N_4 
REMARK    2  A    between atoms: N_5  and  C_6 
REMARK    3  A    between atoms: C_6  and  C_7 
REMARK    4  A    between atoms: C_7  and  C_8 
REMARK    5  A    between atoms: C_16  and  C_17 
ROOT
HETATM    1  C   UNL     1      40.685 -16.050   6.447  1.00  0.00     0.175 C 
HETATM    2  N   UNL     1      41.380 -15.128   5.559  1.00  0.00    -0.186 N 
HETATM    3  C   UNL     1      41.307 -13.803   5.660  1.00  0.00     0.680 A 
HETATM    4  N   UNL     1      42.211 -13.256   4.856  1.00  0.00    -0.184 N 
HETATM    5  C   UNL     1      42.873 -14.272   4.190  1.00  0.00     0.140 A 
HETATM    6  C   UNL     1      42.328 -15.480   4.576  1.00  0.00     0.077 A 
ENDROOT
BRANCH   4   7
HETATM    7  C   UNL     1      42.438 -11.817   4.609  1.00  0.00     0.231 C 
BRANCH   7   8
HETATM    8  C   UNL     1      43.885 -11.403   4.847  1.00  0.00     0.178 C 
HETATM    9  O   UNL     1      44.690 -11.325   3.916  1.00  0.00    -0.290 OA
BRANCH   8  10
HETATM   10  C   UNL     1      44.321 -11.068   6.226  1.00  0.00     0.011 A 
HETATM   11  C   UNL     1      43.405 -10.759   7.239  1.00  0.00     0.015 A 
HETATM   12  C   UNL     1      43.868 -10.436   8.517  1.00  0.00     0.001 A 
HETATM   13  C   UNL     1      45.237 -10.426   8.784  1.00  0.00     0.000 A 
HETATM   14  C   UNL     1      46.149 -10.750   7.782  1.00  0.00     0.001 A 
HETATM   15  C   UNL     1      45.694 -11.078   6.504  1.00  0.00     0.015 A 
ENDBRANCH   8  10
ENDBRANCH   7   8
ENDBRANCH   4   7
BRANCH   3  16
HETATM   16  N   UNL     1      40.470 -13.144   6.453  1.00  0.00    -0.234 N 
HETATM   17  H   UNL     1      40.254 -12.169   6.331  1.00  0.00     0.174 HD
HETATM   18  H   UNL     1      39.869 -13.675   7.086  1.00  0.00     0.174 HD
ENDBRANCH   3  16
BRANCH   6  19
HETATM   19  C   UNL     1      42.729 -16.825   4.026  1.00  0.00    -0.004 A 
HETATM   20  C   UNL     1      43.343 -17.761   4.875  1.00  0.00     0.053 A 
HETATM   21  C   UNL     1      43.701 -18.984   4.344  1.00  0.00     0.106 A 
HETATM   22  C   UNL     1      43.481 -19.298   3.027  1.00  0.00     0.105 A 
HETATM   23  O   UNL     1      44.295 -19.997   5.029  1.00  0.00    -0.323 OA
HETATM   24  O   UNL     1      43.907 -20.548   2.713  1.00  0.00    -0.323 OA
HETATM   25  C   UNL     1      42.896 -18.401   2.163  1.00  0.00     0.040 A 
HETATM   26  C   UNL     1      44.424 -20.991   3.987  1.00  0.00     0.352 A 
HETATM   27  C   UNL     1      42.524 -17.148   2.669  1.00  0.00     0.017 A 
ENDBRANCH   6  19
TORSDOF 5
ENDMDL
MODEL 6
REMARK VINA RESULT:      -8.1      2.228      8.172
REMARK  5 active torsions:
REMARK  status: ('A' for Active; 'I' for Inactive)
REMARK    1  A    between atoms: C_3  and  N_4 
REMARK    2  A    between atoms: N_5  and  C_6 
REMARK    3  A    between atoms: C_6  and  C_7 
REMARK    4  A    between atoms: C_7  and  C_8 
REMARK    5  A    between atoms: C_16  and  C_17 
ROOT
HETATM    1  C   UNL     1      40.241 -15.418   1.985  1.00  0.00     0.175 C 
HETATM    2  N   UNL     1      41.193 -14.687   2.810  1.00  0.00    -0.186 N 
HETATM    3  C   UNL     1      41.116 -13.381   3.053  1.00  0.00     0.680 A 
HETATM    4  N   UNL     1      41.990 -13.063   4.001  1.00  0.00    -0.184 N 
HETATM    5  C   UNL     1      42.677 -14.208   4.360  1.00  0.00     0.140 A 
HETATM    6  C   UNL     1      42.231 -15.254   3.579  1.00  0.00     0.077 A 
ENDROOT
BRANCH   4   7
HETATM    7  C   UNL     1      42.282 -11.718   4.536  1.00  0.00     0.231 C 
BRANCH   7   8
HETATM    8  C   UNL     1      43.775 -11.468   4.711  1.00  0.00     0.178 C 
HETATM    9  O   UNL     1      44.543 -11.481   3.746  1.00  0.00    -0.290 OA
BRANCH   8  10
HETATM   10  C   UNL     1      44.305 -11.186   6.069  1.00  0.00     0.011 A 
HETATM   11  C   UNL     1      43.460 -10.994   7.169  1.00  0.00     0.015 A 
HETATM   12  C   UNL     1      44.009 -10.716   8.423  1.00  0.00     0.001 A 
HETATM   13  C   UNL     1      45.393 -10.635   8.580  1.00  0.00     0.000 A 
HETATM   14  C   UNL     1      46.235 -10.842   7.490  1.00  0.00     0.001 A 
HETATM   15  C   UNL     1      45.694 -11.124   6.235  1.00  0.00     0.015 A 
ENDBRANCH   8  10
ENDBRANCH   7   8
ENDBRANCH   4   7
BRANCH   3  16
HETATM   16  N   UNL     1      40.282 -12.541   2.449  1.00  0.00    -0.234 N 
HETATM   17  H   UNL     1      39.820 -11.788   2.931  1.00  0.00     0.174 HD
HETATM   18  H   UNL     1      40.252 -12.525   1.428  1.00  0.00     0.174 HD
ENDBRANCH   3  16
BRANCH   6  19
HETATM   19  C   UNL     1      42.779 -16.659   3.617  1.00  0.00    -0.004 A 
HETATM   20  C   UNL     1      42.990 -17.281   4.859  1.00  0.00     0.053 A 
HETATM   21  C   UNL     1      43.494 -18.566   4.865  1.00  0.00     0.106 A 
HETATM   22  C   UNL     1      43.795 -19.235   3.705  1.00  0.00     0.105 A 
HETATM   23  O   UNL     1      43.749 -19.308   5.975  1.00  0.00    -0.323 OA
HETATM   24  O   UNL     1      44.277 -20.483   3.936  1.00  0.00    -0.323 OA
HETATM   25  C   UNL     1      43.615 -18.651   2.472  1.00  0.00     0.040 A 
HETATM   26  C   UNL     1      44.247 -20.528   5.379  1.00  0.00     0.352 A 
HETATM   27  C   UNL     1      43.108 -17.345   2.431  1.00  0.00     0.017 A 
ENDBRANCH   6  19
TORSDOF 5
ENDMDL
MODEL 7
REMARK VINA RESULT:      -7.9      1.963      8.454
REMARK  5 active torsions:
REMARK  status: ('A' for Active; 'I' for Inactive)
REMARK    1  A    between atoms: C_3  and  N_4 
REMARK    2  A    between atoms: N_5  and  C_6 
REMARK    3  A    between atoms: C_6  and  C_7 
REMARK    4  A    between atoms: C_7  and  C_8 
REMARK    5  A    between atoms: C_16  and  C_17 
ROOT
HETATM    1  C   UNL     1      40.134 -15.301   6.454  1.00  0.00     0.175 C 
HETATM    2  N   UNL     1      41.059 -14.344   5.866  1.00  0.00    -0.186 N 
HETATM    3  C   UNL     1      40.938 -13.023   5.984  1.00  0.00     0.680 A 
HETATM    4  N   UNL     1      42.042 -12.443   5.529  1.00  0.00    -0.184 N 
HETATM    5  C   UNL     1      42.896 -13.430   5.073  1.00  0.00     0.140 A 
HETATM    6  C   UNL     1      42.276 -14.654   5.223  1.00  0.00     0.077 A 
ENDROOT
BRANCH   4   7
HETATM    7  C   UNL     1      42.312 -10.995   5.417  1.00  0.00     0.231 C 
BRANCH   7   8
HETATM    8  C   UNL     1      42.414 -10.312   6.775  1.00  0.00     0.178 C 
HETATM    9  O   UNL     1      41.406 -10.030   7.427  1.00  0.00    -0.290 OA
BRANCH   8  10
HETATM   10  C   UNL     1      43.757 -10.001   7.327  1.00  0.00     0.011 A 
HETATM   11  C   UNL     1      43.984  -8.880   8.135  1.00  0.00     0.015 A 
HETATM   12  C   UNL     1      45.270  -8.624   8.617  1.00  0.00     0.001 A 
HETATM   13  C   UNL     1      46.322  -9.483   8.300  1.00  0.00     0.000 A 
HETATM   14  C   UNL     1      46.094 -10.608   7.510  1.00  0.00     0.001 A 
HETATM   15  C   UNL     1      44.812 -10.873   7.028  1.00  0.00     0.015 A 
ENDBRANCH   8  10
ENDBRANCH   7   8
ENDBRANCH   4   7
BRANCH   3  16
HETATM   16  N   UNL     1      39.882 -12.398   6.492  1.00  0.00    -0.234 N 
HETATM   17  H   UNL     1      39.687 -11.426   6.323  1.00  0.00     0.174 HD
HETATM   18  H   UNL     1      39.131 -12.955   6.905  1.00  0.00     0.174 HD
ENDBRANCH   3  16
BRANCH   6  19
HETATM   19  C   UNL     1      42.852 -15.976   4.782  1.00  0.00    -0.004 A 
HETATM   20  C   UNL     1      42.384 -16.570   3.598  1.00  0.00     0.053 A 
HETATM   21  C   UNL     1      42.927 -17.780   3.218  1.00  0.00     0.106 A 
HETATM   22  C   UNL     1      43.894 -18.409   3.962  1.00  0.00     0.105 A 
HETATM   23  O   UNL     1      42.591 -18.481   2.103  1.00  0.00    -0.323 OA
HETATM   24  O   UNL     1      44.290 -19.585   3.411  1.00  0.00    -0.323 OA
HETATM   25  C   UNL     1      44.365 -17.864   5.134  1.00  0.00     0.040 A 
HETATM   26  C   UNL     1      43.460 -19.629   2.230  1.00  0.00     0.352 A 
HETATM   27  C   UNL     1      43.831 -16.637   5.550  1.00  0.00     0.017 A 
ENDBRANCH   6  19
TORSDOF 5
ENDMDL
MODEL 8
REMARK VINA RESULT:      -7.7      2.389      8.512
REMARK  5 active torsions:
REMARK  status: ('A' for Active; 'I' for Inactive)
REMARK    1  A    between atoms: C_3  and  N_4 
REMARK    2  A    between atoms: N_5  and  C_6 
REMARK    3  A    between atoms: C_6  and  C_7 
REMARK    4  A    between atoms: C_7  and  C_8 
REMARK    5  A    between atoms: C_16  and  C_17 
ROOT
HETATM    1  C   UNL     1      40.406 -13.784   5.850  1.00  0.00     0.175 C 
HETATM    2  N   UNL     1      41.730 -13.211   6.046  1.00  0.00    -0.186 N 
HETATM    3  C   UNL     1      41.947 -11.953   6.423  1.00  0.00     0.680 A 
HETATM    4  N   UNL     1      43.233 -11.804   6.720  1.00  0.00    -0.184 N 
HETATM    5  C   UNL     1      43.873 -13.010   6.495  1.00  0.00     0.140 A 
HETATM    6  C   UNL     1      42.952 -13.916   6.012  1.00  0.00     0.077 A 
ENDROOT
BRANCH   4   7
HETATM    7  C   UNL     1      43.921 -10.562   7.125  1.00  0.00     0.231 C 
BRANCH   7   8
HETATM    8  C   UNL     1      44.451 -10.625   8.552  1.00  0.00     0.178 C 
HETATM    9  O   UNL     1      45.597 -11.014   8.793  1.00  0.00    -0.290 OA
BRANCH   8  10
HETATM   10  C   UNL     1      43.574 -10.188   9.667  1.00  0.00     0.011 A 
HETATM   11  C   UNL     1      42.425  -9.418   9.449  1.00  0.00     0.015 A 
HETATM   12  C   UNL     1      41.641  -9.020  10.534  1.00  0.00     0.001 A 
HETATM   13  C   UNL     1      41.997  -9.394  11.830  1.00  0.00     0.000 A 
HETATM   14  C   UNL     1      43.130 -10.175  12.048  1.00  0.00     0.001 A 
HETATM   15  C   UNL     1      43.916 -10.579  10.968  1.00  0.00     0.015 A 
ENDBRANCH   8  10
ENDBRANCH   7   8
ENDBRANCH   4   7
BRANCH   3  16
HETATM   16  N   UNL     1      41.015 -11.010   6.502  1.00  0.00    -0.234 N 
HETATM   17  H   UNL     1      41.233 -10.034   6.610  1.00  0.00     0.174 HD
HETATM   18  H   UNL     1      40.054 -11.244   6.248  1.00  0.00     0.174 HD
ENDBRANCH   3  16
BRANCH   6  19
HETATM   19  C   UNL     1      43.269 -15.326   5.581  1.00  0.00    -0.004 A 
HETATM   20  C   UNL     1      43.185 -15.664   4.220  1.00  0.00     0.053 A 
HETATM   21  C   UNL     1      43.479 -16.962   3.854  1.00  0.00     0.106 A 
HETATM   22  C   UNL     1      43.838 -17.914   4.774  1.00  0.00     0.105 A 
HETATM   23  O   UNL     1      43.452 -17.449   2.585  1.00  0.00    -0.323 OA
HETATM   24  O   UNL     1      44.084 -19.121   4.203  1.00  0.00    -0.323 OA
HETATM   25  C   UNL     1      43.916 -17.622   6.116  1.00  0.00     0.040 A 
HETATM   26  C   UNL     1      43.838 -18.824   2.812  1.00  0.00     0.352 A 
HETATM   27  C   UNL     1      43.620 -16.313   6.522  1.00  0.00     0.017 A 
ENDBRANCH   6  19
TORSDOF 5
ENDMDL
MODEL 9
REMARK VINA RESULT:      -7.6      2.643      8.608
REMARK  5 active torsions:
REMARK  status: ('A' for Active; 'I' for Inactive)
REMARK    1  A    between atoms: C_3  and  N_4 
REMARK    2  A    between atoms: N_5  and  C_6 
REMARK    3  A    between atoms: C_6  and  C_7 
REMARK    4  A    between atoms: C_7  and  C_8 
REMARK    5  A    between atoms: C_16  and  C_17 
ROOT
HETATM    1  C   UNL     1      40.208 -12.585   5.902  1.00  0.00     0.175 C 
HETATM    2  N   UNL     1      41.542 -12.010   6.002  1.00  0.00    -0.186 N 
HETATM    3  C   UNL     1      41.853 -10.989   6.798  1.00  0.00     0.680 A 
HETATM    4  N   UNL     1      43.172 -10.845   6.824  1.00  0.00    -0.184 N 
HETATM    5  C   UNL     1      43.730 -11.794   5.987  1.00  0.00     0.140 A 
HETATM    6  C   UNL     1      42.712 -12.520   5.403  1.00  0.00     0.077 A 
ENDROOT
BRANCH   4   7
HETATM    7  C   UNL     1      43.946  -9.803   7.530  1.00  0.00     0.231 C 
BRANCH   7   8
HETATM    8  C   UNL     1      44.571 -10.313   8.823  1.00  0.00     0.178 C 
HETATM    9  O   UNL     1      45.560 -11.051   8.809  1.00  0.00    -0.290 OA
BRANCH   8  10
HETATM   10  C   UNL     1      43.986  -9.894  10.121  1.00  0.00     0.011 A 
HETATM   11  C   UNL     1      43.637 -10.821  11.111  1.00  0.00     0.015 A 
HETATM   12  C   UNL     1      43.076 -10.377  12.310  1.00  0.00     0.001 A 
HETATM   13  C   UNL     1      42.867  -9.014  12.523  1.00  0.00     0.000 A 
HETATM   14  C   UNL     1      43.230  -8.088  11.547  1.00  0.00     0.001 A 
HETATM   15  C   UNL     1      43.794  -8.525  10.348  1.00  0.00     0.015 A 
ENDBRANCH   8  10
ENDBRANCH   7   8
ENDBRANCH   4   7
BRANCH   3  16
HETATM   16  N   UNL     1      40.975 -10.250   7.468  1.00  0.00    -0.234 N 
HETATM   17  H   UNL     1      40.216 -10.646   7.995  1.00  0.00     0.174 HD
HETATM   18  H   UNL     1      41.180  -9.261   7.624  1.00  0.00     0.174 HD
ENDBRANCH   3  16
BRANCH   6  19
HETATM   19  C   UNL     1      42.904 -13.606   4.374  1.00  0.00    -0.004 A 
HETATM   20  C   UNL     1      42.917 -14.949   4.786  1.00  0.00     0.053 A 
HETATM   21  C   UNL     1      43.095 -15.922   3.824  1.00  0.00     0.106 A 
HETATM   22  C   UNL     1      43.264 -15.613   2.498  1.00  0.00     0.105 A 
HETATM   23  O   UNL     1      43.126 -17.262   4.054  1.00  0.00    -0.323 OA
HETATM   24  O   UNL     1      43.423 -16.716   1.724  1.00  0.00    -0.323 OA
HETATM   25  C   UNL     1      43.272 -14.308   2.061  1.00  0.00     0.040 A 
HETATM   26  C   UNL     1      43.335 -17.764   2.714  1.00  0.00     0.352 A 
HETATM   27  C   UNL     1      43.097 -13.295   3.014  1.00  0.00     0.017 A 
ENDBRANCH   6  19
TORSDOF 5
ENDMDL
MODEL 10
REMARK VINA RESULT:      -7.5      5.374      8.091
REMARK  5 active torsions:
REMARK  status: ('A' for Active; 'I' for Inactive)
REMARK    1  A    between atoms: C_3  and  N_4 
REMARK    2  A    between atoms: N_5  and  C_6 
REMARK    3  A    between atoms: C_6  and  C_7 
REMARK    4  A    between atoms: C_7  and  C_8 
REMARK    5  A    between atoms: C_16  and  C_17 
ROOT
HETATM    1  C   UNL     1      41.385 -10.083   0.678  1.00  0.00     0.175 C 
HETATM    2  N   UNL     1      41.123 -11.223   1.544  1.00  0.00    -0.186 N 
HETATM    3  C   UNL     1      41.653 -11.374   2.756  1.00  0.00     0.680 A 
HETATM    4  N   UNL     1      41.056 -12.389   3.368  1.00  0.00    -0.184 N 
HETATM    5  C   UNL     1      40.124 -12.932   2.503  1.00  0.00     0.140 A 
HETATM    6  C   UNL     1      40.179 -12.244   1.308  1.00  0.00     0.077 A 
ENDROOT
BRANCH   4   7
HETATM    7  C   UNL     1      41.371 -12.942   4.702  1.00  0.00     0.231 C 
BRANCH   7   8
HETATM    8  C   UNL     1      42.681 -13.719   4.720  1.00  0.00     0.178 C 
HETATM    9  O   UNL     1      43.608 -13.393   5.466  1.00  0.00    -0.290 OA
BRANCH   8  10
HETATM   10  C   UNL     1      42.831 -14.901   3.834  1.00  0.00     0.011 A 
HETATM   11  C   UNL     1      42.527 -16.197   4.270  1.00  0.00     0.015 A 
HETATM   12  C   UNL     1      42.699 -17.278   3.403  1.00  0.00     0.001 A 
HETATM   13  C   UNL     1      43.167 -17.067   2.105  1.00  0.00     0.000 A 
HETATM   14  C   UNL     1      43.454 -15.777   1.664  1.00  0.00     0.001 A 
HETATM   15  C   UNL     1      43.281 -14.692   2.524  1.00  0.00     0.015 A 
ENDBRANCH   8  10
ENDBRANCH   7   8
ENDBRANCH   4   7
BRANCH   3  16
HETATM   16  N   UNL     1      42.615 -10.613   3.267  1.00  0.00    -0.234 N 
HETATM   17  H   UNL     1      43.553 -10.943   3.414  1.00  0.00     0.174 HD
HETATM   18  H   UNL     1      42.464  -9.604   3.331  1.00  0.00     0.174 HD
ENDBRANCH   3  16
BRANCH   6  19
HETATM   19  C   UNL     1      39.365 -12.574   0.081  1.00  0.00    -0.004 A 
HETATM   20  C   UNL     1      39.722 -13.682  -0.704  1.00  0.00     0.053 A 
HETATM   21  C   UNL     1      38.962 -13.960  -1.821  1.00  0.00     0.106 A 
HETATM   22  C   UNL     1      37.887 -13.187  -2.180  1.00  0.00     0.105 A 
HETATM   23  O   UNL     1      39.168 -14.994  -2.680  1.00  0.00    -0.323 OA
HETATM   24  O   UNL     1      37.278 -13.634  -3.308  1.00  0.00    -0.323 OA
HETATM   25  C   UNL     1      37.517 -12.085  -1.443  1.00  0.00     0.040 A 
HETATM   26  C   UNL     1      38.095 -14.783  -3.625  1.00  0.00     0.352 A 
HETATM   27  C   UNL     1      38.271 -11.773  -0.304  1.00  0.00     0.017 A 
ENDBRANCH   6  19
TORSDOF 5
ENDMDL
