MODEL 1
REMARK VINA RESULT:      -8.6      0.000      0.000
REMARK  5 active torsions:
REMARK  status: ('A' for Active; 'I' for Inactive)
REMARK    1  A    between atoms: C_6  and  O_7 
REMARK    2  A    between atoms: O_7  and  C_8 
REMARK    3  A    between atoms: C_8  and  C_9 
REMARK       I    between atoms: C_9  and  N_10 
REMARK    4  A    between atoms: N_10  and  N_11 
REMARK    5  A    between atoms: C_12  and  C_13 
ROOT
HETATM    1  C   UNL     1      40.792 -14.914   3.923  1.00  0.00     0.261 C 
HETATM    2  N   UNL     1      40.575 -13.573   3.652  1.00  0.00    -0.246 N 
HETATM    3  O   UNL     1      40.183 -15.848   3.400  1.00  0.00    -0.269 OA
HETATM    4  H   UNL     1      41.091 -12.857   4.153  1.00  0.00     0.192 HD
ENDROOT
BRANCH   2   5
HETATM    5  N   UNL     1      39.693 -13.258   2.667  1.00  0.00    -0.184 NA
HETATM    6  C   UNL     1      40.155 -12.810   1.548  1.00  0.00     0.153 C 
BRANCH   6   7
HETATM    7  C   UNL     1      39.211 -12.519   0.479  1.00  0.00     0.018 A 
HETATM    8  C   UNL     1      38.972 -13.272  -0.724  1.00  0.00     0.004 A 
HETATM    9  C   UNL     1      37.997 -12.596  -1.457  1.00  0.00     0.043 A 
HETATM   10  C   UNL     1      39.499 -14.465  -1.267  1.00  0.00     0.014 A 
HETATM   11  C   UNL     1      37.527 -13.047  -2.697  1.00  0.00     0.030 A 
HETATM   12  N   UNL     1      37.647 -11.486  -0.730  1.00  0.00    -0.358 N 
HETATM   13  C   UNL     1      38.069 -14.230  -3.209  1.00  0.00     0.002 A 
HETATM   14  C   UNL     1      39.043 -14.933  -2.504  1.00  0.00     0.001 A 
HETATM   15  H   UNL     1      36.955 -10.813  -1.030  1.00  0.00     0.166 HD
HETATM   16  C   UNL     1      38.369 -11.415   0.438  1.00  0.00     0.018 A 
HETATM   17  C   UNL     1      38.174 -10.291   1.390  1.00  0.00     0.069 C 
ENDBRANCH   6   7
ENDBRANCH   2   5
BRANCH   1  18
HETATM   18  C   UNL     1      41.950 -15.188   4.874  1.00  0.00     0.280 C 
BRANCH  18  19
HETATM   19  O   UNL     1      43.221 -15.339   4.235  1.00  0.00    -0.340 OA
BRANCH  19  20
HETATM   20  C   UNL     1      43.473 -16.676   4.019  1.00  0.00     0.092 A 
HETATM   21  C   UNL     1      43.829 -17.486   5.105  1.00  0.00     0.045 A 
HETATM   22  C   UNL     1      44.011 -18.861   4.929  1.00  0.00     0.028 A 
HETATM   23 BR   UNL     1      44.038 -16.767   6.849  1.00  0.00    -0.048 Br
HETATM   24  C   UNL     1      43.859 -19.436   3.662  1.00  0.00    -0.060 A 
HETATM   25  C   UNL     1      43.967 -20.922   3.481  1.00  0.00     0.048 C 
HETATM   26  C   UNL     1      43.538 -18.614   2.574  1.00  0.00     0.016 A 
HETATM   27  C   UNL     1      43.374 -17.227   2.730  1.00  0.00    -0.027 A 
HETATM   28  C   UNL     1      43.042 -16.398   1.522  1.00  0.00     0.051 C 
ENDBRANCH  19  20
ENDBRANCH  18  19
ENDBRANCH   1  18
TORSDOF 5
ENDMDL
MODEL 2
REMARK VINA RESULT:      -8.5      2.996      8.887
REMARK  5 active torsions:
REMARK  status: ('A' for Active; 'I' for Inactive)
REMARK    1  A    between atoms: C_6  and  O_7 
REMARK    2  A    between atoms: O_7  and  C_8 
REMARK    3  A    between atoms: C_8  and  C_9 
REMARK       I    between atoms: C_9  and  N_10 
REMARK    4  A    between atoms: N_10  and  N_11 
REMARK    5  A    between atoms: C_12  and  C_13 
ROOT
HETATM    1  C   UNL     1      40.289 -14.577   1.350  1.00  0.00     0.261 C 
HETATM    2  N   UNL     1      41.267 -14.409   2.317  1.00  0.00    -0.246 N 
HETATM    3  O   UNL     1      39.842 -15.664   0.980  1.00  0.00    -0.269 OA
HETATM    4  H   UNL     1      41.614 -13.482   2.541  1.00  0.00     0.192 HD
ENDROOT
BRANCH   2   5
HETATM    5  N   UNL     1      41.702 -15.513   2.981  1.00  0.00    -0.184 NA
HETATM    6  C   UNL     1      42.966 -15.630   3.214  1.00  0.00     0.153 C 
BRANCH   6   7
HETATM    7  C   UNL     1      43.424 -16.788   3.968  1.00  0.00     0.018 A 
HETATM    8  C   UNL     1      43.502 -18.157   3.531  1.00  0.00     0.004 A 
HETATM    9  C   UNL     1      43.976 -18.914   4.601  1.00  0.00     0.043 A 
HETATM   10  C   UNL     1      43.206 -18.830   2.324  1.00  0.00     0.014 A 
HETATM   11  C   UNL     1      44.167 -20.300   4.530  1.00  0.00     0.030 A 
HETATM   12  N   UNL     1      44.190 -18.046   5.643  1.00  0.00    -0.358 N 
HETATM   13  C   UNL     1      43.864 -20.938   3.322  1.00  0.00     0.002 A 
HETATM   14  C   UNL     1      43.390 -20.214   2.232  1.00  0.00     0.001 A 
HETATM   15  H   UNL     1      44.536 -18.329   6.549  1.00  0.00     0.166 HD
HETATM   16  C   UNL     1      43.859 -16.760   5.287  1.00  0.00     0.018 A 
HETATM   17  C   UNL     1      43.994 -15.640   6.254  1.00  0.00     0.069 C 
ENDBRANCH   6   7
ENDBRANCH   2   5
BRANCH   1  18
HETATM   18  C   UNL     1      39.698 -13.279   0.816  1.00  0.00     0.280 C 
BRANCH  18  19
HETATM   19  O   UNL     1      40.143 -12.919  -0.495  1.00  0.00    -0.340 OA
BRANCH  19  20
HETATM   20  C   UNL     1      39.101 -12.355  -1.198  1.00  0.00     0.092 A 
HETATM   21  C   UNL     1      38.380 -13.147  -2.101  1.00  0.00     0.045 A 
HETATM   22  C   UNL     1      37.268 -12.623  -2.767  1.00  0.00     0.028 A 
HETATM   23 BR   UNL     1      38.853 -14.956  -2.425  1.00  0.00    -0.048 Br
HETATM   24  C   UNL     1      36.878 -11.296  -2.552  1.00  0.00    -0.060 A 
HETATM   25  C   UNL     1      35.637 -10.753  -3.196  1.00  0.00     0.048 C 
HETATM   26  C   UNL     1      37.626 -10.499  -1.675  1.00  0.00     0.016 A 
HETATM   27  C   UNL     1      38.760 -11.003  -1.016  1.00  0.00    -0.027 A 
HETATM   28  C   UNL     1      39.526 -10.095  -0.097  1.00  0.00     0.051 C 
ENDBRANCH  19  20
ENDBRANCH  18  19
ENDBRANCH   1  18
TORSDOF 5
ENDMDL
MODEL 3
REMARK VINA RESULT:      -8.3      1.927      2.817
REMARK  5 active torsions:
REMARK  status: ('A' for Active; 'I' for Inactive)
REMARK    1  A    between atoms: C_6  and  O_7 
REMARK    2  A    between atoms: O_7  and  C_8 
REMARK    3  A    between atoms: C_8  and  C_9 
REMARK       I    between atoms: C_9  and  N_10 
REMARK    4  A    between atoms: N_10  and  N_11 
REMARK    5  A    between atoms: C_12  and  C_13 
ROOT
HETATM    1  C   UNL     1      40.436 -14.663   2.760  1.00  0.00     0.261 C 
HETATM    2  N   UNL     1      40.439 -15.142   1.460  1.00  0.00    -0.246 N 
HETATM    3  O   UNL     1      39.985 -13.571   3.109  1.00  0.00    -0.269 OA
HETATM    4  H   UNL     1      40.866 -16.037   1.243  1.00  0.00     0.192 HD
ENDROOT
BRANCH   2   5
HETATM    5  N   UNL     1      39.815 -14.400   0.507  1.00  0.00    -0.184 NA
HETATM    6  C   UNL     1      40.493 -14.031  -0.527  1.00  0.00     0.153 C 
BRANCH   6   7
HETATM    7  C   UNL     1      39.810 -13.279  -1.569  1.00  0.00     0.018 A 
HETATM    8  C   UNL     1      39.819 -11.857  -1.790  1.00  0.00     0.004 A 
HETATM    9  C   UNL     1      39.002 -11.596  -2.888  1.00  0.00     0.043 A 
HETATM   10  C   UNL     1      40.443 -10.761  -1.152  1.00  0.00     0.014 A 
HETATM   11  C   UNL     1      38.774 -10.303  -3.378  1.00  0.00     0.030 A 
HETATM   12  N   UNL     1      38.522 -12.804  -3.327  1.00  0.00    -0.358 N 
HETATM   13  C   UNL     1      39.404  -9.238  -2.725  1.00  0.00     0.002 A 
HETATM   14  C   UNL     1      40.228  -9.462  -1.627  1.00  0.00     0.001 A 
HETATM   15  H   UNL     1      37.900 -12.909  -4.117  1.00  0.00     0.166 HD
HETATM   16  C   UNL     1      38.991 -13.833  -2.545  1.00  0.00     0.018 A 
HETATM   17  C   UNL     1      38.599 -15.240  -2.817  1.00  0.00     0.069 C 
ENDBRANCH   6   7
ENDBRANCH   2   5
BRANCH   1  18
HETATM   18  C   UNL     1      40.954 -15.650   3.798  1.00  0.00     0.280 C 
BRANCH  18  19
HETATM   19  O   UNL     1      42.328 -15.472   4.153  1.00  0.00    -0.340 OA
BRANCH  19  20
HETATM   20  C   UNL     1      42.903 -16.699   4.403  1.00  0.00     0.092 A 
HETATM   21  C   UNL     1      42.982 -17.158   5.724  1.00  0.00     0.045 A 
HETATM   22  C   UNL     1      43.485 -18.432   6.000  1.00  0.00     0.028 A 
HETATM   23 BR   UNL     1      42.377 -16.097   7.177  1.00  0.00    -0.048 Br
HETATM   24  C   UNL     1      43.935 -19.253   4.959  1.00  0.00    -0.060 A 
HETATM   25  C   UNL     1      44.397 -20.653   5.236  1.00  0.00     0.048 C 
HETATM   26  C   UNL     1      43.888 -18.773   3.643  1.00  0.00     0.016 A 
HETATM   27  C   UNL     1      43.405 -17.486   3.352  1.00  0.00    -0.027 A 
HETATM   28  C   UNL     1      43.390 -17.025   1.922  1.00  0.00     0.051 C 
ENDBRANCH  19  20
ENDBRANCH  18  19
ENDBRANCH   1  18
TORSDOF 5
ENDMDL
MODEL 4
REMARK VINA RESULT:      -8.3      4.700      8.546
REMARK  5 active torsions:
REMARK  status: ('A' for Active; 'I' for Inactive)
REMARK    1  A    between atoms: C_6  and  O_7 
REMARK    2  A    between atoms: O_7  and  C_8 
REMARK    3  A    between atoms: C_8  and  C_9 
REMARK       I    between atoms: C_9  and  N_10 
REMARK    4  A    between atoms: N_10  and  N_11 
REMARK    5  A    between atoms: C_12  and  C_13 
ROOT
HETATM    1  C   UNL     1      42.253 -12.752   5.033  1.00  0.00     0.261 C 
HETATM    2  N   UNL     1      42.044 -14.012   5.571  1.00  0.00    -0.246 N 
HETATM    3  O   UNL     1      42.622 -12.531   3.879  1.00  0.00    -0.269 OA
HETATM    4  H   UNL     1      41.778 -14.117   6.545  1.00  0.00     0.192 HD
ENDROOT
BRANCH   2   5
HETATM    5  N   UNL     1      42.159 -15.085   4.744  1.00  0.00    -0.184 NA
HETATM    6  C   UNL     1      43.273 -15.735   4.732  1.00  0.00     0.153 C 
BRANCH   6   7
HETATM    7  C   UNL     1      43.376 -16.912   3.883  1.00  0.00     0.018 A 
HETATM    8  C   UNL     1      43.589 -18.279   4.280  1.00  0.00     0.004 A 
HETATM    9  C   UNL     1      43.641 -19.051   3.121  1.00  0.00     0.043 A 
HETATM   10  C   UNL     1      43.750 -18.935   5.521  1.00  0.00     0.014 A 
HETATM   11  C   UNL     1      43.847 -20.437   3.137  1.00  0.00     0.030 A 
HETATM   12  N   UNL     1      43.457 -18.198   2.062  1.00  0.00    -0.358 N 
HETATM   13  C   UNL     1      44.005 -21.058   4.380  1.00  0.00     0.002 A 
HETATM   14  C   UNL     1      43.957 -20.319   5.558  1.00  0.00     0.001 A 
HETATM   15  H   UNL     1      43.449 -18.494   1.095  1.00  0.00     0.166 HD
HETATM   16  C   UNL     1      43.301 -16.903   2.495  1.00  0.00     0.018 A 
HETATM   17  C   UNL     1      43.099 -15.792   1.529  1.00  0.00     0.069 C 
ENDBRANCH   6   7
ENDBRANCH   2   5
BRANCH   1  18
HETATM   18  C   UNL     1      41.889 -11.600   5.960  1.00  0.00     0.280 C 
BRANCH  18  19
HETATM   19  O   UNL     1      42.780 -10.483   5.898  1.00  0.00    -0.340 OA
BRANCH  19  20
HETATM   20  C   UNL     1      43.175 -10.136   7.171  1.00  0.00     0.092 A 
HETATM   21  C   UNL     1      42.382  -9.250   7.912  1.00  0.00     0.045 A 
HETATM   22  C   UNL     1      42.713  -8.943   9.235  1.00  0.00     0.028 A 
HETATM   23 BR   UNL     1      40.818  -8.469   7.173  1.00  0.00    -0.048 Br
HETATM   24  C   UNL     1      43.853  -9.503   9.823  1.00  0.00    -0.060 A 
HETATM   25  C   UNL     1      44.170  -9.247  11.268  1.00  0.00     0.048 C 
HETATM   26  C   UNL     1      44.662 -10.359   9.065  1.00  0.00     0.016 A 
HETATM   27  C   UNL     1      44.355 -10.660   7.727  1.00  0.00    -0.027 A 
HETATM   28  C   UNL     1      45.267 -11.576   6.963  1.00  0.00     0.051 C 
ENDBRANCH  19  20
ENDBRANCH  18  19
ENDBRANCH   1  18
TORSDOF 5
ENDMDL
MODEL 5
REMARK VINA RESULT:      -8.3      6.436      9.520
REMARK  5 active torsions:
REMARK  status: ('A' for Active; 'I' for Inactive)
REMARK    1  A    between atoms: C_6  and  O_7 
REMARK    2  A    between atoms: O_7  and  C_8 
REMARK    3  A    between atoms: C_8  and  C_9 
REMARK       I    between atoms: C_9  and  N_10 
REMARK    4  A    between atoms: N_10  and  N_11 
REMARK    5  A    between atoms: C_12  and  C_13 
ROOT
HETATM    1  C   UNL     1      43.626 -11.003   6.941  1.00  0.00     0.261 C 
HETATM    2  N   UNL     1      43.362 -12.231   7.526  1.00  0.00    -0.246 N 
HETATM    3  O   UNL     1      44.216 -10.844   5.871  1.00  0.00    -0.269 OA
HETATM    4  H   UNL     1      42.905 -12.282   8.431  1.00  0.00     0.192 HD
ENDROOT
BRANCH   2   5
HETATM    5  N   UNL     1      43.691 -13.352   6.830  1.00  0.00    -0.184 NA
HETATM    6  C   UNL     1      42.738 -14.099   6.383  1.00  0.00     0.153 C 
BRANCH   6   7
HETATM    7  C   UNL     1      43.091 -15.271   5.597  1.00  0.00     0.018 A 
HETATM    8  C   UNL     1      43.048 -15.429   4.167  1.00  0.00     0.004 A 
HETATM    9  C   UNL     1      43.454 -16.730   3.874  1.00  0.00     0.043 A 
HETATM   10  C   UNL     1      42.693 -14.588   3.089  1.00  0.00     0.014 A 
HETATM   11  C   UNL     1      43.520 -17.232   2.568  1.00  0.00     0.030 A 
HETATM   12  N   UNL     1      43.744 -17.339   5.070  1.00  0.00    -0.358 N 
HETATM   13  C   UNL     1      43.162 -16.375   1.522  1.00  0.00     0.002 A 
HETATM   14  C   UNL     1      42.753 -15.070   1.777  1.00  0.00     0.001 A 
HETATM   15  H   UNL     1      44.064 -18.294   5.152  1.00  0.00     0.166 HD
HETATM   16  C   UNL     1      43.528 -16.481   6.123  1.00  0.00     0.018 A 
HETATM   17  C   UNL     1      43.762 -16.917   7.524  1.00  0.00     0.069 C 
ENDBRANCH   6   7
ENDBRANCH   2   5
BRANCH   1  18
HETATM   18  C   UNL     1      43.029  -9.811   7.677  1.00  0.00     0.280 C 
BRANCH  18  19
HETATM   19  O   UNL     1      43.986  -8.838   8.104  1.00  0.00    -0.340 OA
BRANCH  19  20
HETATM   20  C   UNL     1      43.728  -8.477   9.408  1.00  0.00     0.092 A 
HETATM   21  C   UNL     1      42.868  -7.400   9.659  1.00  0.00     0.045 A 
HETATM   22  C   UNL     1      42.524  -7.063  10.972  1.00  0.00     0.028 A 
HETATM   23 BR   UNL     1      42.111  -6.388   8.243  1.00  0.00    -0.048 Br
HETATM   24  C   UNL     1      43.052  -7.787  12.047  1.00  0.00    -0.060 A 
HETATM   25  C   UNL     1      42.622  -7.488  13.453  1.00  0.00     0.048 C 
HETATM   26  C   UNL     1      43.940  -8.840  11.789  1.00  0.00     0.016 A 
HETATM   27  C   UNL     1      44.314  -9.176  10.477  1.00  0.00    -0.027 A 
HETATM   28  C   UNL     1      45.279 -10.308  10.267  1.00  0.00     0.051 C 
ENDBRANCH  19  20
ENDBRANCH  18  19
ENDBRANCH   1  18
TORSDOF 5
ENDMDL
MODEL 6
REMARK VINA RESULT:      -8.2      5.052      7.815
REMARK  5 active torsions:
REMARK  status: ('A' for Active; 'I' for Inactive)
REMARK    1  A    between atoms: C_6  and  O_7 
REMARK    2  A    between atoms: O_7  and  C_8 
REMARK    3  A    between atoms: C_8  and  C_9 
REMARK       I    between atoms: C_9  and  N_10 
REMARK    4  A    between atoms: N_10  and  N_11 
REMARK    5  A    between atoms: C_12  and  C_13 
ROOT
HETATM    1  C   UNL     1      41.507 -13.878   5.692  1.00  0.00     0.261 C 
HETATM    2  N   UNL     1      42.501 -12.918   5.793  1.00  0.00    -0.246 N 
HETATM    3  O   UNL     1      40.478 -13.901   6.368  1.00  0.00    -0.269 OA
HETATM    4  H   UNL     1      43.342 -12.987   5.228  1.00  0.00     0.192 HD
ENDROOT
BRANCH   2   5
HETATM    5  N   UNL     1      42.290 -11.868   6.631  1.00  0.00    -0.184 NA
HETATM    6  C   UNL     1      43.203 -10.959   6.719  1.00  0.00     0.153 C 
BRANCH   6   7
HETATM    7  C   UNL     1      42.953  -9.813   7.579  1.00  0.00     0.018 A 
HETATM    8  C   UNL     1      43.329  -9.637   8.957  1.00  0.00     0.004 A 
HETATM    9  C   UNL     1      42.856  -8.392   9.368  1.00  0.00     0.043 A 
HETATM   10  C   UNL     1      44.024 -10.426   9.902  1.00  0.00     0.014 A 
HETATM   11  C   UNL     1      43.037  -7.898  10.666  1.00  0.00     0.030 A 
HETATM   12  N   UNL     1      42.227  -7.826   8.287  1.00  0.00    -0.358 N 
HETATM   13  C   UNL     1      43.728  -8.702  11.579  1.00  0.00     0.002 A 
HETATM   14  C   UNL     1      44.217  -9.950  11.204  1.00  0.00     0.001 A 
HETATM   15  H   UNL     1      41.789  -6.915   8.305  1.00  0.00     0.166 HD
HETATM   16  C   UNL     1      42.268  -8.665   7.199  1.00  0.00     0.018 A 
HETATM   17  C   UNL     1      41.642  -8.275   5.909  1.00  0.00     0.069 C 
ENDBRANCH   6   7
ENDBRANCH   2   5
BRANCH   1  18
HETATM   18  C   UNL     1      41.719 -14.892   4.576  1.00  0.00     0.280 C 
BRANCH  18  19
HETATM   19  O   UNL     1      43.075 -15.020   4.139  1.00  0.00    -0.340 OA
BRANCH  19  20
HETATM   20  C   UNL     1      43.327 -16.329   3.791  1.00  0.00     0.092 A 
HETATM   21  C   UNL     1      43.858 -17.200   4.751  1.00  0.00     0.045 A 
HETATM   22  C   UNL     1      44.047 -18.552   4.450  1.00  0.00     0.028 A 
HETATM   23 BR   UNL     1      44.301 -16.596   6.495  1.00  0.00    -0.048 Br
HETATM   24  C   UNL     1      43.726 -19.042   3.179  1.00  0.00    -0.060 A 
HETATM   25  C   UNL     1      43.845 -20.507   2.874  1.00  0.00     0.048 C 
HETATM   26  C   UNL     1      43.229 -18.158   2.212  1.00  0.00     0.016 A 
HETATM   27  C   UNL     1      43.055 -16.792   2.492  1.00  0.00    -0.027 A 
HETATM   28  C   UNL     1      42.529 -15.894   1.409  1.00  0.00     0.051 C 
ENDBRANCH  19  20
ENDBRANCH  18  19
ENDBRANCH   1  18
TORSDOF 5
ENDMDL
MODEL 7
REMARK VINA RESULT:      -8.0      5.919      8.872
REMARK  5 active torsions:
REMARK  status: ('A' for Active; 'I' for Inactive)
REMARK    1  A    between atoms: C_6  and  O_7 
REMARK    2  A    between atoms: O_7  and  C_8 
REMARK    3  A    between atoms: C_8  and  C_9 
REMARK       I    between atoms: C_9  and  N_10 
REMARK    4  A    between atoms: N_10  and  N_11 
REMARK    5  A    between atoms: C_12  and  C_13 
ROOT
HETATM    1  C   UNL     1      42.520 -11.052   6.200  1.00  0.00     0.261 C 
HETATM    2  N   UNL     1      42.527 -12.400   6.520  1.00  0.00    -0.246 N 
HETATM    3  O   UNL     1      42.664 -10.596   5.065  1.00  0.00    -0.269 OA
HETATM    4  H   UNL     1      42.442 -12.699   7.487  1.00  0.00     0.192 HD
ENDROOT
BRANCH   2   5
HETATM    5  N   UNL     1      42.602 -13.297   5.501  1.00  0.00    -0.184 NA
HETATM    6  C   UNL     1      41.762 -14.276   5.481  1.00  0.00     0.153 C 
BRANCH   6   7
HETATM    7  C   UNL     1      41.814 -15.207   4.364  1.00  0.00     0.018 A 
HETATM    8  C   UNL     1      42.648 -16.370   4.214  1.00  0.00     0.004 A 
HETATM    9  C   UNL     1      42.365 -16.934   2.972  1.00  0.00     0.043 A 
HETATM   10  C   UNL     1      43.627 -16.996   5.018  1.00  0.00     0.014 A 
HETATM   11  C   UNL     1      43.008 -18.083   2.492  1.00  0.00     0.030 A 
HETATM   12  N   UNL     1      41.393 -16.158   2.390  1.00  0.00    -0.358 N 
HETATM   13  C   UNL     1      43.973 -18.679   3.309  1.00  0.00     0.002 A 
HETATM   14  C   UNL     1      44.280 -18.145   4.557  1.00  0.00     0.001 A 
HETATM   15  H   UNL     1      40.999 -16.340   1.478  1.00  0.00     0.166 HD
HETATM   16  C   UNL     1      41.049 -15.108   3.208  1.00  0.00     0.018 A 
HETATM   17  C   UNL     1      40.022 -14.119   2.790  1.00  0.00     0.069 C 
ENDBRANCH   6   7
ENDBRANCH   2   5
BRANCH   1  18
HETATM   18  C   UNL     1      42.209 -10.126   7.368  1.00  0.00     0.280 C 
BRANCH  18  19
HETATM   19  O   UNL     1      43.172  -9.089   7.577  1.00  0.00    -0.340 OA
BRANCH  19  20
HETATM   20  C   UNL     1      43.243  -8.788   8.919  1.00  0.00     0.092 A 
HETATM   21  C   UNL     1      42.325  -7.881   9.463  1.00  0.00     0.045 A 
HETATM   22  C   UNL     1      42.321  -7.619  10.836  1.00  0.00     0.028 A 
HETATM   23 BR   UNL     1      41.033  -7.011   8.378  1.00  0.00    -0.048 Br
HETATM   24  C   UNL     1      43.250  -8.245  11.676  1.00  0.00    -0.060 A 
HETATM   25  C   UNL     1      43.199  -8.035  13.161  1.00  0.00     0.048 C 
HETATM   26  C   UNL     1      44.190  -9.123  11.119  1.00  0.00     0.016 A 
HETATM   27  C   UNL     1      44.221  -9.379   9.738  1.00  0.00    -0.027 A 
HETATM   28  C   UNL     1      45.260 -10.322   9.201  1.00  0.00     0.051 C 
ENDBRANCH  19  20
ENDBRANCH  18  19
ENDBRANCH   1  18
TORSDOF 5
ENDMDL
MODEL 8
REMARK VINA RESULT:      -7.8      1.838      2.733
REMARK  5 active torsions:
REMARK  status: ('A' for Active; 'I' for Inactive)
REMARK    1  A    between atoms: C_6  and  O_7 
REMARK    2  A    between atoms: O_7  and  C_8 
REMARK    3  A    between atoms: C_8  and  C_9 
REMARK       I    between atoms: C_9  and  N_10 
REMARK    4  A    between atoms: N_10  and  N_11 
REMARK    5  A    between atoms: C_12  and  C_13 
ROOT
HETATM    1  C   UNL     1      41.870 -13.201   3.316  1.00  0.00     0.261 C 
HETATM    2  N   UNL     1      42.259 -13.013   2.000  1.00  0.00    -0.246 N 
HETATM    3  O   UNL     1      40.874 -12.694   3.836  1.00  0.00    -0.269 OA
HETATM    4  H   UNL     1      43.116 -13.432   1.653  1.00  0.00     0.192 HD
ENDROOT
BRANCH   2   5
HETATM    5  N   UNL     1      41.437 -12.296   1.188  1.00  0.00    -0.184 NA
HETATM    6  C   UNL     1      40.871 -12.900   0.199  1.00  0.00     0.153 C 
BRANCH   6   7
HETATM    7  C   UNL     1      39.954 -12.142  -0.639  1.00  0.00     0.018 A 
HETATM    8  C   UNL     1      38.722 -11.504  -0.256  1.00  0.00     0.004 A 
HETATM    9  C   UNL     1      38.178 -10.920  -1.399  1.00  0.00     0.043 A 
HETATM   10  C   UNL     1      38.011 -11.373   0.957  1.00  0.00     0.014 A 
HETATM   11  C   UNL     1      36.965 -10.218  -1.392  1.00  0.00     0.030 A 
HETATM   12  N   UNL     1      39.042 -11.179  -2.433  1.00  0.00    -0.358 N 
HETATM   13  C   UNL     1      36.283 -10.107  -0.176  1.00  0.00     0.002 A 
HETATM   14  C   UNL     1      36.798 -10.675   0.985  1.00  0.00     0.001 A 
HETATM   15  H   UNL     1      38.892 -10.869  -3.383  1.00  0.00     0.166 HD
HETATM   16  C   UNL     1      40.118 -11.919  -2.001  1.00  0.00     0.018 A 
HETATM   17  C   UNL     1      41.188 -12.335  -2.944  1.00  0.00     0.069 C 
ENDBRANCH   6   7
ENDBRANCH   2   5
BRANCH   1  18
HETATM   18  C   UNL     1      42.724 -14.194   4.093  1.00  0.00     0.280 C 
BRANCH  18  19
HETATM   19  O   UNL     1      42.018 -15.350   4.554  1.00  0.00    -0.340 OA
BRANCH  19  20
HETATM   20  C   UNL     1      42.523 -16.475   3.940  1.00  0.00     0.092 A 
HETATM   21  C   UNL     1      43.586 -17.161   4.542  1.00  0.00     0.045 A 
HETATM   22  C   UNL     1      44.064 -18.350   3.985  1.00  0.00     0.028 A 
HETATM   23 BR   UNL     1      44.384 -16.535   6.146  1.00  0.00    -0.048 Br
HETATM   24  C   UNL     1      43.499 -18.854   2.807  1.00  0.00    -0.060 A 
HETATM   25  C   UNL     1      43.947 -20.172   2.249  1.00  0.00     0.048 C 
HETATM   26  C   UNL     1      42.461 -18.143   2.190  1.00  0.00     0.016 A 
HETATM   27  C   UNL     1      41.984 -16.934   2.726  1.00  0.00    -0.027 A 
HETATM   28  C   UNL     1      40.877 -16.213   2.011  1.00  0.00     0.051 C 
ENDBRANCH  19  20
ENDBRANCH  18  19
ENDBRANCH   1  18
TORSDOF 5
ENDMDL
MODEL 9
REMARK VINA RESULT:      -7.7      3.213      8.922
REMARK  5 active torsions:
REMARK  status: ('A' for Active; 'I' for Inactive)
REMARK    1  A    between atoms: C_6  and  O_7 
REMARK    2  A    between atoms: O_7  and  C_8 
REMARK    3  A    between atoms: C_8  and  C_9 
REMARK       I    between atoms: C_9  and  N_10 
REMARK    4  A    between atoms: N_10  and  N_11 
REMARK    5  A    between atoms: C_12  and  C_13 
ROOT
HETATM    1  C   UNL     1      40.652 -13.546   1.649  1.00  0.00     0.261 C 
HETATM    2  N   UNL     1      41.122 -14.780   1.230  1.00  0.00    -0.246 N 
HETATM    3  O   UNL     1      40.492 -13.214   2.824  1.00  0.00    -0.269 OA
HETATM    4  H   UNL     1      41.190 -14.995   0.240  1.00  0.00     0.192 HD
ENDROOT
BRANCH   2   5
HETATM    5  N   UNL     1      41.530 -15.662   2.181  1.00  0.00    -0.184 NA
HETATM    6  C   UNL     1      42.789 -15.934   2.267  1.00  0.00     0.153 C 
BRANCH   6   7
HETATM    7  C   UNL     1      43.228 -16.841   3.316  1.00  0.00     0.018 A 
HETATM    8  C   UNL     1      43.452 -18.260   3.228  1.00  0.00     0.004 A 
HETATM    9  C   UNL     1      43.842 -18.705   4.490  1.00  0.00     0.043 A 
HETATM   10  C   UNL     1      43.353 -19.215   2.191  1.00  0.00     0.014 A 
HETATM   11  C   UNL     1      44.133 -20.046   4.769  1.00  0.00     0.030 A 
HETATM   12  N   UNL     1      43.866 -17.606   5.312  1.00  0.00    -0.358 N 
HETATM   13  C   UNL     1      44.024 -20.968   3.723  1.00  0.00     0.002 A 
HETATM   14  C   UNL     1      43.640 -20.560   2.449  1.00  0.00     0.001 A 
HETATM   15  H   UNL     1      44.117 -17.641   6.291  1.00  0.00     0.166 HD
HETATM   16  C   UNL     1      43.495 -16.472   4.629  1.00  0.00     0.018 A 
HETATM   17  C   UNL     1      43.434 -15.154   5.312  1.00  0.00     0.069 C 
ENDBRANCH   6   7
ENDBRANCH   2   5
BRANCH   1  18
HETATM   18  C   UNL     1      40.429 -12.540   0.527  1.00  0.00     0.280 C 
BRANCH  18  19
HETATM   19  O   UNL     1      39.414 -12.911  -0.410  1.00  0.00    -0.340 OA
BRANCH  19  20
HETATM   20  C   UNL     1      39.139 -11.846  -1.239  1.00  0.00     0.092 A 
HETATM   21  C   UNL     1      38.192 -10.895  -0.835  1.00  0.00     0.045 A 
HETATM   22  C   UNL     1      37.952  -9.762  -1.618  1.00  0.00     0.028 A 
HETATM   23 BR   UNL     1      37.236 -11.083   0.793  1.00  0.00    -0.048 Br
HETATM   24  C   UNL     1      38.641  -9.579  -2.823  1.00  0.00    -0.060 A 
HETATM   25  C   UNL     1      38.453  -8.326  -3.625  1.00  0.00     0.048 C 
HETATM   26  C   UNL     1      39.560 -10.552  -3.238  1.00  0.00     0.016 A 
HETATM   27  C   UNL     1      39.795 -11.708  -2.474  1.00  0.00    -0.027 A 
HETATM   28  C   UNL     1      40.784 -12.720  -2.979  1.00  0.00     0.051 C 
ENDBRANCH  19  20
ENDBRANCH  18  19
ENDBRANCH   1  18
TORSDOF 5
ENDMDL
MODEL 10
REMARK VINA RESULT:      -7.6      6.295      9.249
REMARK  5 active torsions:
REMARK  status: ('A' for Active; 'I' for Inactive)
REMARK    1  A    between atoms: C_6  and  O_7 
REMARK    2  A    between atoms: O_7  and  C_8 
REMARK    3  A    between atoms: C_8  and  C_9 
REMARK       I    between atoms: C_9  and  N_10 
REMARK    4  A    between atoms: N_10  and  N_11 
REMARK    5  A    between atoms: C_12  and  C_13 
ROOT
HETATM    1  C   UNL     1      42.722 -10.614   6.715  1.00  0.00     0.261 C 
HETATM    2  N   UNL     1      43.110 -11.921   6.963  1.00  0.00    -0.246 N 
HETATM    3  O   UNL     1      42.676 -10.093   5.600  1.00  0.00    -0.269 OA
HETATM    4  H   UNL     1      43.162 -12.269   7.916  1.00  0.00     0.192 HD
ENDROOT
BRANCH   2   5
HETATM    5  N   UNL     1      43.369 -12.723   5.897  1.00  0.00    -0.184 NA
HETATM    6  C   UNL     1      42.450 -13.540   5.505  1.00  0.00     0.153 C 
BRANCH   6   7
HETATM    7  C   UNL     1      42.712 -14.363   4.334  1.00  0.00     0.018 A 
HETATM    8  C   UNL     1      43.083 -15.753   4.289  1.00  0.00     0.004 A 
HETATM    9  C   UNL     1      43.250 -16.101   2.950  1.00  0.00     0.043 A 
HETATM   10  C   UNL     1      43.300 -16.751   5.265  1.00  0.00     0.014 A 
HETATM   11  C   UNL     1      43.625 -17.387   2.537  1.00  0.00     0.030 A 
HETATM   12  N   UNL     1      42.984 -14.978   2.207  1.00  0.00    -0.358 N 
HETATM   13  C   UNL     1      43.834 -18.353   3.527  1.00  0.00     0.002 A 
HETATM   14  C   UNL     1      43.673 -18.042   4.874  1.00  0.00     0.001 A 
HETATM   15  H   UNL     1      43.030 -14.947   1.197  1.00  0.00     0.166 HD
HETATM   16  C   UNL     1      42.663 -13.916   3.019  1.00  0.00     0.018 A 
HETATM   17  C   UNL     1      42.344 -12.584   2.444  1.00  0.00     0.069 C 
ENDBRANCH   6   7
ENDBRANCH   2   5
BRANCH   1  18
HETATM   18  C   UNL     1      42.237  -9.854   7.942  1.00  0.00     0.280 C 
BRANCH  18  19
HETATM   19  O   UNL     1      42.974  -8.664   8.233  1.00  0.00    -0.340 OA
BRANCH  19  20
HETATM   20  C   UNL     1      42.941  -8.419   9.588  1.00  0.00     0.092 A 
HETATM   21  C   UNL     1      43.926  -8.985  10.407  1.00  0.00     0.045 A 
HETATM   22  C   UNL     1      43.964  -8.689  11.773  1.00  0.00     0.028 A 
HETATM   23 BR   UNL     1      45.260 -10.134   9.699  1.00  0.00    -0.048 Br
HETATM   24  C   UNL     1      43.005  -7.839  12.336  1.00  0.00    -0.060 A 
HETATM   25  C   UNL     1      43.090  -7.447  13.782  1.00  0.00     0.048 C 
HETATM   26  C   UNL     1      42.001  -7.305  11.518  1.00  0.00     0.016 A 
HETATM   27  C   UNL     1      41.935  -7.612  10.148  1.00  0.00    -0.027 A 
HETATM   28  C   UNL     1      40.828  -7.017   9.326  1.00  0.00     0.051 C 
ENDBRANCH  19  20
ENDBRANCH  18  19
ENDBRANCH   1  18
TORSDOF 5
ENDMDL
