MODEL 1
REMARK VINA RESULT:      -7.5      0.000      0.000
REMARK  8 active torsions:
REMARK  status: ('A' for Active; 'I' for Inactive)
REMARK    1  A    between atoms: C_4  and  C_5 
REMARK    2  A    between atoms: C_5  and  N_6 
REMARK    3  A    between atoms: N_6  and  C_9 
REMARK    4  A    between atoms: C_9  and  C_10 
REMARK    5  A    between atoms: C_10  and  C_11 
REMARK    6  A    between atoms: C_11  and  N_12 
REMARK       I    between atoms: N_12  and  C_13 
REMARK    7  A    between atoms: C_13  and  C_14 
REMARK    8  A    between atoms: C_16  and  O_17 
ROOT
HETATM    1  C   UNL     1      42.431 -14.529   6.708  1.00  0.00     0.047 C 
ENDROOT
BRANCH   1   2
HETATM    2  C   UNL     1      43.618 -13.578   6.788  1.00  0.00     0.235 C 
BRANCH   2   3
HETATM    3  N   UNL     1      43.150 -12.268   7.333  1.00  0.00    -0.067 N 
HETATM    4  H   UNL     1      42.870 -12.354   8.318  1.00  0.00     0.277 HD
HETATM    5  H   UNL     1      42.289 -12.015   6.825  1.00  0.00     0.277 HD
BRANCH   3   6
HETATM    6  C   UNL     1      44.093 -11.107   7.192  1.00  0.00     0.223 C 
HETATM    7  C   UNL     1      45.414 -11.574   6.582  1.00  0.00     0.046 C 
BRANCH   6   8
HETATM    8  C   UNL     1      44.315 -10.430   8.509  1.00  0.00     0.032 A 
HETATM    9  S   UNL     1      43.029  -9.739   9.420  1.00  0.00    -0.076 SA
HETATM   10  C   UNL     1      44.146  -9.277  10.642  1.00  0.00     0.071 A 
HETATM   11  C   UNL     1      43.676  -8.572  11.867  1.00  0.00     0.078 C 
HETATM   12  N   UNL     1      45.398  -9.599  10.401  1.00  0.00    -0.257 NA
HETATM   13  C   UNL     1      45.500 -10.261   9.199  1.00  0.00     0.134 A 
ENDBRANCH   6   8
ENDBRANCH   3   6
ENDBRANCH   2   3
ENDBRANCH   1   2
BRANCH   1  14
HETATM   14  C   UNL     1      42.742 -15.910   7.290  1.00  0.00     0.124 C 
BRANCH  14  15
HETATM   15  N   UNL     1      42.829 -17.004   6.338  1.00  0.00    -0.357 N 
HETATM   16  C   UNL     1      43.953 -17.243   5.568  1.00  0.00     0.251 C 
HETATM   17  O   UNL     1      45.050 -16.749   5.799  1.00  0.00    -0.268 OA
HETATM   18  H   UNL     1      41.947 -17.291   5.920  1.00  0.00     0.162 HD
BRANCH  16  19
HETATM   19  C   UNL     1      43.768 -18.168   4.424  1.00  0.00     0.034 A 
HETATM   20  C   UNL     1      44.083 -19.519   4.597  1.00  0.00     0.053 A 
HETATM   21  C   UNL     1      43.914 -20.393   3.529  1.00  0.00     0.066 A 
HETATM   22  C   UNL     1      43.421 -19.942   2.308  1.00  0.00     0.036 A 
HETATM   23  C   UNL     1      43.092 -18.597   2.142  1.00  0.00     0.004 A 
HETATM   24  C   UNL     1      43.267 -17.704   3.200  1.00  0.00     0.017 A 
BRANCH  21  25
HETATM   25  O   UNL     1      44.224 -21.716   3.631  1.00  0.00    -0.361 OA
HETATM   26  H   UNL     1      45.014 -21.909   3.100  1.00  0.00     0.217 HD
ENDBRANCH  21  25
ENDBRANCH  16  19
ENDBRANCH  14  15
ENDBRANCH   1  14
TORSDOF 8
ENDMDL
MODEL 2
REMARK VINA RESULT:      -7.5      4.943      7.179
REMARK  8 active torsions:
REMARK  status: ('A' for Active; 'I' for Inactive)
REMARK    1  A    between atoms: C_4  and  C_5 
REMARK    2  A    between atoms: C_5  and  N_6 
REMARK    3  A    between atoms: N_6  and  C_9 
REMARK    4  A    between atoms: C_9  and  C_10 
REMARK    5  A    between atoms: C_10  and  C_11 
REMARK    6  A    between atoms: C_11  and  N_12 
REMARK       I    between atoms: N_12  and  C_13 
REMARK    7  A    between atoms: C_13  and  C_14 
REMARK    8  A    between atoms: C_16  and  O_17 
ROOT
HETATM    1  C   UNL     1      41.097 -14.594   5.342  1.00  0.00     0.047 C 
ENDROOT
BRANCH   1   2
HETATM    2  C   UNL     1      40.457 -13.678   4.308  1.00  0.00     0.235 C 
BRANCH   2   3
HETATM    3  N   UNL     1      41.024 -13.998   2.963  1.00  0.00    -0.067 N 
HETATM    4  H   UNL     1      41.738 -14.734   3.027  1.00  0.00     0.277 HD
HETATM    5  H   UNL     1      41.525 -13.158   2.635  1.00  0.00     0.277 HD
BRANCH   3   6
HETATM    6  C   UNL     1      40.040 -14.363   1.888  1.00  0.00     0.223 C 
HETATM    7  C   UNL     1      40.072 -15.870   1.637  1.00  0.00     0.046 C 
BRANCH   6   8
HETATM    8  C   UNL     1      40.311 -13.600   0.629  1.00  0.00     0.032 A 
HETATM    9  S   UNL     1      39.678 -14.083  -0.897  1.00  0.00    -0.076 SA
HETATM   10  C   UNL     1      40.431 -12.726  -1.636  1.00  0.00     0.071 A 
HETATM   11  C   UNL     1      40.277 -12.480  -3.097  1.00  0.00     0.078 C 
HETATM   12  N   UNL     1      41.118 -11.959  -0.820  1.00  0.00    -0.257 NA
HETATM   13  C   UNL     1      41.047 -12.442   0.467  1.00  0.00     0.134 A 
ENDBRANCH   6   8
ENDBRANCH   3   6
ENDBRANCH   2   3
ENDBRANCH   1   2
BRANCH   1  14
HETATM   14  C   UNL     1      42.610 -14.726   5.157  1.00  0.00     0.124 C 
BRANCH  14  15
HETATM   15  N   UNL     1      43.120 -16.071   4.957  1.00  0.00    -0.357 N 
HETATM   16  C   UNL     1      43.352 -16.609   3.704  1.00  0.00     0.251 C 
HETATM   17  O   UNL     1      43.417 -15.938   2.680  1.00  0.00    -0.268 OA
HETATM   18  H   UNL     1      42.873 -16.744   5.679  1.00  0.00     0.162 HD
BRANCH  16  19
HETATM   19  C   UNL     1      43.543 -18.078   3.656  1.00  0.00     0.034 A 
HETATM   20  C   UNL     1      43.291 -18.748   2.454  1.00  0.00     0.053 A 
HETATM   21  C   UNL     1      43.467 -20.127   2.402  1.00  0.00     0.066 A 
HETATM   22  C   UNL     1      43.907 -20.834   3.517  1.00  0.00     0.036 A 
HETATM   23  C   UNL     1      44.174 -20.162   4.709  1.00  0.00     0.004 A 
HETATM   24  C   UNL     1      43.990 -18.781   4.783  1.00  0.00     0.017 A 
BRANCH  21  25
HETATM   25  O   UNL     1      43.217 -20.836   1.266  1.00  0.00    -0.361 OA
HETATM   26  H   UNL     1      42.304 -21.167   1.281  1.00  0.00     0.217 HD
ENDBRANCH  21  25
ENDBRANCH  16  19
ENDBRANCH  14  15
ENDBRANCH   1  14
TORSDOF 8
ENDMDL
MODEL 3
REMARK VINA RESULT:      -7.3      1.893      2.555
REMARK  8 active torsions:
REMARK  status: ('A' for Active; 'I' for Inactive)
REMARK    1  A    between atoms: C_4  and  C_5 
REMARK    2  A    between atoms: C_5  and  N_6 
REMARK    3  A    between atoms: N_6  and  C_9 
REMARK    4  A    between atoms: C_9  and  C_10 
REMARK    5  A    between atoms: C_10  and  C_11 
REMARK    6  A    between atoms: C_11  and  N_12 
REMARK       I    between atoms: N_12  and  C_13 
REMARK    7  A    between atoms: C_13  and  C_14 
REMARK    8  A    between atoms: C_16  and  O_17 
ROOT
HETATM    1  C   UNL     1      42.382 -14.994   6.856  1.00  0.00     0.047 C 
ENDROOT
BRANCH   1   2
HETATM    2  C   UNL     1      41.783 -13.769   6.180  1.00  0.00     0.235 C 
BRANCH   2   3
HETATM    3  N   UNL     1      42.654 -13.381   5.028  1.00  0.00    -0.067 N 
HETATM    4  H   UNL     1      42.317 -13.798   4.151  1.00  0.00     0.277 HD
HETATM    5  H   UNL     1      43.582 -13.799   5.192  1.00  0.00     0.277 HD
BRANCH   3   6
HETATM    6  C   UNL     1      42.872 -11.910   4.817  1.00  0.00     0.223 C 
HETATM    7  C   UNL     1      43.894 -11.686   3.703  1.00  0.00     0.046 C 
BRANCH   6   8
HETATM    8  C   UNL     1      43.301 -11.241   6.086  1.00  0.00     0.032 A 
HETATM    9  S   UNL     1      44.831 -11.543   6.817  1.00  0.00    -0.076 SA
HETATM   10  C   UNL     1      44.451 -10.427   8.067  1.00  0.00     0.071 A 
HETATM   11  C   UNL     1      45.430 -10.149   9.154  1.00  0.00     0.078 C 
HETATM   12  N   UNL     1      43.266  -9.865   7.970  1.00  0.00    -0.257 NA
HETATM   13  C   UNL     1      42.613 -10.314   6.845  1.00  0.00     0.134 A 
ENDBRANCH   6   8
ENDBRANCH   3   6
ENDBRANCH   2   3
ENDBRANCH   1   2
BRANCH   1  14
HETATM   14  C   UNL     1      43.829 -15.255   6.432  1.00  0.00     0.124 C 
BRANCH  14  15
HETATM   15  N   UNL     1      44.110 -16.567   5.876  1.00  0.00    -0.357 N 
HETATM   16  C   UNL     1      43.772 -16.925   4.584  1.00  0.00     0.251 C 
HETATM   17  O   UNL     1      43.466 -16.117   3.715  1.00  0.00    -0.268 OA
HETATM   18  H   UNL     1      44.128 -17.331   6.547  1.00  0.00     0.162 HD
BRANCH  16  19
HETATM   19  C   UNL     1      43.817 -18.375   4.281  1.00  0.00     0.034 A 
HETATM   20  C   UNL     1      43.654 -18.789   2.955  1.00  0.00     0.053 A 
HETATM   21  C   UNL     1      43.693 -20.148   2.664  1.00  0.00     0.066 A 
HETATM   22  C   UNL     1      43.910 -21.089   3.666  1.00  0.00     0.036 A 
HETATM   23  C   UNL     1      44.089 -20.674   4.986  1.00  0.00     0.004 A 
HETATM   24  C   UNL     1      44.040 -19.314   5.298  1.00  0.00     0.017 A 
BRANCH  21  25
HETATM   25  O   UNL     1      43.520 -20.612   1.394  1.00  0.00    -0.361 OA
HETATM   26  H   UNL     1      44.129 -20.155   0.793  1.00  0.00     0.217 HD
ENDBRANCH  21  25
ENDBRANCH  16  19
ENDBRANCH  14  15
ENDBRANCH   1  14
TORSDOF 8
ENDMDL
MODEL 4
REMARK VINA RESULT:      -7.3      1.428      1.609
REMARK  8 active torsions:
REMARK  status: ('A' for Active; 'I' for Inactive)
REMARK    1  A    between atoms: C_4  and  C_5 
REMARK    2  A    between atoms: C_5  and  N_6 
REMARK    3  A    between atoms: N_6  and  C_9 
REMARK    4  A    between atoms: C_9  and  C_10 
REMARK    5  A    between atoms: C_10  and  C_11 
REMARK    6  A    between atoms: C_11  and  N_12 
REMARK       I    between atoms: N_12  and  C_13 
REMARK    7  A    between atoms: C_13  and  C_14 
REMARK    8  A    between atoms: C_16  and  O_17 
ROOT
HETATM    1  C   UNL     1      43.732 -14.295   6.589  1.00  0.00     0.047 C 
ENDROOT
BRANCH   1   2
HETATM    2  C   UNL     1      43.534 -12.802   6.368  1.00  0.00     0.235 C 
BRANCH   2   3
HETATM    3  N   UNL     1      43.624 -12.104   7.686  1.00  0.00    -0.067 N 
HETATM    4  H   UNL     1      44.119 -12.680   8.379  1.00  0.00     0.277 HD
HETATM    5  H   UNL     1      42.663 -12.006   8.048  1.00  0.00     0.277 HD
BRANCH   3   6
HETATM    6  C   UNL     1      44.226 -10.727   7.677  1.00  0.00     0.223 C 
HETATM    7  C   UNL     1      45.751 -10.820   7.685  1.00  0.00     0.046 C 
BRANCH   6   8
HETATM    8  C   UNL     1      43.728  -9.914   8.832  1.00  0.00     0.032 A 
HETATM    9  S   UNL     1      44.483  -9.950  10.379  1.00  0.00    -0.076 SA
HETATM   10  C   UNL     1      43.339  -8.807  10.961  1.00  0.00     0.071 A 
HETATM   11  C   UNL     1      43.408  -8.318  12.366  1.00  0.00     0.078 C 
HETATM   12  N   UNL     1      42.443  -8.419  10.081  1.00  0.00    -0.257 NA
HETATM   13  C   UNL     1      42.662  -9.035   8.869  1.00  0.00     0.134 A 
ENDBRANCH   6   8
ENDBRANCH   3   6
ENDBRANCH   2   3
ENDBRANCH   1   2
BRANCH   1  14
HETATM   14  C   UNL     1      42.705 -15.144   5.836  1.00  0.00     0.124 C 
BRANCH  14  15
HETATM   15  N   UNL     1      43.169 -16.432   5.349  1.00  0.00    -0.357 N 
HETATM   16  C   UNL     1      43.372 -16.699   4.007  1.00  0.00     0.251 C 
HETATM   17  O   UNL     1      43.449 -15.830   3.147  1.00  0.00    -0.268 OA
HETATM   18  H   UNL     1      42.907 -17.234   5.916  1.00  0.00     0.162 HD
BRANCH  16  19
HETATM   19  C   UNL     1      43.515 -18.130   3.647  1.00  0.00     0.034 A 
HETATM   20  C   UNL     1      43.980 -19.023   4.617  1.00  0.00     0.053 A 
HETATM   21  C   UNL     1      44.118 -20.366   4.286  1.00  0.00     0.066 A 
HETATM   22  C   UNL     1      43.782 -20.828   3.017  1.00  0.00     0.036 A 
HETATM   23  C   UNL     1      43.302 -19.940   2.055  1.00  0.00     0.004 A 
HETATM   24  C   UNL     1      43.169 -18.585   2.366  1.00  0.00     0.017 A 
BRANCH  21  25
HETATM   25  O   UNL     1      44.586 -21.278   5.183  1.00  0.00    -0.361 OA
HETATM   26  H   UNL     1      44.537 -22.169   4.800  1.00  0.00     0.217 HD
ENDBRANCH  21  25
ENDBRANCH  16  19
ENDBRANCH  14  15
ENDBRANCH   1  14
TORSDOF 8
ENDMDL
MODEL 5
REMARK VINA RESULT:      -7.2      5.423      7.816
REMARK  8 active torsions:
REMARK  status: ('A' for Active; 'I' for Inactive)
REMARK    1  A    between atoms: C_4  and  C_5 
REMARK    2  A    between atoms: C_5  and  N_6 
REMARK    3  A    between atoms: N_6  and  C_9 
REMARK    4  A    between atoms: C_9  and  C_10 
REMARK    5  A    between atoms: C_10  and  C_11 
REMARK    6  A    between atoms: C_11  and  N_12 
REMARK       I    between atoms: N_12  and  C_13 
REMARK    7  A    between atoms: C_13  and  C_14 
REMARK    8  A    between atoms: C_16  and  O_17 
ROOT
HETATM    1  C   UNL     1      43.241 -12.941   3.333  1.00  0.00     0.047 C 
ENDROOT
BRANCH   1   2
HETATM    2  C   UNL     1      42.383 -12.097   2.401  1.00  0.00     0.235 C 
BRANCH   2   3
HETATM    3  N   UNL     1      41.347 -12.973   1.774  1.00  0.00    -0.067 N 
HETATM    4  H   UNL     1      41.206 -13.832   2.321  1.00  0.00     0.277 HD
HETATM    5  H   UNL     1      41.719 -13.284   0.864  1.00  0.00     0.277 HD
BRANCH   3   6
HETATM    6  C   UNL     1      40.010 -12.343   1.501  1.00  0.00     0.223 C 
HETATM    7  C   UNL     1      39.056 -12.613   2.664  1.00  0.00     0.046 C 
BRANCH   6   8
HETATM    8  C   UNL     1      39.438 -12.833   0.207  1.00  0.00     0.032 A 
HETATM    9  S   UNL     1      39.933 -14.312  -0.520  1.00  0.00    -0.076 SA
HETATM   10  C   UNL     1      38.826 -14.048  -1.806  1.00  0.00     0.071 A 
HETATM   11  C   UNL     1      38.696 -15.043  -2.907  1.00  0.00     0.078 C 
HETATM   12  N   UNL     1      38.131 -12.935  -1.723  1.00  0.00    -0.257 NA
HETATM   13  C   UNL     1      38.466 -12.245  -0.579  1.00  0.00     0.134 A 
ENDBRANCH   6   8
ENDBRANCH   3   6
ENDBRANCH   2   3
ENDBRANCH   1   2
BRANCH   1  14
HETATM   14  C   UNL     1      42.451 -14.065   4.007  1.00  0.00     0.124 C 
BRANCH  14  15
HETATM   15  N   UNL     1      43.047 -15.389   3.961  1.00  0.00    -0.357 N 
HETATM   16  C   UNL     1      42.877 -16.254   2.895  1.00  0.00     0.251 C 
HETATM   17  O   UNL     1      42.455 -15.905   1.799  1.00  0.00    -0.268 OA
HETATM   18  H   UNL     1      43.192 -15.835   4.863  1.00  0.00     0.162 HD
BRANCH  16  19
HETATM   19  C   UNL     1      43.258 -17.665   3.141  1.00  0.00     0.034 A 
HETATM   20  C   UNL     1      43.085 -18.596   2.112  1.00  0.00     0.053 A 
HETATM   21  C   UNL     1      43.439 -19.922   2.335  1.00  0.00     0.066 A 
HETATM   22  C   UNL     1      43.976 -20.323   3.554  1.00  0.00     0.036 A 
HETATM   23  C   UNL     1      44.164 -19.391   4.575  1.00  0.00     0.004 A 
HETATM   24  C   UNL     1      43.803 -18.058   4.372  1.00  0.00     0.017 A 
BRANCH  21  25
HETATM   25  O   UNL     1      43.273 -20.877   1.377  1.00  0.00    -0.361 OA
HETATM   26  H   UNL     1      42.336 -21.126   1.322  1.00  0.00     0.217 HD
ENDBRANCH  21  25
ENDBRANCH  16  19
ENDBRANCH  14  15
ENDBRANCH   1  14
TORSDOF 8
ENDMDL
MODEL 6
REMARK VINA RESULT:      -7.1      4.255      6.500
REMARK  8 active torsions:
REMARK  status: ('A' for Active; 'I' for Inactive)
REMARK    1  A    between atoms: C_4  and  C_5 
REMARK    2  A    between atoms: C_5  and  N_6 
REMARK    3  A    between atoms: N_6  and  C_9 
REMARK    4  A    between atoms: C_9  and  C_10 
REMARK    5  A    between atoms: C_10  and  C_11 
REMARK    6  A    between atoms: C_11  and  N_12 
REMARK       I    between atoms: N_12  and  C_13 
REMARK    7  A    between atoms: C_13  and  C_14 
REMARK    8  A    between atoms: C_16  and  O_17 
ROOT
HETATM    1  C   UNL     1      43.142 -13.999   5.748  1.00  0.00     0.047 C 
ENDROOT
BRANCH   1   2
HETATM    2  C   UNL     1      43.030 -12.844   4.764  1.00  0.00     0.235 C 
BRANCH   2   3
HETATM    3  N   UNL     1      42.069 -13.222   3.684  1.00  0.00    -0.067 N 
HETATM    4  H   UNL     1      41.099 -13.033   3.966  1.00  0.00     0.277 HD
HETATM    5  H   UNL     1      42.126 -14.245   3.567  1.00  0.00     0.277 HD
BRANCH   3   6
HETATM    6  C   UNL     1      42.310 -12.619   2.329  1.00  0.00     0.223 C 
HETATM    7  C   UNL     1      42.206 -11.096   2.407  1.00  0.00     0.046 C 
BRANCH   6   8
HETATM    8  C   UNL     1      41.358 -13.174   1.315  1.00  0.00     0.032 A 
HETATM    9  S   UNL     1      40.416 -12.168   0.284  1.00  0.00    -0.076 SA
HETATM   10  C   UNL     1      39.737 -13.563  -0.453  1.00  0.00     0.071 A 
HETATM   11  C   UNL     1      38.746 -13.427  -1.557  1.00  0.00     0.078 C 
HETATM   12  N   UNL     1      40.163 -14.710   0.028  1.00  0.00    -0.257 NA
HETATM   13  C   UNL     1      41.090 -14.498   1.023  1.00  0.00     0.134 A 
ENDBRANCH   6   8
ENDBRANCH   3   6
ENDBRANCH   2   3
ENDBRANCH   1   2
BRANCH   1  14
HETATM   14  C   UNL     1      42.146 -15.124   5.454  1.00  0.00     0.124 C 
BRANCH  14  15
HETATM   15  N   UNL     1      42.717 -16.419   5.128  1.00  0.00    -0.357 N 
HETATM   16  C   UNL     1      43.223 -16.725   3.878  1.00  0.00     0.251 C 
HETATM   17  O   UNL     1      43.491 -15.882   3.030  1.00  0.00    -0.268 OA
HETATM   18  H   UNL     1      42.337 -17.207   5.647  1.00  0.00     0.162 HD
BRANCH  16  19
HETATM   19  C   UNL     1      43.454 -18.164   3.607  1.00  0.00     0.034 A 
HETATM   20  C   UNL     1      43.953 -18.969   4.637  1.00  0.00     0.053 A 
HETATM   21  C   UNL     1      44.173 -20.319   4.390  1.00  0.00     0.066 A 
HETATM   22  C   UNL     1      43.885 -20.876   3.147  1.00  0.00     0.036 A 
HETATM   23  C   UNL     1      43.372 -20.076   2.127  1.00  0.00     0.004 A 
HETATM   24  C   UNL     1      43.157 -18.715   2.353  1.00  0.00     0.017 A 
BRANCH  21  25
HETATM   25  O   UNL     1      44.678 -21.147   5.347  1.00  0.00    -0.361 OA
HETATM   26  H   UNL     1      44.000 -21.789   5.615  1.00  0.00     0.217 HD
ENDBRANCH  21  25
ENDBRANCH  16  19
ENDBRANCH  14  15
ENDBRANCH   1  14
TORSDOF 8
ENDMDL
MODEL 7
REMARK VINA RESULT:      -7.1      3.597      4.740
REMARK  8 active torsions:
REMARK  status: ('A' for Active; 'I' for Inactive)
REMARK    1  A    between atoms: C_4  and  C_5 
REMARK    2  A    between atoms: C_5  and  N_6 
REMARK    3  A    between atoms: N_6  and  C_9 
REMARK    4  A    between atoms: C_9  and  C_10 
REMARK    5  A    between atoms: C_10  and  C_11 
REMARK    6  A    between atoms: C_11  and  N_12 
REMARK       I    between atoms: N_12  and  C_13 
REMARK    7  A    between atoms: C_13  and  C_14 
REMARK    8  A    between atoms: C_16  and  O_17 
ROOT
HETATM    1  C   UNL     1      40.603 -14.501   1.895  1.00  0.00     0.047 C 
ENDROOT
BRANCH   1   2
HETATM    2  C   UNL     1      40.059 -13.168   2.391  1.00  0.00     0.235 C 
BRANCH   2   3
HETATM    3  N   UNL     1      39.194 -13.415   3.584  1.00  0.00    -0.067 N 
HETATM    4  H   UNL     1      39.158 -14.415   3.817  1.00  0.00     0.277 HD
HETATM    5  H   UNL     1      38.230 -13.159   3.321  1.00  0.00     0.277 HD
BRANCH   3   6
HETATM    6  C   UNL     1      39.525 -12.636   4.826  1.00  0.00     0.223 C 
HETATM    7  C   UNL     1      39.868 -11.192   4.463  1.00  0.00     0.046 C 
BRANCH   6   8
HETATM    8  C   UNL     1      40.642 -13.282   5.585  1.00  0.00     0.032 A 
HETATM    9  S   UNL     1      40.508 -14.861   6.259  1.00  0.00    -0.076 SA
HETATM   10  C   UNL     1      42.119 -14.744   6.845  1.00  0.00     0.071 A 
HETATM   11  C   UNL     1      42.735 -15.876   7.593  1.00  0.00     0.078 C 
HETATM   12  N   UNL     1      42.729 -13.611   6.575  1.00  0.00    -0.257 NA
HETATM   13  C   UNL     1      41.902 -12.781   5.853  1.00  0.00     0.134 A 
ENDBRANCH   6   8
ENDBRANCH   3   6
ENDBRANCH   2   3
ENDBRANCH   1   2
BRANCH   1  14
HETATM   14  C   UNL     1      41.953 -14.858   2.522  1.00  0.00     0.124 C 
BRANCH  14  15
HETATM   15  N   UNL     1      42.156 -16.256   2.861  1.00  0.00    -0.357 N 
HETATM   16  C   UNL     1      43.212 -16.695   3.639  1.00  0.00     0.251 C 
HETATM   17  O   UNL     1      43.900 -15.953   4.329  1.00  0.00    -0.268 OA
HETATM   18  H   UNL     1      41.812 -16.925   2.178  1.00  0.00     0.162 HD
BRANCH  16  19
HETATM   19  C   UNL     1      43.470 -18.155   3.613  1.00  0.00     0.034 A 
HETATM   20  C   UNL     1      43.276 -18.850   2.416  1.00  0.00     0.053 A 
HETATM   21  C   UNL     1      43.514 -20.219   2.384  1.00  0.00     0.066 A 
HETATM   22  C   UNL     1      43.959 -20.894   3.518  1.00  0.00     0.036 A 
HETATM   23  C   UNL     1      44.169 -20.196   4.707  1.00  0.00     0.004 A 
HETATM   24  C   UNL     1      43.922 -18.824   4.760  1.00  0.00     0.017 A 
BRANCH  21  25
HETATM   25  O   UNL     1      43.322 -20.953   1.252  1.00  0.00    -0.361 OA
HETATM   26  H   UNL     1      43.327 -20.367   0.478  1.00  0.00     0.217 HD
ENDBRANCH  21  25
ENDBRANCH  16  19
ENDBRANCH  14  15
ENDBRANCH   1  14
TORSDOF 8
ENDMDL
MODEL 8
REMARK VINA RESULT:      -7.0      2.803      4.146
REMARK  8 active torsions:
REMARK  status: ('A' for Active; 'I' for Inactive)
REMARK    1  A    between atoms: C_4  and  C_5 
REMARK    2  A    between atoms: C_5  and  N_6 
REMARK    3  A    between atoms: N_6  and  C_9 
REMARK    4  A    between atoms: C_9  and  C_10 
REMARK    5  A    between atoms: C_10  and  C_11 
REMARK    6  A    between atoms: C_11  and  N_12 
REMARK       I    between atoms: N_12  and  C_13 
REMARK    7  A    between atoms: C_13  and  C_14 
REMARK    8  A    between atoms: C_16  and  O_17 
ROOT
HETATM    1  C   UNL     1      39.693 -14.296   2.465  1.00  0.00     0.047 C 
ENDROOT
BRANCH   1   2
HETATM    2  C   UNL     1      40.154 -12.846   2.511  1.00  0.00     0.235 C 
BRANCH   2   3
HETATM    3  N   UNL     1      41.373 -12.755   3.371  1.00  0.00    -0.067 N 
HETATM    4  H   UNL     1      41.843 -11.848   3.254  1.00  0.00     0.277 HD
HETATM    5  H   UNL     1      42.044 -13.458   3.026  1.00  0.00     0.277 HD
BRANCH   3   6
HETATM    6  C   UNL     1      41.183 -13.021   4.837  1.00  0.00     0.223 C 
HETATM    7  C   UNL     1      40.059 -12.145   5.388  1.00  0.00     0.046 C 
BRANCH   6   8
HETATM    8  C   UNL     1      42.457 -12.804   5.594  1.00  0.00     0.032 A 
HETATM    9  S   UNL     1      43.441 -11.411   5.364  1.00  0.00    -0.076 SA
HETATM   10  C   UNL     1      44.537 -11.992   6.553  1.00  0.00     0.071 A 
HETATM   11  C   UNL     1      45.746 -11.202   6.917  1.00  0.00     0.078 C 
HETATM   12  N   UNL     1      44.213 -13.148   7.091  1.00  0.00    -0.257 NA
HETATM   13  C   UNL     1      43.031 -13.610   6.559  1.00  0.00     0.134 A 
ENDBRANCH   6   8
ENDBRANCH   3   6
ENDBRANCH   2   3
ENDBRANCH   1   2
BRANCH   1  14
HETATM   14  C   UNL     1      40.632 -15.188   1.649  1.00  0.00     0.124 C 
BRANCH  14  15
HETATM   15  N   UNL     1      41.224 -16.313   2.352  1.00  0.00    -0.357 N 
HETATM   16  C   UNL     1      42.516 -16.294   2.847  1.00  0.00     0.251 C 
HETATM   17  O   UNL     1      43.173 -15.270   2.988  1.00  0.00    -0.268 OA
HETATM   18  H   UNL     1      40.876 -17.229   2.082  1.00  0.00     0.162 HD
BRANCH  16  19
HETATM   19  C   UNL     1      43.080 -17.610   3.231  1.00  0.00     0.034 A 
HETATM   20  C   UNL     1      43.117 -18.629   2.274  1.00  0.00     0.053 A 
HETATM   21  C   UNL     1      43.644 -19.867   2.627  1.00  0.00     0.066 A 
HETATM   22  C   UNL     1      44.148 -20.091   3.905  1.00  0.00     0.036 A 
HETATM   23  C   UNL     1      44.126 -19.068   4.853  1.00  0.00     0.004 A 
HETATM   24  C   UNL     1      43.590 -17.824   4.520  1.00  0.00     0.017 A 
BRANCH  21  25
HETATM   25  O   UNL     1      43.686 -20.903   1.744  1.00  0.00    -0.361 OA
HETATM   26  H   UNL     1      42.871 -20.918   1.217  1.00  0.00     0.217 HD
ENDBRANCH  21  25
ENDBRANCH  16  19
ENDBRANCH  14  15
ENDBRANCH   1  14
TORSDOF 8
ENDMDL
MODEL 9
REMARK VINA RESULT:      -6.9      6.679      8.750
REMARK  8 active torsions:
REMARK  status: ('A' for Active; 'I' for Inactive)
REMARK    1  A    between atoms: C_4  and  C_5 
REMARK    2  A    between atoms: C_5  and  N_6 
REMARK    3  A    between atoms: N_6  and  C_9 
REMARK    4  A    between atoms: C_9  and  C_10 
REMARK    5  A    between atoms: C_10  and  C_11 
REMARK    6  A    between atoms: C_11  and  N_12 
REMARK       I    between atoms: N_12  and  C_13 
REMARK    7  A    between atoms: C_13  and  C_14 
REMARK    8  A    between atoms: C_16  and  O_17 
ROOT
HETATM    1  C   UNL     1      40.075 -14.217   1.653  1.00  0.00     0.047 C 
ENDROOT
BRANCH   1   2
HETATM    2  C   UNL     1      40.968 -13.353   0.774  1.00  0.00     0.235 C 
BRANCH   2   3
HETATM    3  N   UNL     1      40.817 -13.793  -0.646  1.00  0.00    -0.067 N 
HETATM    4  H   UNL     1      41.034 -14.792  -0.751  1.00  0.00     0.277 HD
HETATM    5  H   UNL     1      41.533 -13.297  -1.198  1.00  0.00     0.277 HD
BRANCH   3   6
HETATM    6  C   UNL     1      39.494 -13.509  -1.300  1.00  0.00     0.223 C 
HETATM    7  C   UNL     1      39.094 -14.675  -2.203  1.00  0.00     0.046 C 
BRANCH   6   8
HETATM    8  C   UNL     1      39.537 -12.223  -2.066  1.00  0.00     0.032 A 
HETATM    9  S   UNL     1      40.962 -11.664  -2.853  1.00  0.00    -0.076 SA
HETATM   10  C   UNL     1      40.109 -10.281  -3.411  1.00  0.00     0.071 A 
HETATM   11  C   UNL     1      40.791  -9.263  -4.257  1.00  0.00     0.078 C 
HETATM   12  N   UNL     1      38.849 -10.217  -3.039  1.00  0.00    -0.257 NA
HETATM   13  C   UNL     1      38.515 -11.319  -2.285  1.00  0.00     0.134 A 
ENDBRANCH   6   8
ENDBRANCH   3   6
ENDBRANCH   2   3
ENDBRANCH   1   2
BRANCH   1  14
HETATM   14  C   UNL     1      40.237 -15.713   1.370  1.00  0.00     0.124 C 
BRANCH  14  15
HETATM   15  N   UNL     1      41.075 -16.456   2.295  1.00  0.00    -0.357 N 
HETATM   16  C   UNL     1      42.417 -16.698   2.064  1.00  0.00     0.251 C 
HETATM   17  O   UNL     1      43.081 -16.096   1.228  1.00  0.00    -0.268 OA
HETATM   18  H   UNL     1      40.596 -17.160   2.849  1.00  0.00     0.162 HD
BRANCH  16  19
HETATM   19  C   UNL     1      43.042 -17.738   2.916  1.00  0.00     0.034 A 
HETATM   20  C   UNL     1      43.245 -19.013   2.378  1.00  0.00     0.053 A 
HETATM   21  C   UNL     1      43.829 -19.994   3.171  1.00  0.00     0.066 A 
HETATM   22  C   UNL     1      44.228 -19.716   4.475  1.00  0.00     0.036 A 
HETATM   23  C   UNL     1      44.041 -18.440   5.005  1.00  0.00     0.004 A 
HETATM   24  C   UNL     1      43.444 -17.446   4.227  1.00  0.00     0.017 A 
BRANCH  21  25
HETATM   25  O   UNL     1      44.032 -21.260   2.708  1.00  0.00    -0.361 OA
HETATM   26  H   UNL     1      43.965 -21.891   3.443  1.00  0.00     0.217 HD
ENDBRANCH  21  25
ENDBRANCH  16  19
ENDBRANCH  14  15
ENDBRANCH   1  14
TORSDOF 8
ENDMDL
MODEL 10
REMARK VINA RESULT:      -6.6      3.457      4.909
REMARK  8 active torsions:
REMARK  status: ('A' for Active; 'I' for Inactive)
REMARK    1  A    between atoms: C_4  and  C_5 
REMARK    2  A    between atoms: C_5  and  N_6 
REMARK    3  A    between atoms: N_6  and  C_9 
REMARK    4  A    between atoms: C_9  and  C_10 
REMARK    5  A    between atoms: C_10  and  C_11 
REMARK    6  A    between atoms: C_11  and  N_12 
REMARK       I    between atoms: N_12  and  C_13 
REMARK    7  A    between atoms: C_13  and  C_14 
REMARK    8  A    between atoms: C_16  and  O_17 
ROOT
HETATM    1  C   UNL     1      40.961 -13.021   1.705  1.00  0.00     0.047 C 
ENDROOT
BRANCH   1   2
HETATM    2  C   UNL     1      39.580 -12.671   2.240  1.00  0.00     0.235 C 
BRANCH   2   3
HETATM    3  N   UNL     1      39.416 -13.289   3.591  1.00  0.00    -0.067 N 
HETATM    4  H   UNL     1      40.019 -14.114   3.698  1.00  0.00     0.277 HD
HETATM    5  H   UNL     1      38.450 -13.645   3.649  1.00  0.00     0.277 HD
BRANCH   3   6
HETATM    6  C   UNL     1      39.614 -12.382   4.773  1.00  0.00     0.223 C 
HETATM    7  C   UNL     1      39.341 -10.933   4.374  1.00  0.00     0.046 C 
BRANCH   6   8
HETATM    8  C   UNL     1      40.989 -12.536   5.345  1.00  0.00     0.032 A 
HETATM    9  S   UNL     1      41.827 -11.233   6.096  1.00  0.00    -0.076 SA
HETATM   10  C   UNL     1      43.156 -12.275   6.415  1.00  0.00     0.071 A 
HETATM   11  C   UNL     1      44.360 -11.767   7.129  1.00  0.00     0.078 C 
HETATM   12  N   UNL     1      43.008 -13.511   5.990  1.00  0.00    -0.257 NA
HETATM   13  C   UNL     1      41.779 -13.669   5.392  1.00  0.00     0.134 A 
ENDBRANCH   6   8
ENDBRANCH   3   6
ENDBRANCH   2   3
ENDBRANCH   1   2
BRANCH   1  14
HETATM   14  C   UNL     1      40.956 -14.281   0.837  1.00  0.00     0.124 C 
BRANCH  14  15
HETATM   15  N   UNL     1      41.729 -15.407   1.331  1.00  0.00    -0.357 N 
HETATM   16  C   UNL     1      41.357 -16.146   2.439  1.00  0.00     0.251 C 
HETATM   17  O   UNL     1      40.236 -16.109   2.933  1.00  0.00    -0.268 OA
HETATM   18  H   UNL     1      42.730 -15.359   1.157  1.00  0.00     0.162 HD
BRANCH  16  19
HETATM   19  C   UNL     1      42.403 -17.028   3.010  1.00  0.00     0.034 A 
HETATM   20  C   UNL     1      42.846 -16.787   4.314  1.00  0.00     0.053 A 
HETATM   21  C   UNL     1      43.828 -17.609   4.855  1.00  0.00     0.066 A 
HETATM   22  C   UNL     1      44.354 -18.671   4.125  1.00  0.00     0.036 A 
HETATM   23  C   UNL     1      43.899 -18.920   2.831  1.00  0.00     0.004 A 
HETATM   24  C   UNL     1      42.923 -18.097   2.267  1.00  0.00     0.017 A 
BRANCH  21  25
HETATM   25  O   UNL     1      44.314 -17.410   6.113  1.00  0.00    -0.361 OA
HETATM   26  H   UNL     1      43.653 -17.690   6.767  1.00  0.00     0.217 HD
ENDBRANCH  21  25
ENDBRANCH  16  19
ENDBRANCH  14  15
ENDBRANCH   1  14
TORSDOF 8
ENDMDL
