MODEL 1
REMARK VINA RESULT:      -7.9      0.000      0.000
REMARK  11 active torsions:
REMARK  status: ('A' for Active; 'I' for Inactive)
REMARK    1  A    between atoms: C_2  and  O_3 
REMARK    2  A    between atoms: O_3  and  C_4 
REMARK    3  A    between atoms: C_7  and  C_8 
REMARK       I    between atoms: C_8  and  N_9 
REMARK    4  A    between atoms: N_9  and  C_10 
REMARK    5  A    between atoms: C_10  and  N_11 
REMARK    6  A    between atoms: N_11  and  C_12 
REMARK    7  A    between atoms: C_13  and  C_14 
REMARK       I    between atoms: C_14  and  N_15 
REMARK    8  A    between atoms: N_15  and  C_16 
REMARK    9  A    between atoms: C_16  and  C_17 
REMARK   10  A    between atoms: C_17  and  C_18 
REMARK   11  A    between atoms: C_18  and  O_19 
ROOT
HETATM    1  N   UNL     1      42.927 -11.717   7.157  1.00  0.00    -0.332 N 
HETATM    2  H   UNL     1      42.675 -12.496   7.762  1.00  0.00     0.168 HD
ENDROOT
BRANCH   1   3
HETATM    3  C   UNL     1      42.430 -11.833   5.858  1.00  0.00     0.179 C 
HETATM    4  S   UNL     1      42.070 -10.545   4.855  1.00  0.00    -0.040 SA
BRANCH   3   5
HETATM    5  N   UNL     1      42.348 -13.191   5.520  1.00  0.00    -0.299 N 
HETATM    6  C   UNL     1      42.889 -14.280   6.199  1.00  0.00     0.257 C 
HETATM    7  O   UNL     1      43.041 -14.357   7.413  1.00  0.00    -0.267 OA
HETATM    8  H   UNL     1      42.208 -13.314   4.528  1.00  0.00     0.171 HD
BRANCH   6   9
HETATM    9  C   UNL     1      43.224 -15.468   5.369  1.00  0.00     0.032 A 
HETATM   10  C   UNL     1      42.731 -15.506   4.059  1.00  0.00     0.020 A 
HETATM   11  C   UNL     1      43.016 -16.590   3.223  1.00  0.00     0.038 A 
HETATM   12  C   UNL     1      43.808 -17.639   3.687  1.00  0.00     0.068 A 
HETATM   13  C   UNL     1      44.301 -17.600   4.995  1.00  0.00     0.038 A 
HETATM   14  C   UNL     1      44.020 -16.518   5.836  1.00  0.00     0.020 A 
BRANCH  12  15
HETATM   15  O   UNL     1      44.173 -18.746   2.971  1.00  0.00    -0.352 OA
BRANCH  15  16
HETATM   16  C   UNL     1      43.126 -19.468   2.323  1.00  0.00     0.171 C 
HETATM   17  C   UNL     1      43.748 -20.648   1.596  1.00  0.00     0.034 C 
ENDBRANCH  15  16
ENDBRANCH  12  15
ENDBRANCH   6   9
ENDBRANCH   3   5
ENDBRANCH   1   3
BRANCH   1  18
HETATM   18  C   UNL     1      44.011 -10.923   7.615  1.00  0.00     0.050 A 
HETATM   19  C   UNL     1      43.777  -9.769   8.386  1.00  0.00     0.058 A 
HETATM   20  C   UNL     1      44.835  -8.909   8.721  1.00  0.00     0.019 A 
HETATM   21  C   UNL     1      46.134  -9.204   8.310  1.00  0.00     0.001 A 
HETATM   22  C   UNL     1      46.376 -10.349   7.557  1.00  0.00     0.002 A 
HETATM   23  C   UNL     1      45.323 -11.198   7.203  1.00  0.00     0.030 A 
BRANCH  19  24
HETATM   24  C   UNL     1      42.440  -9.420   8.931  1.00  0.00     0.253 C 
HETATM   25  N   UNL     1      42.241  -9.735  10.261  1.00  0.00    -0.357 N 
HETATM   26  H   UNL     1      43.051 -10.006  10.812  1.00  0.00     0.162 HD
HETATM   27  O   UNL     1      41.610  -8.860   8.227  1.00  0.00    -0.268 OA
BRANCH  25  28
HETATM   28  C   UNL     1      41.069  -9.265  10.976  1.00  0.00     0.125 C 
BRANCH  28  29
HETATM   29  C   UNL     1      40.907  -9.981  12.313  1.00  0.00     0.046 C 
BRANCH  29  30
HETATM   30  C   UNL     1      39.484 -10.483  12.505  1.00  0.00     0.165 C 
BRANCH  30  31
HETATM   31  O   UNL     1      39.471 -11.578  13.412  1.00  0.00    -0.401 OA
HETATM   32  H   UNL     1      38.553 -11.893  13.487  1.00  0.00     0.209 HD
ENDBRANCH  30  31
ENDBRANCH  29  30
ENDBRANCH  28  29
ENDBRANCH  25  28
ENDBRANCH  19  24
ENDBRANCH   1  18
TORSDOF 11
ENDMDL
MODEL 2
REMARK VINA RESULT:      -7.8      3.022      8.877
REMARK  11 active torsions:
REMARK  status: ('A' for Active; 'I' for Inactive)
REMARK    1  A    between atoms: C_2  and  O_3 
REMARK    2  A    between atoms: O_3  and  C_4 
REMARK    3  A    between atoms: C_7  and  C_8 
REMARK       I    between atoms: C_8  and  N_9 
REMARK    4  A    between atoms: N_9  and  C_10 
REMARK    5  A    between atoms: C_10  and  N_11 
REMARK    6  A    between atoms: N_11  and  C_12 
REMARK    7  A    between atoms: C_13  and  C_14 
REMARK       I    between atoms: C_14  and  N_15 
REMARK    8  A    between atoms: N_15  and  C_16 
REMARK    9  A    between atoms: C_16  and  C_17 
REMARK   10  A    between atoms: C_17  and  C_18 
REMARK   11  A    between atoms: C_18  and  O_19 
ROOT
HETATM    1  N   UNL     1      43.355 -15.725   4.832  1.00  0.00    -0.332 N 
HETATM    2  H   UNL     1      44.189 -15.281   5.210  1.00  0.00     0.168 HD
ENDROOT
BRANCH   1   3
HETATM    3  C   UNL     1      42.165 -15.231   5.370  1.00  0.00     0.179 C 
HETATM    4  S   UNL     1      40.753 -16.111   5.530  1.00  0.00    -0.040 SA
BRANCH   3   5
HETATM    5  N   UNL     1      42.371 -13.915   5.803  1.00  0.00    -0.299 N 
HETATM    6  C   UNL     1      43.199 -12.945   5.243  1.00  0.00     0.257 C 
HETATM    7  O   UNL     1      43.457 -12.834   4.050  1.00  0.00    -0.267 OA
HETATM    8  H   UNL     1      42.188 -13.821   6.792  1.00  0.00     0.171 HD
BRANCH   6   9
HETATM    9  C   UNL     1      43.733 -11.920   6.179  1.00  0.00     0.032 A 
HETATM   10  C   UNL     1      42.865 -10.903   6.595  1.00  0.00     0.020 A 
HETATM   11  C   UNL     1      43.302  -9.913   7.481  1.00  0.00     0.038 A 
HETATM   12  C   UNL     1      44.606  -9.940   7.969  1.00  0.00     0.068 A 
HETATM   13  C   UNL     1      45.473 -10.956   7.555  1.00  0.00     0.038 A 
HETATM   14  C   UNL     1      45.042 -11.950   6.669  1.00  0.00     0.020 A 
BRANCH  12  15
HETATM   15  O   UNL     1      45.153  -9.045   8.848  1.00  0.00    -0.352 OA
BRANCH  15  16
HETATM   16  C   UNL     1      45.449  -9.528  10.159  1.00  0.00     0.171 C 
HETATM   17  C   UNL     1      44.215  -9.331  11.022  1.00  0.00     0.034 C 
ENDBRANCH  15  16
ENDBRANCH  12  15
ENDBRANCH   6   9
ENDBRANCH   3   5
ENDBRANCH   1   3
BRANCH   1  18
HETATM   18  C   UNL     1      43.575 -16.966   4.178  1.00  0.00     0.050 A 
HETATM   19  C   UNL     1      43.110 -17.176   2.866  1.00  0.00     0.058 A 
HETATM   20  C   UNL     1      43.203 -18.443   2.271  1.00  0.00     0.019 A 
HETATM   21  C   UNL     1      43.779 -19.503   2.969  1.00  0.00     0.001 A 
HETATM   22  C   UNL     1      44.251 -19.303   4.263  1.00  0.00     0.002 A 
HETATM   23  C   UNL     1      44.142 -18.046   4.868  1.00  0.00     0.030 A 
BRANCH  19  24
HETATM   24  C   UNL     1      42.554 -16.086   2.024  1.00  0.00     0.253 C 
HETATM   25  N   UNL     1      41.187 -16.126   1.829  1.00  0.00    -0.357 N 
HETATM   26  H   UNL     1      40.644 -16.766   2.401  1.00  0.00     0.162 HD
HETATM   27  O   UNL     1      43.284 -15.210   1.580  1.00  0.00    -0.268 OA
BRANCH  25  28
HETATM   28  C   UNL     1      40.485 -15.018   1.208  1.00  0.00     0.125 C 
BRANCH  28  29
HETATM   29  C   UNL     1      39.787 -14.147   2.247  1.00  0.00     0.046 C 
BRANCH  29  30
HETATM   30  C   UNL     1      40.417 -12.764   2.327  1.00  0.00     0.165 C 
BRANCH  30  31
HETATM   31  O   UNL     1      41.699 -12.775   1.712  1.00  0.00    -0.401 OA
HETATM   32  H   UNL     1      42.359 -12.966   2.401  1.00  0.00     0.209 HD
ENDBRANCH  30  31
ENDBRANCH  29  30
ENDBRANCH  28  29
ENDBRANCH  25  28
ENDBRANCH  19  24
ENDBRANCH   1  18
TORSDOF 11
ENDMDL
MODEL 3
REMARK VINA RESULT:      -7.7      2.765      4.633
REMARK  11 active torsions:
REMARK  status: ('A' for Active; 'I' for Inactive)
REMARK    1  A    between atoms: C_2  and  O_3 
REMARK    2  A    between atoms: O_3  and  C_4 
REMARK    3  A    between atoms: C_7  and  C_8 
REMARK       I    between atoms: C_8  and  N_9 
REMARK    4  A    between atoms: N_9  and  C_10 
REMARK    5  A    between atoms: C_10  and  N_11 
REMARK    6  A    between atoms: N_11  and  C_12 
REMARK    7  A    between atoms: C_13  and  C_14 
REMARK       I    between atoms: C_14  and  N_15 
REMARK    8  A    between atoms: N_15  and  C_16 
REMARK    9  A    between atoms: C_16  and  C_17 
REMARK   10  A    between atoms: C_17  and  C_18 
REMARK   11  A    between atoms: C_18  and  O_19 
ROOT
HETATM    1  N   UNL     1      40.988 -12.697   4.841  1.00  0.00    -0.332 N 
HETATM    2  H   UNL     1      40.395 -11.961   5.219  1.00  0.00     0.168 HD
ENDROOT
BRANCH   1   3
HETATM    3  C   UNL     1      40.915 -12.817   3.453  1.00  0.00     0.179 C 
HETATM    4  S   UNL     1      40.078 -11.776   2.446  1.00  0.00    -0.040 SA
BRANCH   3   5
HETATM    5  N   UNL     1      41.701 -13.903   3.046  1.00  0.00    -0.299 N 
HETATM    6  C   UNL     1      41.281 -15.104   2.480  1.00  0.00     0.257 C 
HETATM    7  O   UNL     1      40.306 -15.243   1.749  1.00  0.00    -0.267 OA
HETATM    8  H   UNL     1      42.573 -13.936   3.554  1.00  0.00     0.171 HD
BRANCH   6   9
HETATM    9  C   UNL     1      42.151 -16.285   2.728  1.00  0.00     0.032 A 
HETATM   10  C   UNL     1      43.062 -16.210   3.789  1.00  0.00     0.020 A 
HETATM   11  C   UNL     1      43.904 -17.288   4.081  1.00  0.00     0.038 A 
HETATM   12  C   UNL     1      43.829 -18.456   3.324  1.00  0.00     0.068 A 
HETATM   13  C   UNL     1      42.918 -18.531   2.267  1.00  0.00     0.038 A 
HETATM   14  C   UNL     1      42.073 -17.456   1.969  1.00  0.00     0.020 A 
BRANCH  12  15
HETATM   15  O   UNL     1      44.581 -19.584   3.514  1.00  0.00    -0.352 OA
BRANCH  15  16
HETATM   16  C   UNL     1      43.876 -20.777   3.856  1.00  0.00     0.171 C 
HETATM   17  C   UNL     1      43.877 -20.906   5.369  1.00  0.00     0.034 C 
ENDBRANCH  15  16
ENDBRANCH  12  15
ENDBRANCH   6   9
ENDBRANCH   3   5
ENDBRANCH   1   3
BRANCH   1  18
HETATM   18  C   UNL     1      41.426 -13.663   5.785  1.00  0.00     0.050 A 
HETATM   19  C   UNL     1      42.742 -13.629   6.285  1.00  0.00     0.058 A 
HETATM   20  C   UNL     1      43.218 -14.661   7.108  1.00  0.00     0.019 A 
HETATM   21  C   UNL     1      42.383 -15.721   7.456  1.00  0.00     0.001 A 
HETATM   22  C   UNL     1      41.077 -15.757   6.975  1.00  0.00     0.002 A 
HETATM   23  C   UNL     1      40.604 -14.742   6.138  1.00  0.00     0.030 A 
BRANCH  19  24
HETATM   24  C   UNL     1      43.673 -12.501   6.027  1.00  0.00     0.253 C 
HETATM   25  N   UNL     1      44.321 -12.002   7.141  1.00  0.00    -0.357 N 
HETATM   26  H   UNL     1      44.262 -12.535   8.004  1.00  0.00     0.162 HD
HETATM   27  O   UNL     1      43.856 -12.093   4.888  1.00  0.00    -0.268 OA
BRANCH  25  28
HETATM   28  C   UNL     1      45.408 -11.048   7.012  1.00  0.00     0.125 C 
BRANCH  28  29
HETATM   29  C   UNL     1      45.753 -10.413   8.355  1.00  0.00     0.046 C 
BRANCH  29  30
HETATM   30  C   UNL     1      44.542 -10.363   9.275  1.00  0.00     0.165 C 
BRANCH  30  31
HETATM   31  O   UNL     1      44.916 -10.735  10.595  1.00  0.00    -0.401 OA
HETATM   32  H   UNL     1      45.123  -9.923  11.088  1.00  0.00     0.209 HD
ENDBRANCH  30  31
ENDBRANCH  29  30
ENDBRANCH  28  29
ENDBRANCH  25  28
ENDBRANCH  19  24
ENDBRANCH   1  18
TORSDOF 11
ENDMDL
MODEL 4
REMARK VINA RESULT:      -7.6      1.511      1.768
REMARK  11 active torsions:
REMARK  status: ('A' for Active; 'I' for Inactive)
REMARK    1  A    between atoms: C_2  and  O_3 
REMARK    2  A    between atoms: O_3  and  C_4 
REMARK    3  A    between atoms: C_7  and  C_8 
REMARK       I    between atoms: C_8  and  N_9 
REMARK    4  A    between atoms: N_9  and  C_10 
REMARK    5  A    between atoms: C_10  and  N_11 
REMARK    6  A    between atoms: N_11  and  C_12 
REMARK    7  A    between atoms: C_13  and  C_14 
REMARK       I    between atoms: C_14  and  N_15 
REMARK    8  A    between atoms: N_15  and  C_16 
REMARK    9  A    between atoms: C_16  and  C_17 
REMARK   10  A    between atoms: C_17  and  C_18 
REMARK   11  A    between atoms: C_18  and  O_19 
ROOT
HETATM    1  N   UNL     1      42.481 -10.667   5.909  1.00  0.00    -0.332 N 
HETATM    2  H   UNL     1      42.151  -9.762   5.580  1.00  0.00     0.168 HD
ENDROOT
BRANCH   1   3
HETATM    3  C   UNL     1      41.543 -11.691   5.768  1.00  0.00     0.179 C 
HETATM    4  S   UNL     1      39.907 -11.537   6.080  1.00  0.00    -0.040 SA
BRANCH   3   5
HETATM    5  N   UNL     1      42.183 -12.832   5.269  1.00  0.00    -0.299 N 
HETATM    6  C   UNL     1      42.735 -13.024   4.004  1.00  0.00     0.257 C 
HETATM    7  O   UNL     1      43.254 -12.153   3.316  1.00  0.00    -0.267 OA
HETATM    8  H   UNL     1      41.873 -13.666   5.746  1.00  0.00     0.171 HD
BRANCH   6   9
HETATM    9  C   UNL     1      42.762 -14.426   3.507  1.00  0.00     0.032 A 
HETATM   10  C   UNL     1      42.307 -15.431   4.370  1.00  0.00     0.020 A 
HETATM   11  C   UNL     1      42.298 -16.768   3.961  1.00  0.00     0.038 A 
HETATM   12  C   UNL     1      42.730 -17.109   2.681  1.00  0.00     0.068 A 
HETATM   13  C   UNL     1      43.182 -16.105   1.819  1.00  0.00     0.038 A 
HETATM   14  C   UNL     1      43.194 -14.765   2.222  1.00  0.00     0.020 A 
BRANCH  12  15
HETATM   15  O   UNL     1      42.757 -18.371   2.153  1.00  0.00    -0.352 OA
BRANCH  15  16
HETATM   16  C   UNL     1      43.750 -19.262   2.664  1.00  0.00     0.171 C 
HETATM   17  C   UNL     1      43.733 -20.521   1.815  1.00  0.00     0.034 C 
ENDBRANCH  15  16
ENDBRANCH  12  15
ENDBRANCH   6   9
ENDBRANCH   3   5
ENDBRANCH   1   3
BRANCH   1  18
HETATM   18  C   UNL     1      43.608 -10.621   6.771  1.00  0.00     0.050 A 
HETATM   19  C   UNL     1      43.540  -9.942   8.002  1.00  0.00     0.058 A 
HETATM   20  C   UNL     1      44.691  -9.777   8.789  1.00  0.00     0.019 A 
HETATM   21  C   UNL     1      45.909 -10.306   8.367  1.00  0.00     0.001 A 
HETATM   22  C   UNL     1      45.984 -10.988   7.157  1.00  0.00     0.002 A 
HETATM   23  C   UNL     1      44.845 -11.137   6.359  1.00  0.00     0.030 A 
BRANCH  19  24
HETATM   24  C   UNL     1      42.270  -9.416   8.564  1.00  0.00     0.253 C 
HETATM   25  N   UNL     1      41.974  -9.828   9.848  1.00  0.00    -0.357 N 
HETATM   26  H   UNL     1      42.704 -10.298  10.377  1.00  0.00     0.162 HD
HETATM   27  O   UNL     1      41.577  -8.644   7.915  1.00  0.00    -0.268 OA
BRANCH  25  28
HETATM   28  C   UNL     1      40.882  -9.232  10.596  1.00  0.00     0.125 C 
BRANCH  28  29
HETATM   29  C   UNL     1      40.794  -9.804  12.006  1.00  0.00     0.046 C 
BRANCH  29  30
HETATM   30  C   UNL     1      39.494 -10.567  12.216  1.00  0.00     0.165 C 
BRANCH  30  31
HETATM   31  O   UNL     1      39.583 -11.372  13.384  1.00  0.00    -0.401 OA
HETATM   32  H   UNL     1      40.023 -12.205  13.140  1.00  0.00     0.209 HD
ENDBRANCH  30  31
ENDBRANCH  29  30
ENDBRANCH  28  29
ENDBRANCH  25  28
ENDBRANCH  19  24
ENDBRANCH   1  18
TORSDOF 11
ENDMDL
MODEL 5
REMARK VINA RESULT:      -7.5      3.112      5.046
REMARK  11 active torsions:
REMARK  status: ('A' for Active; 'I' for Inactive)
REMARK    1  A    between atoms: C_2  and  O_3 
REMARK    2  A    between atoms: O_3  and  C_4 
REMARK    3  A    between atoms: C_7  and  C_8 
REMARK       I    between atoms: C_8  and  N_9 
REMARK    4  A    between atoms: N_9  and  C_10 
REMARK    5  A    between atoms: C_10  and  N_11 
REMARK    6  A    between atoms: N_11  and  C_12 
REMARK    7  A    between atoms: C_13  and  C_14 
REMARK       I    between atoms: C_14  and  N_15 
REMARK    8  A    between atoms: N_15  and  C_16 
REMARK    9  A    between atoms: C_16  and  C_17 
REMARK   10  A    between atoms: C_17  and  C_18 
REMARK   11  A    between atoms: C_18  and  O_19 
ROOT
HETATM    1  N   UNL     1      41.563 -10.555   2.829  1.00  0.00    -0.332 N 
HETATM    2  H   UNL     1      41.524  -9.545   2.951  1.00  0.00     0.168 HD
ENDROOT
BRANCH   1   3
HETATM    3  C   UNL     1      41.653 -10.955   1.495  1.00  0.00     0.179 C 
HETATM    4  S   UNL     1      41.427  -9.949   0.178  1.00  0.00    -0.040 SA
BRANCH   3   5
HETATM    5  N   UNL     1      42.022 -12.306   1.447  1.00  0.00    -0.299 N 
HETATM    6  C   UNL     1      41.194 -13.419   1.317  1.00  0.00     0.257 C 
HETATM    7  O   UNL     1      40.137 -13.450   0.698  1.00  0.00    -0.267 OA
HETATM    8  H   UNL     1      42.903 -12.463   1.915  1.00  0.00     0.171 HD
BRANCH   6   9
HETATM    9  C   UNL     1      41.699 -14.683   1.916  1.00  0.00     0.032 A 
HETATM   10  C   UNL     1      42.955 -15.143   1.503  1.00  0.00     0.020 A 
HETATM   11  C   UNL     1      43.492 -16.321   2.033  1.00  0.00     0.038 A 
HETATM   12  C   UNL     1      42.781 -17.040   2.992  1.00  0.00     0.068 A 
HETATM   13  C   UNL     1      41.527 -16.580   3.405  1.00  0.00     0.038 A 
HETATM   14  C   UNL     1      40.985 -15.403   2.879  1.00  0.00     0.020 A 
BRANCH  12  15
HETATM   15  O   UNL     1      43.196 -18.194   3.600  1.00  0.00    -0.352 OA
BRANCH  15  16
HETATM   16  C   UNL     1      44.040 -19.057   2.836  1.00  0.00     0.171 C 
HETATM   17  C   UNL     1      43.152 -19.996   2.039  1.00  0.00     0.034 C 
ENDBRANCH  15  16
ENDBRANCH  12  15
ENDBRANCH   6   9
ENDBRANCH   3   5
ENDBRANCH   1   3
BRANCH   1  18
HETATM   18  C   UNL     1      41.128 -11.315   3.946  1.00  0.00     0.050 A 
HETATM   19  C   UNL     1      42.061 -11.857   4.850  1.00  0.00     0.058 A 
HETATM   20  C   UNL     1      41.643 -12.722   5.873  1.00  0.00     0.019 A 
HETATM   21  C   UNL     1      40.293 -13.036   6.016  1.00  0.00     0.001 A 
HETATM   22  C   UNL     1      39.362 -12.496   5.134  1.00  0.00     0.002 A 
HETATM   23  C   UNL     1      39.775 -11.650   4.100  1.00  0.00     0.030 A 
BRANCH  19  24
HETATM   24  C   UNL     1      43.506 -11.516   4.818  1.00  0.00     0.253 C 
HETATM   25  N   UNL     1      44.103 -11.348   6.053  1.00  0.00    -0.357 N 
HETATM   26  H   UNL     1      43.582 -11.638   6.876  1.00  0.00     0.162 HD
HETATM   27  O   UNL     1      44.102 -11.432   3.752  1.00  0.00    -0.268 OA
BRANCH  25  28
HETATM   28  C   UNL     1      45.543 -11.221   6.179  1.00  0.00     0.125 C 
BRANCH  28  29
HETATM   29  C   UNL     1      45.947 -10.835   7.598  1.00  0.00     0.046 C 
BRANCH  29  30
HETATM   30  C   UNL     1      44.740 -10.410   8.422  1.00  0.00     0.165 C 
BRANCH  30  31
HETATM   31  O   UNL     1      44.011 -11.554   8.846  1.00  0.00    -0.401 OA
HETATM   32  H   UNL     1      43.525 -11.901   8.078  1.00  0.00     0.209 HD
ENDBRANCH  30  31
ENDBRANCH  29  30
ENDBRANCH  28  29
ENDBRANCH  25  28
ENDBRANCH  19  24
ENDBRANCH   1  18
TORSDOF 11
ENDMDL
MODEL 6
REMARK VINA RESULT:      -7.4      1.984      2.390
REMARK  11 active torsions:
REMARK  status: ('A' for Active; 'I' for Inactive)
REMARK    1  A    between atoms: C_2  and  O_3 
REMARK    2  A    between atoms: O_3  and  C_4 
REMARK    3  A    between atoms: C_7  and  C_8 
REMARK       I    between atoms: C_8  and  N_9 
REMARK    4  A    between atoms: N_9  and  C_10 
REMARK    5  A    between atoms: C_10  and  N_11 
REMARK    6  A    between atoms: N_11  and  C_12 
REMARK    7  A    between atoms: C_13  and  C_14 
REMARK       I    between atoms: C_14  and  N_15 
REMARK    8  A    between atoms: N_15  and  C_16 
REMARK    9  A    between atoms: C_16  and  C_17 
REMARK   10  A    between atoms: C_17  and  C_18 
REMARK   11  A    between atoms: C_18  and  O_19 
ROOT
HETATM    1  N   UNL     1      42.087 -11.555   6.941  1.00  0.00    -0.332 N 
HETATM    2  H   UNL     1      41.687 -12.298   7.509  1.00  0.00     0.168 HD
ENDROOT
BRANCH   1   3
HETATM    3  C   UNL     1      41.296 -11.199   5.847  1.00  0.00     0.179 C 
HETATM    4  S   UNL     1      40.768  -9.647   5.517  1.00  0.00    -0.040 SA
BRANCH   3   5
HETATM    5  N   UNL     1      41.078 -12.332   5.052  1.00  0.00    -0.299 N 
HETATM    6  C   UNL     1      40.679 -13.602   5.458  1.00  0.00     0.257 C 
HETATM    7  O   UNL     1      39.944 -13.847   6.408  1.00  0.00    -0.267 OA
HETATM    8  H   UNL     1      41.615 -12.289   4.198  1.00  0.00     0.171 HD
BRANCH   6   9
HETATM    9  C   UNL     1      41.125 -14.734   4.602  1.00  0.00     0.032 A 
HETATM   10  C   UNL     1      42.153 -15.551   5.087  1.00  0.00     0.020 A 
HETATM   11  C   UNL     1      42.614 -16.637   4.335  1.00  0.00     0.038 A 
HETATM   12  C   UNL     1      42.039 -16.922   3.098  1.00  0.00     0.068 A 
HETATM   13  C   UNL     1      41.012 -16.106   2.614  1.00  0.00     0.038 A 
HETATM   14  C   UNL     1      40.547 -15.018   3.361  1.00  0.00     0.020 A 
BRANCH  12  15
HETATM   15  O   UNL     1      42.384 -17.958   2.273  1.00  0.00    -0.352 OA
BRANCH  15  16
HETATM   16  C   UNL     1      43.519 -18.736   2.656  1.00  0.00     0.171 C 
HETATM   17  C   UNL     1      43.346 -20.131   2.083  1.00  0.00     0.034 C 
ENDBRANCH  15  16
ENDBRANCH  12  15
ENDBRANCH   6   9
ENDBRANCH   3   5
ENDBRANCH   1   3
BRANCH   1  18
HETATM   18  C   UNL     1      43.477 -11.333   7.130  1.00  0.00     0.050 A 
HETATM   19  C   UNL     1      43.933 -10.491   8.161  1.00  0.00     0.058 A 
HETATM   20  C   UNL     1      45.293 -10.160   8.262  1.00  0.00     0.019 A 
HETATM   21  C   UNL     1      46.210 -10.683   7.352  1.00  0.00     0.001 A 
HETATM   22  C   UNL     1      45.770 -11.525   6.335  1.00  0.00     0.002 A 
HETATM   23  C   UNL     1      44.412 -11.841   6.218  1.00  0.00     0.030 A 
BRANCH  19  24
HETATM   24  C   UNL     1      43.038  -9.953   9.218  1.00  0.00     0.253 C 
HETATM   25  N   UNL     1      43.303 -10.394  10.499  1.00  0.00    -0.357 N 
HETATM   26  H   UNL     1      44.173 -10.895  10.660  1.00  0.00     0.162 HD
HETATM   27  O   UNL     1      42.161  -9.147   8.938  1.00  0.00    -0.268 OA
BRANCH  25  28
HETATM   28  C   UNL     1      42.651  -9.796  11.650  1.00  0.00     0.125 C 
BRANCH  28  29
HETATM   29  C   UNL     1      43.446  -8.611  12.188  1.00  0.00     0.046 C 
BRANCH  29  30
HETATM   30  C   UNL     1      42.576  -7.699  13.039  1.00  0.00     0.165 C 
BRANCH  30  31
HETATM   31  O   UNL     1      43.293  -7.278  14.193  1.00  0.00    -0.401 OA
HETATM   32  H   UNL     1      43.360  -6.307  14.166  1.00  0.00     0.209 HD
ENDBRANCH  30  31
ENDBRANCH  29  30
ENDBRANCH  28  29
ENDBRANCH  25  28
ENDBRANCH  19  24
ENDBRANCH   1  18
TORSDOF 11
ENDMDL
MODEL 7
REMARK VINA RESULT:      -7.2      5.075      8.073
REMARK  11 active torsions:
REMARK  status: ('A' for Active; 'I' for Inactive)
REMARK    1  A    between atoms: C_2  and  O_3 
REMARK    2  A    between atoms: O_3  and  C_4 
REMARK    3  A    between atoms: C_7  and  C_8 
REMARK       I    between atoms: C_8  and  N_9 
REMARK    4  A    between atoms: N_9  and  C_10 
REMARK    5  A    between atoms: C_10  and  N_11 
REMARK    6  A    between atoms: N_11  and  C_12 
REMARK    7  A    between atoms: C_13  and  C_14 
REMARK       I    between atoms: C_14  and  N_15 
REMARK    8  A    between atoms: N_15  and  C_16 
REMARK    9  A    between atoms: C_16  and  C_17 
REMARK   10  A    between atoms: C_17  and  C_18 
REMARK   11  A    between atoms: C_18  and  O_19 
ROOT
HETATM    1  N   UNL     1      38.865 -12.693   3.576  1.00  0.00    -0.332 N 
HETATM    2  H   UNL     1      37.982 -13.193   3.652  1.00  0.00     0.168 HD
ENDROOT
BRANCH   1   3
HETATM    3  C   UNL     1      39.732 -12.920   4.646  1.00  0.00     0.179 C 
HETATM    4  S   UNL     1      40.034 -11.830   5.878  1.00  0.00    -0.040 SA
BRANCH   3   5
HETATM    5  N   UNL     1      40.248 -14.219   4.549  1.00  0.00    -0.299 N 
HETATM    6  C   UNL     1      41.133 -14.859   5.413  1.00  0.00     0.257 C 
HETATM    7  O   UNL     1      41.201 -14.678   6.623  1.00  0.00    -0.267 OA
HETATM    8  H   UNL     1      40.255 -14.541   3.592  1.00  0.00     0.171 HD
BRANCH   6   9
HETATM    9  C   UNL     1      41.998 -15.906   4.807  1.00  0.00     0.032 A 
HETATM   10  C   UNL     1      42.619 -16.817   5.670  1.00  0.00     0.020 A 
HETATM   11  C   UNL     1      43.439 -17.832   5.164  1.00  0.00     0.038 A 
HETATM   12  C   UNL     1      43.632 -17.951   3.789  1.00  0.00     0.068 A 
HETATM   13  C   UNL     1      43.011 -17.042   2.927  1.00  0.00     0.038 A 
HETATM   14  C   UNL     1      42.190 -16.025   3.427  1.00  0.00     0.020 A 
BRANCH  12  15
HETATM   15  O   UNL     1      44.393 -18.902   3.166  1.00  0.00    -0.352 OA
BRANCH  15  16
HETATM   16  C   UNL     1      43.833 -20.212   3.068  1.00  0.00     0.171 C 
HETATM   17  C   UNL     1      43.483 -20.466   1.612  1.00  0.00     0.034 C 
ENDBRANCH  15  16
ENDBRANCH  12  15
ENDBRANCH   6   9
ENDBRANCH   3   5
ENDBRANCH   1   3
BRANCH   1  18
HETATM   18  C   UNL     1      38.868 -11.610   2.658  1.00  0.00     0.050 A 
HETATM   19  C   UNL     1      39.380 -11.775   1.358  1.00  0.00     0.058 A 
HETATM   20  C   UNL     1      39.512 -10.674   0.498  1.00  0.00     0.019 A 
HETATM   21  C   UNL     1      39.115  -9.406   0.919  1.00  0.00     0.001 A 
HETATM   22  C   UNL     1      38.597  -9.235   2.199  1.00  0.00     0.002 A 
HETATM   23  C   UNL     1      38.483 -10.325   3.067  1.00  0.00     0.030 A 
BRANCH  19  24
HETATM   24  C   UNL     1      39.755 -13.101   0.801  1.00  0.00     0.253 C 
HETATM   25  N   UNL     1      39.082 -13.474  -0.346  1.00  0.00    -0.357 N 
HETATM   26  H   UNL     1      38.527 -12.768  -0.822  1.00  0.00     0.162 HD
HETATM   27  O   UNL     1      40.631 -13.771   1.331  1.00  0.00    -0.268 OA
BRANCH  25  28
HETATM   28  C   UNL     1      39.490 -14.637  -1.111  1.00  0.00     0.125 C 
BRANCH  28  29
HETATM   29  C   UNL     1      39.632 -14.308  -2.593  1.00  0.00     0.046 C 
BRANCH  29  30
HETATM   30  C   UNL     1      40.488 -13.068  -2.807  1.00  0.00     0.165 C 
BRANCH  30  31
HETATM   31  O   UNL     1      41.700 -13.418  -3.463  1.00  0.00    -0.401 OA
HETATM   32  H   UNL     1      41.477 -13.731  -4.357  1.00  0.00     0.209 HD
ENDBRANCH  30  31
ENDBRANCH  29  30
ENDBRANCH  28  29
ENDBRANCH  25  28
ENDBRANCH  19  24
ENDBRANCH   1  18
TORSDOF 11
ENDMDL
MODEL 8
REMARK VINA RESULT:      -7.1      4.446      8.610
REMARK  11 active torsions:
REMARK  status: ('A' for Active; 'I' for Inactive)
REMARK    1  A    between atoms: C_2  and  O_3 
REMARK    2  A    between atoms: O_3  and  C_4 
REMARK    3  A    between atoms: C_7  and  C_8 
REMARK       I    between atoms: C_8  and  N_9 
REMARK    4  A    between atoms: N_9  and  C_10 
REMARK    5  A    between atoms: C_10  and  N_11 
REMARK    6  A    between atoms: N_11  and  C_12 
REMARK    7  A    between atoms: C_13  and  C_14 
REMARK       I    between atoms: C_14  and  N_15 
REMARK    8  A    between atoms: N_15  and  C_16 
REMARK    9  A    between atoms: C_16  and  C_17 
REMARK   10  A    between atoms: C_17  and  C_18 
REMARK   11  A    between atoms: C_18  and  O_19 
ROOT
HETATM    1  N   UNL     1      41.834 -16.067   5.697  1.00  0.00    -0.332 N 
HETATM    2  H   UNL     1      40.877 -15.868   5.416  1.00  0.00     0.168 HD
ENDROOT
BRANCH   1   3
HETATM    3  C   UNL     1      42.294 -15.254   6.734  1.00  0.00     0.179 C 
HETATM    4  S   UNL     1      43.175 -15.790   8.050  1.00  0.00    -0.040 SA
BRANCH   3   5
HETATM    5  N   UNL     1      41.953 -13.923   6.456  1.00  0.00    -0.299 N 
HETATM    6  C   UNL     1      40.719 -13.418   6.053  1.00  0.00     0.257 C 
HETATM    7  O   UNL     1      39.626 -13.870   6.376  1.00  0.00    -0.267 OA
HETATM    8  H   UNL     1      42.762 -13.387   6.177  1.00  0.00     0.171 HD
BRANCH   6   9
HETATM    9  C   UNL     1      40.755 -12.178   5.233  1.00  0.00     0.032 A 
HETATM   10  C   UNL     1      41.921 -11.914   4.504  1.00  0.00     0.020 A 
HETATM   11  C   UNL     1      42.017 -10.769   3.706  1.00  0.00     0.038 A 
HETATM   12  C   UNL     1      40.942  -9.886   3.621  1.00  0.00     0.068 A 
HETATM   13  C   UNL     1      39.778 -10.151   4.349  1.00  0.00     0.038 A 
HETATM   14  C   UNL     1      39.675 -11.294   5.149  1.00  0.00     0.020 A 
BRANCH  12  15
HETATM   15  O   UNL     1      40.900  -8.744   2.870  1.00  0.00    -0.352 OA
BRANCH  15  16
HETATM   16  C   UNL     1      40.160  -7.647   3.406  1.00  0.00     0.171 C 
HETATM   17  C   UNL     1      41.150  -6.635   3.955  1.00  0.00     0.034 C 
ENDBRANCH  15  16
ENDBRANCH  12  15
ENDBRANCH   6   9
ENDBRANCH   3   5
ENDBRANCH   1   3
BRANCH   1  18
HETATM   18  C   UNL     1      42.598 -16.806   4.756  1.00  0.00     0.050 A 
HETATM   19  C   UNL     1      42.240 -16.818   3.395  1.00  0.00     0.058 A 
HETATM   20  C   UNL     1      42.909 -17.656   2.489  1.00  0.00     0.019 A 
HETATM   21  C   UNL     1      43.951 -18.471   2.927  1.00  0.00     0.001 A 
HETATM   22  C   UNL     1      44.320 -18.458   4.269  1.00  0.00     0.002 A 
HETATM   23  C   UNL     1      43.643 -17.639   5.180  1.00  0.00     0.030 A 
BRANCH  19  24
HETATM   24  C   UNL     1      41.195 -15.927   2.828  1.00  0.00     0.253 C 
HETATM   25  N   UNL     1      41.535 -15.288   1.652  1.00  0.00    -0.357 N 
HETATM   26  H   UNL     1      42.375 -15.596   1.169  1.00  0.00     0.162 HD
HETATM   27  O   UNL     1      40.106 -15.821   3.376  1.00  0.00    -0.268 OA
BRANCH  25  28
HETATM   28  C   UNL     1      40.545 -14.559   0.880  1.00  0.00     0.125 C 
BRANCH  28  29
HETATM   29  C   UNL     1      40.548 -13.075   1.231  1.00  0.00     0.046 C 
BRANCH  29  30
HETATM   30  C   UNL     1      39.166 -12.602   1.658  1.00  0.00     0.165 C 
BRANCH  30  31
HETATM   31  O   UNL     1      38.634 -13.476   2.645  1.00  0.00    -0.401 OA
HETATM   32  H   UNL     1      37.788 -13.822   2.314  1.00  0.00     0.209 HD
ENDBRANCH  30  31
ENDBRANCH  29  30
ENDBRANCH  28  29
ENDBRANCH  25  28
ENDBRANCH  19  24
ENDBRANCH   1  18
TORSDOF 11
ENDMDL
MODEL 9
REMARK VINA RESULT:      -7.0      1.833      2.263
REMARK  11 active torsions:
REMARK  status: ('A' for Active; 'I' for Inactive)
REMARK    1  A    between atoms: C_2  and  O_3 
REMARK    2  A    between atoms: O_3  and  C_4 
REMARK    3  A    between atoms: C_7  and  C_8 
REMARK       I    between atoms: C_8  and  N_9 
REMARK    4  A    between atoms: N_9  and  C_10 
REMARK    5  A    between atoms: C_10  and  N_11 
REMARK    6  A    between atoms: N_11  and  C_12 
REMARK    7  A    between atoms: C_13  and  C_14 
REMARK       I    between atoms: C_14  and  N_15 
REMARK    8  A    between atoms: N_15  and  C_16 
REMARK    9  A    between atoms: C_16  and  C_17 
REMARK   10  A    between atoms: C_17  and  C_18 
REMARK   11  A    between atoms: C_18  and  O_19 
ROOT
HETATM    1  N   UNL     1      42.623 -11.550   6.622  1.00  0.00    -0.332 N 
HETATM    2  H   UNL     1      42.212 -12.313   7.155  1.00  0.00     0.168 HD
ENDROOT
BRANCH   1   3
HETATM    3  C   UNL     1      42.239 -11.533   5.281  1.00  0.00     0.179 C 
HETATM    4  S   UNL     1      41.998 -10.149   4.374  1.00  0.00    -0.040 SA
BRANCH   3   5
HETATM    5  N   UNL     1      42.152 -12.852   4.813  1.00  0.00    -0.299 N 
HETATM    6  C   UNL     1      42.108 -14.027   5.560  1.00  0.00     0.257 C 
HETATM    7  O   UNL     1      41.601 -14.146   6.669  1.00  0.00    -0.267 OA
HETATM    8  H   UNL     1      42.527 -12.935   3.880  1.00  0.00     0.171 HD
BRANCH   6   9
HETATM    9  C   UNL     1      42.651 -15.243   4.898  1.00  0.00     0.032 A 
HETATM   10  C   UNL     1      43.502 -16.066   5.647  1.00  0.00     0.020 A 
HETATM   11  C   UNL     1      44.041 -17.229   5.088  1.00  0.00     0.038 A 
HETATM   12  C   UNL     1      43.721 -17.586   3.779  1.00  0.00     0.068 A 
HETATM   13  C   UNL     1      42.870 -16.765   3.032  1.00  0.00     0.038 A 
HETATM   14  C   UNL     1      42.328 -15.600   3.586  1.00  0.00     0.020 A 
BRANCH  12  15
HETATM   15  O   UNL     1      44.165 -18.700   3.121  1.00  0.00    -0.352 OA
BRANCH  15  16
HETATM   16  C   UNL     1      43.170 -19.562   2.568  1.00  0.00     0.171 C 
HETATM   17  C   UNL     1      43.862 -20.546   1.642  1.00  0.00     0.034 C 
ENDBRANCH  15  16
ENDBRANCH  12  15
ENDBRANCH   6   9
ENDBRANCH   3   5
ENDBRANCH   1   3
BRANCH   1  18
HETATM   18  C   UNL     1      43.759 -10.941   7.218  1.00  0.00     0.050 A 
HETATM   19  C   UNL     1      43.613  -9.812   8.046  1.00  0.00     0.058 A 
HETATM   20  C   UNL     1      44.742  -9.127   8.521  1.00  0.00     0.019 A 
HETATM   21  C   UNL     1      46.021  -9.573   8.194  1.00  0.00     0.001 A 
HETATM   22  C   UNL     1      46.175 -10.695   7.385  1.00  0.00     0.002 A 
HETATM   23  C   UNL     1      45.053 -11.369   6.892  1.00  0.00     0.030 A 
BRANCH  19  24
HETATM   24  C   UNL     1      42.292  -9.315   8.507  1.00  0.00     0.253 C 
HETATM   25  N   UNL     1      41.568  -8.603   7.571  1.00  0.00    -0.357 N 
HETATM   26  H   UNL     1      41.889  -8.620   6.607  1.00  0.00     0.162 HD
HETATM   27  O   UNL     1      41.891  -9.570   9.634  1.00  0.00    -0.268 OA
BRANCH  25  28
HETATM   28  C   UNL     1      40.183  -8.240   7.810  1.00  0.00     0.125 C 
BRANCH  28  29
HETATM   29  C   UNL     1      39.249  -8.916   6.812  1.00  0.00     0.046 C 
BRANCH  29  30
HETATM   30  C   UNL     1      39.110 -10.404   7.100  1.00  0.00     0.165 C 
BRANCH  30  31
HETATM   31  O   UNL     1      39.230 -10.644   8.496  1.00  0.00    -0.401 OA
HETATM   32  H   UNL     1      38.886 -11.537   8.676  1.00  0.00     0.209 HD
ENDBRANCH  30  31
ENDBRANCH  29  30
ENDBRANCH  28  29
ENDBRANCH  25  28
ENDBRANCH  19  24
ENDBRANCH   1  18
TORSDOF 11
ENDMDL
MODEL 10
REMARK VINA RESULT:      -6.9      3.038      9.900
REMARK  11 active torsions:
REMARK  status: ('A' for Active; 'I' for Inactive)
REMARK    1  A    between atoms: C_2  and  O_3 
REMARK    2  A    between atoms: O_3  and  C_4 
REMARK    3  A    between atoms: C_7  and  C_8 
REMARK       I    between atoms: C_8  and  N_9 
REMARK    4  A    between atoms: N_9  and  C_10 
REMARK    5  A    between atoms: C_10  and  N_11 
REMARK    6  A    between atoms: N_11  and  C_12 
REMARK    7  A    between atoms: C_13  and  C_14 
REMARK       I    between atoms: C_14  and  N_15 
REMARK    8  A    between atoms: N_15  and  C_16 
REMARK    9  A    between atoms: C_16  and  C_17 
REMARK   10  A    between atoms: C_17  and  C_18 
REMARK   11  A    between atoms: C_18  and  O_19 
ROOT
HETATM    1  N   UNL     1      42.915 -10.405   8.960  1.00  0.00    -0.332 N 
HETATM    2  H   UNL     1      42.422 -11.293   8.915  1.00  0.00     0.168 HD
ENDROOT
BRANCH   1   3
HETATM    3  C   UNL     1      42.096  -9.325   9.293  1.00  0.00     0.179 C 
HETATM    4  S   UNL     1      40.789  -8.803   8.390  1.00  0.00    -0.040 SA
BRANCH   3   5
HETATM    5  N   UNL     1      42.509  -8.802  10.526  1.00  0.00    -0.299 N 
HETATM    6  C   UNL     1      42.780  -9.493  11.705  1.00  0.00     0.257 C 
HETATM    7  O   UNL     1      43.237 -10.628  11.775  1.00  0.00    -0.267 OA
HETATM    8  H   UNL     1      42.217  -7.842  10.634  1.00  0.00     0.171 HD
BRANCH   6   9
HETATM    9  C   UNL     1      42.568  -8.738  12.969  1.00  0.00     0.032 A 
HETATM   10  C   UNL     1      41.567  -9.190  13.837  1.00  0.00     0.020 A 
HETATM   11  C   UNL     1      41.322  -8.531  15.046  1.00  0.00     0.038 A 
HETATM   12  C   UNL     1      42.087  -7.422  15.403  1.00  0.00     0.068 A 
HETATM   13  C   UNL     1      43.087  -6.971  14.536  1.00  0.00     0.038 A 
HETATM   14  C   UNL     1      43.337  -7.626  13.325  1.00  0.00     0.020 A 
BRANCH  12  15
HETATM   15  O   UNL     1      41.961  -6.698  16.557  1.00  0.00    -0.352 OA
BRANCH  15  16
HETATM   16  C   UNL     1      41.414  -5.385  16.438  1.00  0.00     0.171 C 
HETATM   17  C   UNL     1      39.906  -5.489  16.585  1.00  0.00     0.034 C 
ENDBRANCH  15  16
ENDBRANCH  12  15
ENDBRANCH   6   9
ENDBRANCH   3   5
ENDBRANCH   1   3
BRANCH   1  18
HETATM   18  C   UNL     1      44.177 -10.382   8.309  1.00  0.00     0.050 A 
HETATM   19  C   UNL     1      44.445 -11.253   7.236  1.00  0.00     0.058 A 
HETATM   20  C   UNL     1      45.733 -11.329   6.684  1.00  0.00     0.019 A 
HETATM   21  C   UNL     1      46.756 -10.523   7.181  1.00  0.00     0.001 A 
HETATM   22  C   UNL     1      46.498  -9.651   8.234  1.00  0.00     0.002 A 
HETATM   23  C   UNL     1      45.221  -9.587   8.802  1.00  0.00     0.030 A 
BRANCH  19  24
HETATM   24  C   UNL     1      43.397 -12.089   6.595  1.00  0.00     0.253 C 
HETATM   25  N   UNL     1      43.765 -13.391   6.319  1.00  0.00    -0.357 N 
HETATM   26  H   UNL     1      44.632 -13.736   6.723  1.00  0.00     0.162 HD
HETATM   27  O   UNL     1      42.285 -11.630   6.375  1.00  0.00    -0.268 OA
BRANCH  25  28
HETATM   28  C   UNL     1      42.786 -14.373   5.891  1.00  0.00     0.125 C 
BRANCH  28  29
HETATM   29  C   UNL     1      42.126 -15.059   7.082  1.00  0.00     0.046 C 
BRANCH  29  30
HETATM   30  C   UNL     1      43.130 -15.877   7.879  1.00  0.00     0.165 C 
BRANCH  30  31
HETATM   31  O   UNL     1      43.120 -17.228   7.439  1.00  0.00    -0.401 OA
HETATM   32  H   UNL     1      42.396 -17.328   6.796  1.00  0.00     0.209 HD
ENDBRANCH  30  31
ENDBRANCH  29  30
ENDBRANCH  28  29
ENDBRANCH  25  28
ENDBRANCH  19  24
ENDBRANCH   1  18
TORSDOF 11
ENDMDL
