MODEL 1
REMARK VINA RESULT:      -8.1      0.000      0.000
REMARK  7 active torsions:
REMARK  status: ('A' for Active; 'I' for Inactive)
REMARK    1  A    between atoms: N_3  and  C_4 
REMARK    2  A    between atoms: C_12  and  C_13 
REMARK       I    between atoms: C_13  and  N_14 
REMARK    3  A    between atoms: N_14  and  C_15 
REMARK    4  A    between atoms: C_15  and  C_16 
REMARK    5  A    between atoms: C_16  and  O_17 
REMARK    6  A    between atoms: C_16  and  C_18 
REMARK    7  A    between atoms: C_21  and  O_22 
ROOT
HETATM    1  C   UNL     1      41.551 -13.654   4.094  1.00  0.00     0.255 C 
HETATM    2  N   UNL     1      42.025 -14.046   2.867  1.00  0.00    -0.350 N 
HETATM    3  O   UNL     1      40.609 -14.219   4.640  1.00  0.00    -0.268 OA
HETATM    4  H   UNL     1      42.915 -13.687   2.547  1.00  0.00     0.163 HD
ENDROOT
BRANCH   2   5
HETATM    5  C   UNL     1      41.470 -15.180   2.125  1.00  0.00     0.114 C 
HETATM    6  C   UNL     1      40.602 -14.679   0.963  1.00  0.00     0.035 C 
BRANCH   5   7
HETATM    7  C   UNL     1      42.603 -16.118   1.604  1.00  0.00     0.173 C 
BRANCH   7   8
HETATM    8  O   UNL     1      43.724 -15.312   1.202  1.00  0.00    -0.389 OA
HETATM    9  H   UNL     1      43.778 -14.563   1.818  1.00  0.00     0.210 HD
ENDBRANCH   7   8
BRANCH   7  10
HETATM   10  C   UNL     1      43.093 -17.174   2.588  1.00  0.00    -0.028 A 
HETATM   11  C   UNL     1      43.178 -18.530   2.242  1.00  0.00     0.012 A 
HETATM   12  C   UNL     1      43.664 -19.476   3.153  1.00  0.00     0.037 A 
HETATM   13  C   UNL     1      44.094 -19.093   4.424  1.00  0.00     0.068 A 
HETATM   14  C   UNL     1      44.035 -17.748   4.777  1.00  0.00     0.037 A 
HETATM   15  C   UNL     1      43.547 -16.802   3.866  1.00  0.00     0.012 A 
BRANCH  13  16
HETATM   16  O   UNL     1      44.547 -20.114   5.211  1.00  0.00    -0.356 OA
HETATM   17  C   UNL     1      43.845 -21.348   5.126  1.00  0.00     0.210 C 
ENDBRANCH  13  16
ENDBRANCH   7  10
ENDBRANCH   5   7
ENDBRANCH   2   5
BRANCH   1  18
HETATM   18  C   UNL     1      42.256 -12.558   4.746  1.00  0.00     0.075 C 
HETATM   19  C   UNL     1      43.089 -12.513   5.862  1.00  0.00     0.051 C 
HETATM   20  C   UNL     1      43.636 -13.597   6.727  1.00  0.00     0.071 C 
HETATM   21  N   UNL     1      43.399 -11.164   6.064  1.00  0.00    -0.220 N 
HETATM   22  N   UNL     1      42.956 -10.397   5.029  1.00  0.00    -0.177 NA
HETATM   23  C   UNL     1      42.253 -11.230   4.271  1.00  0.00     0.158 C 
BRANCH  21  24
HETATM   24  C   UNL     1      44.075 -10.551   7.175  1.00  0.00     0.150 A 
HETATM   25  N   UNL     1      43.344 -10.015   8.189  1.00  0.00    -0.241 NA
HETATM   26  C   UNL     1      44.019  -9.424   9.201  1.00  0.00     0.119 A 
HETATM   27  C   UNL     1      45.398  -9.340   9.264  1.00  0.00     0.019 A 
HETATM   28  C   UNL     1      46.136  -9.890   8.226  1.00  0.00     0.005 A 
HETATM   29  C   UNL     1      45.472 -10.499   7.163  1.00  0.00     0.052 A 
ENDBRANCH  21  24
ENDBRANCH   1  18
TORSDOF 7
ENDMDL
MODEL 2
REMARK VINA RESULT:      -7.8      2.776      7.108
REMARK  7 active torsions:
REMARK  status: ('A' for Active; 'I' for Inactive)
REMARK    1  A    between atoms: N_3  and  C_4 
REMARK    2  A    between atoms: C_12  and  C_13 
REMARK       I    between atoms: C_13  and  N_14 
REMARK    3  A    between atoms: N_14  and  C_15 
REMARK    4  A    between atoms: C_15  and  C_16 
REMARK    5  A    between atoms: C_16  and  O_17 
REMARK    6  A    between atoms: C_16  and  C_18 
REMARK    7  A    between atoms: C_21  and  O_22 
ROOT
HETATM    1  C   UNL     1      42.462 -13.381   2.570  1.00  0.00     0.255 C 
HETATM    2  N   UNL     1      41.938 -13.407   3.838  1.00  0.00    -0.350 N 
HETATM    3  O   UNL     1      43.638 -13.652   2.344  1.00  0.00    -0.268 OA
HETATM    4  H   UNL     1      40.934 -13.372   3.954  1.00  0.00     0.163 HD
ENDROOT
BRANCH   2   5
HETATM    5  C   UNL     1      42.723 -13.786   5.015  1.00  0.00     0.114 C 
HETATM    6  C   UNL     1      42.573 -12.726   6.115  1.00  0.00     0.035 C 
BRANCH   5   7
HETATM    7  C   UNL     1      42.300 -15.192   5.543  1.00  0.00     0.173 C 
BRANCH   7   8
HETATM    8  O   UNL     1      40.865 -15.273   5.550  1.00  0.00    -0.389 OA
HETATM    9  H   UNL     1      40.592 -15.486   6.458  1.00  0.00     0.210 HD
ENDBRANCH   7   8
BRANCH   7  10
HETATM   10  C   UNL     1      42.849 -16.383   4.764  1.00  0.00    -0.028 A 
HETATM   11  C   UNL     1      43.857 -17.209   5.282  1.00  0.00     0.012 A 
HETATM   12  C   UNL     1      44.320 -18.317   4.561  1.00  0.00     0.037 A 
HETATM   13  C   UNL     1      43.779 -18.640   3.317  1.00  0.00     0.068 A 
HETATM   14  C   UNL     1      42.764 -17.842   2.797  1.00  0.00     0.037 A 
HETATM   15  C   UNL     1      42.302 -16.733   3.517  1.00  0.00     0.012 A 
BRANCH  13  16
HETATM   16  O   UNL     1      44.319 -19.746   2.724  1.00  0.00    -0.356 OA
HETATM   17  C   UNL     1      43.514 -20.413   1.758  1.00  0.00     0.210 C 
ENDBRANCH  13  16
ENDBRANCH   7  10
ENDBRANCH   5   7
ENDBRANCH   2   5
BRANCH   1  18
HETATM   18  C   UNL     1      41.539 -13.062   1.489  1.00  0.00     0.075 C 
HETATM   19  C   UNL     1      40.600 -13.830   0.802  1.00  0.00     0.051 C 
HETATM   20  C   UNL     1      40.137 -15.232   1.006  1.00  0.00     0.071 C 
HETATM   21  N   UNL     1      40.074 -13.002  -0.194  1.00  0.00    -0.220 N 
HETATM   22  N   UNL     1      40.500 -11.716  -0.044  1.00  0.00    -0.177 NA
HETATM   23  C   UNL     1      41.392 -11.773   0.937  1.00  0.00     0.158 C 
BRANCH  21  24
HETATM   24  C   UNL     1      39.204 -13.347  -1.287  1.00  0.00     0.150 A 
HETATM   25  N   UNL     1      38.038 -12.666  -1.454  1.00  0.00    -0.241 NA
HETATM   26  C   UNL     1      37.237 -13.040  -2.477  1.00  0.00     0.119 A 
HETATM   27  C   UNL     1      37.537 -14.064  -3.358  1.00  0.00     0.019 A 
HETATM   28  C   UNL     1      38.729 -14.753  -3.180  1.00  0.00     0.005 A 
HETATM   29  C   UNL     1      39.574 -14.398  -2.131  1.00  0.00     0.052 A 
ENDBRANCH  21  24
ENDBRANCH   1  18
TORSDOF 7
ENDMDL
MODEL 3
REMARK VINA RESULT:      -7.7      4.175      9.892
REMARK  7 active torsions:
REMARK  status: ('A' for Active; 'I' for Inactive)
REMARK    1  A    between atoms: N_3  and  C_4 
REMARK    2  A    between atoms: C_12  and  C_13 
REMARK       I    between atoms: C_13  and  N_14 
REMARK    3  A    between atoms: N_14  and  C_15 
REMARK    4  A    between atoms: C_15  and  C_16 
REMARK    5  A    between atoms: C_16  and  O_17 
REMARK    6  A    between atoms: C_16  and  C_18 
REMARK    7  A    between atoms: C_21  and  O_22 
ROOT
HETATM    1  C   UNL     1      44.091 -11.625   7.605  1.00  0.00     0.255 C 
HETATM    2  N   UNL     1      43.099 -10.909   8.228  1.00  0.00    -0.350 N 
HETATM    3  O   UNL     1      45.280 -11.439   7.847  1.00  0.00    -0.268 OA
HETATM    4  H   UNL     1      42.142 -11.226   8.148  1.00  0.00     0.163 HD
ENDROOT
BRANCH   2   5
HETATM    5  C   UNL     1      43.372  -9.893   9.246  1.00  0.00     0.114 C 
HETATM    6  C   UNL     1      42.240  -8.857   9.276  1.00  0.00     0.035 C 
BRANCH   5   7
HETATM    7  C   UNL     1      43.562 -10.543  10.652  1.00  0.00     0.173 C 
BRANCH   7   8
HETATM    8  O   UNL     1      44.954 -10.856  10.834  1.00  0.00    -0.389 OA
HETATM    9  H   UNL     1      45.398 -10.705   9.983  1.00  0.00     0.210 HD
ENDBRANCH   7   8
BRANCH   7  10
HETATM   10  C   UNL     1      43.094  -9.706  11.837  1.00  0.00    -0.028 A 
HETATM   11  C   UNL     1      43.705  -8.489  12.174  1.00  0.00     0.012 A 
HETATM   12  C   UNL     1      43.234  -7.721  13.246  1.00  0.00     0.037 A 
HETATM   13  C   UNL     1      42.135  -8.137  13.998  1.00  0.00     0.068 A 
HETATM   14  C   UNL     1      41.505  -9.332  13.664  1.00  0.00     0.037 A 
HETATM   15  C   UNL     1      41.977 -10.101  12.592  1.00  0.00     0.012 A 
BRANCH  13  16
HETATM   16  O   UNL     1      41.779  -7.293  15.012  1.00  0.00    -0.356 OA
HETATM   17  C   UNL     1      41.274  -7.895  16.199  1.00  0.00     0.210 C 
ENDBRANCH  13  16
ENDBRANCH   7  10
ENDBRANCH   5   7
ENDBRANCH   2   5
BRANCH   1  18
HETATM   18  C   UNL     1      43.662 -12.659   6.672  1.00  0.00     0.075 C 
HETATM   19  C   UNL     1      43.467 -12.652   5.292  1.00  0.00     0.051 C 
HETATM   20  C   UNL     1      43.728 -11.603   4.266  1.00  0.00     0.071 C 
HETATM   21  N   UNL     1      42.964 -13.915   4.964  1.00  0.00    -0.220 N 
HETATM   22  N   UNL     1      43.013 -14.759   6.033  1.00  0.00    -0.177 NA
HETATM   23  C   UNL     1      43.398 -13.992   7.046  1.00  0.00     0.158 C 
BRANCH  21  24
HETATM   24  C   UNL     1      42.429 -14.375   3.710  1.00  0.00     0.150 A 
HETATM   25  N   UNL     1      41.125 -14.130   3.410  1.00  0.00    -0.241 NA
HETATM   26  C   UNL     1      40.655 -14.603   2.233  1.00  0.00     0.119 A 
HETATM   27  C   UNL     1      41.422 -15.310   1.324  1.00  0.00     0.019 A 
HETATM   28  C   UNL     1      42.751 -15.554   1.639  1.00  0.00     0.005 A 
HETATM   29  C   UNL     1      43.265 -15.088   2.847  1.00  0.00     0.052 A 
ENDBRANCH  21  24
ENDBRANCH   1  18
TORSDOF 7
ENDMDL
MODEL 4
REMARK VINA RESULT:      -7.6      1.715      2.548
REMARK  7 active torsions:
REMARK  status: ('A' for Active; 'I' for Inactive)
REMARK    1  A    between atoms: N_3  and  C_4 
REMARK    2  A    between atoms: C_12  and  C_13 
REMARK       I    between atoms: C_13  and  N_14 
REMARK    3  A    between atoms: N_14  and  C_15 
REMARK    4  A    between atoms: C_15  and  C_16 
REMARK    5  A    between atoms: C_16  and  O_17 
REMARK    6  A    between atoms: C_16  and  C_18 
REMARK    7  A    between atoms: C_21  and  O_22 
ROOT
HETATM    1  C   UNL     1      43.104 -12.088   4.488  1.00  0.00     0.255 C 
HETATM    2  N   UNL     1      42.809 -13.415   4.305  1.00  0.00    -0.350 N 
HETATM    3  O   UNL     1      43.025 -11.269   3.577  1.00  0.00    -0.268 OA
HETATM    4  H   UNL     1      42.697 -14.009   5.116  1.00  0.00     0.163 HD
ENDROOT
BRANCH   2   5
HETATM    5  C   UNL     1      42.348 -13.958   3.025  1.00  0.00     0.114 C 
HETATM    6  C   UNL     1      43.538 -14.158   2.076  1.00  0.00     0.035 C 
BRANCH   5   7
HETATM    7  C   UNL     1      41.573 -15.297   3.229  1.00  0.00     0.173 C 
BRANCH   7   8
HETATM    8  O   UNL     1      40.811 -15.577   2.043  1.00  0.00    -0.389 OA
HETATM    9  H   UNL     1      40.138 -14.882   1.961  1.00  0.00     0.210 HD
ENDBRANCH   7   8
BRANCH   7  10
HETATM   10  C   UNL     1      42.432 -16.515   3.553  1.00  0.00    -0.028 A 
HETATM   11  C   UNL     1      42.913 -16.762   4.847  1.00  0.00     0.012 A 
HETATM   12  C   UNL     1      43.671 -17.906   5.125  1.00  0.00     0.037 A 
HETATM   13  C   UNL     1      43.953 -18.840   4.129  1.00  0.00     0.068 A 
HETATM   14  C   UNL     1      43.466 -18.621   2.844  1.00  0.00     0.037 A 
HETATM   15  C   UNL     1      42.709 -17.475   2.565  1.00  0.00     0.012 A 
BRANCH  13  16
HETATM   16  O   UNL     1      44.698 -19.911   4.537  1.00  0.00    -0.356 OA
HETATM   17  C   UNL     1      44.019 -20.920   5.275  1.00  0.00     0.210 C 
ENDBRANCH  13  16
ENDBRANCH   7  10
ENDBRANCH   5   7
ENDBRANCH   2   5
BRANCH   1  18
HETATM   18  C   UNL     1      43.473 -11.682   5.838  1.00  0.00     0.075 C 
HETATM   19  C   UNL     1      42.825 -10.897   6.790  1.00  0.00     0.051 C 
HETATM   20  C   UNL     1      41.470 -10.277   6.797  1.00  0.00     0.071 C 
HETATM   21  N   UNL     1      43.708 -10.784   7.869  1.00  0.00    -0.220 N 
HETATM   22  N   UNL     1      44.785 -11.605   7.713  1.00  0.00    -0.177 NA
HETATM   23  C   UNL     1      44.649 -12.107   6.491  1.00  0.00     0.158 C 
BRANCH  21  24
HETATM   24  C   UNL     1      43.608  -9.943   9.032  1.00  0.00     0.150 A 
HETATM   25  N   UNL     1      43.451  -8.601   8.874  1.00  0.00    -0.241 NA
HETATM   26  C   UNL     1      43.388  -7.844   9.993  1.00  0.00     0.119 A 
HETATM   27  C   UNL     1      43.468  -8.355  11.276  1.00  0.00     0.019 A 
HETATM   28  C   UNL     1      43.628  -9.725  11.427  1.00  0.00     0.005 A 
HETATM   29  C   UNL     1      43.705 -10.534  10.295  1.00  0.00     0.052 A 
ENDBRANCH  21  24
ENDBRANCH   1  18
TORSDOF 7
ENDMDL
MODEL 5
REMARK VINA RESULT:      -7.3      4.766      7.740
REMARK  7 active torsions:
REMARK  status: ('A' for Active; 'I' for Inactive)
REMARK    1  A    between atoms: N_3  and  C_4 
REMARK    2  A    between atoms: C_12  and  C_13 
REMARK       I    between atoms: C_13  and  N_14 
REMARK    3  A    between atoms: N_14  and  C_15 
REMARK    4  A    between atoms: C_15  and  C_16 
REMARK    5  A    between atoms: C_16  and  O_17 
REMARK    6  A    between atoms: C_16  and  C_18 
REMARK    7  A    between atoms: C_21  and  O_22 
ROOT
HETATM    1  C   UNL     1      40.364 -13.332   0.207  1.00  0.00     0.255 C 
HETATM    2  N   UNL     1      41.232 -14.394   0.250  1.00  0.00    -0.350 N 
HETATM    3  O   UNL     1      39.765 -12.937   1.204  1.00  0.00    -0.268 OA
HETATM    4  H   UNL     1      41.845 -14.558  -0.537  1.00  0.00     0.163 HD
ENDROOT
BRANCH   2   5
HETATM    5  C   UNL     1      41.540 -15.119   1.484  1.00  0.00     0.114 C 
HETATM    6  C   UNL     1      40.448 -16.159   1.773  1.00  0.00     0.035 C 
BRANCH   5   7
HETATM    7  C   UNL     1      42.942 -15.800   1.400  1.00  0.00     0.173 C 
BRANCH   7   8
HETATM    8  O   UNL     1      43.953 -14.779   1.385  1.00  0.00    -0.389 OA
HETATM    9  H   UNL     1      43.629 -14.042   1.928  1.00  0.00     0.210 HD
ENDBRANCH   7   8
BRANCH   7  10
HETATM   10  C   UNL     1      43.266 -16.786   2.517  1.00  0.00    -0.028 A 
HETATM   11  C   UNL     1      43.359 -16.385   3.858  1.00  0.00     0.012 A 
HETATM   12  C   UNL     1      43.624 -17.317   4.870  1.00  0.00     0.037 A 
HETATM   13  C   UNL     1      43.785 -18.670   4.575  1.00  0.00     0.068 A 
HETATM   14  C   UNL     1      43.675 -19.088   3.252  1.00  0.00     0.037 A 
HETATM   15  C   UNL     1      43.412 -18.156   2.240  1.00  0.00     0.012 A 
BRANCH  13  16
HETATM   16  O   UNL     1      44.035 -19.470   5.654  1.00  0.00    -0.356 OA
HETATM   17  C   UNL     1      44.129 -20.868   5.409  1.00  0.00     0.210 C 
ENDBRANCH  13  16
ENDBRANCH   7  10
ENDBRANCH   5   7
ENDBRANCH   2   5
BRANCH   1  18
HETATM   18  C   UNL     1      40.219 -12.659  -1.077  1.00  0.00     0.075 C 
HETATM   19  C   UNL     1      40.244 -11.312  -1.436  1.00  0.00     0.051 C 
HETATM   20  C   UNL     1      40.531 -10.086  -0.639  1.00  0.00     0.071 C 
HETATM   21  N   UNL     1      39.961 -11.269  -2.805  1.00  0.00    -0.220 N 
HETATM   22  N   UNL     1      39.945 -12.520  -3.346  1.00  0.00    -0.177 NA
HETATM   23  C   UNL     1      40.068 -13.335  -2.305  1.00  0.00     0.158 C 
BRANCH  21  24
HETATM   24  C   UNL     1      39.691 -10.125  -3.634  1.00  0.00     0.150 A 
HETATM   25  N   UNL     1      38.402  -9.768  -3.882  1.00  0.00    -0.241 NA
HETATM   26  C   UNL     1      38.193  -8.702  -4.688  1.00  0.00     0.119 A 
HETATM   27  C   UNL     1      39.208  -7.960  -5.265  1.00  0.00     0.019 A 
HETATM   28  C   UNL     1      40.520  -8.331  -5.006  1.00  0.00     0.005 A 
HETATM   29  C   UNL     1      40.771  -9.429  -4.186  1.00  0.00     0.052 A 
ENDBRANCH  21  24
ENDBRANCH   1  18
TORSDOF 7
ENDMDL
MODEL 6
REMARK VINA RESULT:      -7.3      1.770      2.438
REMARK  7 active torsions:
REMARK  status: ('A' for Active; 'I' for Inactive)
REMARK    1  A    between atoms: N_3  and  C_4 
REMARK    2  A    between atoms: C_12  and  C_13 
REMARK       I    between atoms: C_13  and  N_14 
REMARK    3  A    between atoms: N_14  and  C_15 
REMARK    4  A    between atoms: C_15  and  C_16 
REMARK    5  A    between atoms: C_16  and  O_17 
REMARK    6  A    between atoms: C_16  and  C_18 
REMARK    7  A    between atoms: C_21  and  O_22 
ROOT
HETATM    1  C   UNL     1      40.270 -12.273   3.095  1.00  0.00     0.255 C 
HETATM    2  N   UNL     1      40.782 -13.056   2.090  1.00  0.00    -0.350 N 
HETATM    3  O   UNL     1      39.065 -12.203   3.318  1.00  0.00    -0.268 OA
HETATM    4  H   UNL     1      41.776 -13.238   2.068  1.00  0.00     0.163 HD
ENDROOT
BRANCH   2   5
HETATM    5  C   UNL     1      39.943 -13.889   1.226  1.00  0.00     0.114 C 
HETATM    6  C   UNL     1      40.537 -13.952  -0.188  1.00  0.00     0.035 C 
BRANCH   5   7
HETATM    7  C   UNL     1      39.777 -15.323   1.819  1.00  0.00     0.173 C 
BRANCH   7   8
HETATM    8  O   UNL     1      39.458 -16.232   0.752  1.00  0.00    -0.389 OA
HETATM    9  H   UNL     1      39.614 -15.763  -0.084  1.00  0.00     0.210 HD
ENDBRANCH   7   8
BRANCH   7  10
HETATM   10  C   UNL     1      40.982 -15.869   2.577  1.00  0.00    -0.028 A 
HETATM   11  C   UNL     1      40.921 -16.179   3.944  1.00  0.00     0.012 A 
HETATM   12  C   UNL     1      42.031 -16.712   4.610  1.00  0.00     0.037 A 
HETATM   13  C   UNL     1      43.223 -16.966   3.929  1.00  0.00     0.068 A 
HETATM   14  C   UNL     1      43.293 -16.683   2.568  1.00  0.00     0.037 A 
HETATM   15  C   UNL     1      42.183 -16.148   1.903  1.00  0.00     0.012 A 
BRANCH  13  16
HETATM   16  O   UNL     1      44.225 -17.489   4.697  1.00  0.00    -0.356 OA
HETATM   17  C   UNL     1      43.900 -18.627   5.487  1.00  0.00     0.210 C 
ENDBRANCH  13  16
ENDBRANCH   7  10
ENDBRANCH   5   7
ENDBRANCH   2   5
BRANCH   1  18
HETATM   18  C   UNL     1      41.235 -11.562   3.923  1.00  0.00     0.075 C 
HETATM   19  C   UNL     1      42.329 -11.997   4.670  1.00  0.00     0.051 C 
HETATM   20  C   UNL     1      42.960 -13.340   4.800  1.00  0.00     0.071 C 
HETATM   21  N   UNL     1      42.825 -10.867   5.328  1.00  0.00    -0.220 N 
HETATM   22  N   UNL     1      42.214  -9.731   4.888  1.00  0.00    -0.177 NA
HETATM   23  C   UNL     1      41.252 -10.161   4.079  1.00  0.00     0.158 C 
BRANCH  21  24
HETATM   24  C   UNL     1      43.829 -10.790   6.356  1.00  0.00     0.150 A 
HETATM   25  N   UNL     1      45.135 -10.984   6.029  1.00  0.00    -0.241 NA
HETATM   26  C   UNL     1      46.044 -10.930   7.028  1.00  0.00     0.119 A 
HETATM   27  C   UNL     1      45.723 -10.685   8.352  1.00  0.00     0.019 A 
HETATM   28  C   UNL     1      44.388 -10.488   8.675  1.00  0.00     0.005 A 
HETATM   29  C   UNL     1      43.424 -10.545   7.671  1.00  0.00     0.052 A 
ENDBRANCH  21  24
ENDBRANCH   1  18
TORSDOF 7
ENDMDL
MODEL 7
REMARK VINA RESULT:      -7.3      2.064      5.129
REMARK  7 active torsions:
REMARK  status: ('A' for Active; 'I' for Inactive)
REMARK    1  A    between atoms: N_3  and  C_4 
REMARK    2  A    between atoms: C_12  and  C_13 
REMARK       I    between atoms: C_13  and  N_14 
REMARK    3  A    between atoms: N_14  and  C_15 
REMARK    4  A    between atoms: C_15  and  C_16 
REMARK    5  A    between atoms: C_16  and  O_17 
REMARK    6  A    between atoms: C_16  and  C_18 
REMARK    7  A    between atoms: C_21  and  O_22 
ROOT
HETATM    1  C   UNL     1      43.068 -14.095   3.778  1.00  0.00     0.255 C 
HETATM    2  N   UNL     1      42.566 -15.369   3.878  1.00  0.00    -0.350 N 
HETATM    3  O   UNL     1      43.226 -13.539   2.696  1.00  0.00    -0.268 OA
HETATM    4  H   UNL     1      42.270 -15.709   4.783  1.00  0.00     0.163 HD
ENDROOT
BRANCH   2   5
HETATM    5  C   UNL     1      42.153 -16.154   2.714  1.00  0.00     0.114 C 
HETATM    6  C   UNL     1      42.598 -17.614   2.874  1.00  0.00     0.035 C 
BRANCH   5   7
HETATM    7  C   UNL     1      40.609 -16.068   2.499  1.00  0.00     0.173 C 
BRANCH   7   8
HETATM    8  O   UNL     1      39.963 -16.031   3.783  1.00  0.00    -0.389 OA
HETATM    9  H   UNL     1      40.213 -15.195   4.208  1.00  0.00     0.210 HD
ENDBRANCH   7   8
BRANCH   7  10
HETATM   10  C   UNL     1      40.121 -14.881   1.676  1.00  0.00    -0.028 A 
HETATM   11  C   UNL     1      39.710 -13.681   2.275  1.00  0.00     0.012 A 
HETATM   12  C   UNL     1      39.298 -12.593   1.496  1.00  0.00     0.037 A 
HETATM   13  C   UNL     1      39.302 -12.667   0.103  1.00  0.00     0.068 A 
HETATM   14  C   UNL     1      39.726 -13.843  -0.508  1.00  0.00     0.037 A 
HETATM   15  C   UNL     1      40.136 -14.932   0.272  1.00  0.00     0.012 A 
BRANCH  13  16
HETATM   16  O   UNL     1      38.879 -11.534  -0.535  1.00  0.00    -0.356 OA
HETATM   17  C   UNL     1      38.213 -11.709  -1.780  1.00  0.00     0.210 C 
ENDBRANCH  13  16
ENDBRANCH   7  10
ENDBRANCH   5   7
ENDBRANCH   2   5
BRANCH   1  18
HETATM   18  C   UNL     1      43.361 -13.409   5.030  1.00  0.00     0.075 C 
HETATM   19  C   UNL     1      43.432 -12.058   5.363  1.00  0.00     0.051 C 
HETATM   20  C   UNL     1      43.131 -10.832   4.571  1.00  0.00     0.071 C 
HETATM   21  N   UNL     1      43.842 -12.007   6.699  1.00  0.00    -0.220 N 
HETATM   22  N   UNL     1      43.849 -13.248   7.261  1.00  0.00    -0.177 NA
HETATM   23  C   UNL     1      43.593 -14.073   6.252  1.00  0.00     0.158 C 
BRANCH  21  24
HETATM   24  C   UNL     1      44.240 -10.864   7.477  1.00  0.00     0.150 A 
HETATM   25  N   UNL     1      43.291 -10.128   8.117  1.00  0.00    -0.241 NA
HETATM   26  C   UNL     1      43.704  -9.047   8.815  1.00  0.00     0.119 A 
HETATM   27  C   UNL     1      45.027  -8.654   8.918  1.00  0.00     0.019 A 
HETATM   28  C   UNL     1      45.988  -9.410   8.263  1.00  0.00     0.005 A 
HETATM   29  C   UNL     1      45.595 -10.527   7.528  1.00  0.00     0.052 A 
ENDBRANCH  21  24
ENDBRANCH   1  18
TORSDOF 7
ENDMDL
MODEL 8
REMARK VINA RESULT:      -7.3      2.949      8.813
REMARK  7 active torsions:
REMARK  status: ('A' for Active; 'I' for Inactive)
REMARK    1  A    between atoms: N_3  and  C_4 
REMARK    2  A    between atoms: C_12  and  C_13 
REMARK       I    between atoms: C_13  and  N_14 
REMARK    3  A    between atoms: N_14  and  C_15 
REMARK    4  A    between atoms: C_15  and  C_16 
REMARK    5  A    between atoms: C_16  and  O_17 
REMARK    6  A    between atoms: C_16  and  C_18 
REMARK    7  A    between atoms: C_21  and  O_22 
ROOT
HETATM    1  C   UNL     1      42.895 -12.964   4.025  1.00  0.00     0.255 C 
HETATM    2  N   UNL     1      43.505 -12.718   5.230  1.00  0.00    -0.350 N 
HETATM    3  O   UNL     1      42.279 -12.094   3.416  1.00  0.00    -0.268 OA
HETATM    4  H   UNL     1      44.159 -13.397   5.595  1.00  0.00     0.163 HD
ENDROOT
BRANCH   2   5
HETATM    5  C   UNL     1      43.498 -11.402   5.871  1.00  0.00     0.114 C 
HETATM    6  C   UNL     1      42.115 -11.111   6.469  1.00  0.00     0.035 C 
BRANCH   5   7
HETATM    7  C   UNL     1      44.605 -11.306   6.967  1.00  0.00     0.173 C 
BRANCH   7   8
HETATM    8  O   UNL     1      45.820 -10.833   6.360  1.00  0.00    -0.389 OA
HETATM    9  H   UNL     1      45.627 -10.662   5.423  1.00  0.00     0.210 HD
ENDBRANCH   7   8
BRANCH   7  10
HETATM   10  C   UNL     1      44.279 -10.412   8.159  1.00  0.00    -0.028 A 
HETATM   11  C   UNL     1      44.018 -10.938   9.432  1.00  0.00     0.012 A 
HETATM   12  C   UNL     1      43.755 -10.094  10.518  1.00  0.00     0.037 A 
HETATM   13  C   UNL     1      43.763  -8.707  10.368  1.00  0.00     0.068 A 
HETATM   14  C   UNL     1      44.041  -8.168   9.115  1.00  0.00     0.037 A 
HETATM   15  C   UNL     1      44.302  -9.012   8.029  1.00  0.00     0.012 A 
BRANCH  13  16
HETATM   16  O   UNL     1      43.495  -8.003  11.508  1.00  0.00    -0.356 OA
HETATM   17  C   UNL     1      42.939  -8.731  12.595  1.00  0.00     0.210 C 
ENDBRANCH  13  16
ENDBRANCH   7  10
ENDBRANCH   5   7
ENDBRANCH   2   5
BRANCH   1  18
HETATM   18  C   UNL     1      43.055 -14.302   3.473  1.00  0.00     0.075 C 
HETATM   19  C   UNL     1      42.865 -15.570   4.021  1.00  0.00     0.051 C 
HETATM   20  C   UNL     1      42.329 -16.000   5.343  1.00  0.00     0.071 C 
HETATM   21  N   UNL     1      43.263 -16.482   3.039  1.00  0.00    -0.220 N 
HETATM   22  N   UNL     1      43.512 -15.856   1.854  1.00  0.00    -0.177 NA
HETATM   23  C   UNL     1      43.416 -14.561   2.135  1.00  0.00     0.158 C 
BRANCH  21  24
HETATM   24  C   UNL     1      43.434 -17.907   3.148  1.00  0.00     0.150 A 
HETATM   25  N   UNL     1      44.093 -18.420   4.222  1.00  0.00    -0.241 NA
HETATM   26  C   UNL     1      44.256 -19.761   4.272  1.00  0.00     0.119 A 
HETATM   27  C   UNL     1      43.790 -20.632   3.303  1.00  0.00     0.019 A 
HETATM   28  C   UNL     1      43.119 -20.100   2.212  1.00  0.00     0.005 A 
HETATM   29  C   UNL     1      42.940 -18.721   2.125  1.00  0.00     0.052 A 
ENDBRANCH  21  24
ENDBRANCH   1  18
TORSDOF 7
ENDMDL
MODEL 9
REMARK VINA RESULT:      -7.3      3.545      6.329
REMARK  7 active torsions:
REMARK  status: ('A' for Active; 'I' for Inactive)
REMARK    1  A    between atoms: N_3  and  C_4 
REMARK    2  A    between atoms: C_12  and  C_13 
REMARK       I    between atoms: C_13  and  N_14 
REMARK    3  A    between atoms: N_14  and  C_15 
REMARK    4  A    between atoms: C_15  and  C_16 
REMARK    5  A    between atoms: C_16  and  O_17 
REMARK    6  A    between atoms: C_16  and  C_18 
REMARK    7  A    between atoms: C_21  and  O_22 
ROOT
HETATM    1  C   UNL     1      39.859 -13.239   4.878  1.00  0.00     0.255 C 
HETATM    2  N   UNL     1      40.865 -14.164   5.005  1.00  0.00    -0.350 N 
HETATM    3  O   UNL     1      39.203 -12.850   5.840  1.00  0.00    -0.268 OA
HETATM    4  H   UNL     1      41.501 -14.306   4.232  1.00  0.00     0.163 HD
ENDROOT
BRANCH   2   5
HETATM    5  C   UNL     1      41.258 -14.737   6.294  1.00  0.00     0.114 C 
HETATM    6  C   UNL     1      40.403 -15.972   6.608  1.00  0.00     0.035 C 
BRANCH   5   7
HETATM    7  C   UNL     1      42.776 -15.100   6.306  1.00  0.00     0.173 C 
BRANCH   7   8
HETATM    8  O   UNL     1      43.142 -15.518   7.632  1.00  0.00    -0.389 OA
HETATM    9  H   UNL     1      43.469 -14.733   8.103  1.00  0.00     0.210 HD
ENDBRANCH   7   8
BRANCH   7  10
HETATM   10  C   UNL     1      43.206 -16.182   5.321  1.00  0.00    -0.028 A 
HETATM   11  C   UNL     1      43.758 -17.399   5.748  1.00  0.00     0.012 A 
HETATM   12  C   UNL     1      44.112 -18.390   4.825  1.00  0.00     0.037 A 
HETATM   13  C   UNL     1      43.911 -18.202   3.458  1.00  0.00     0.068 A 
HETATM   14  C   UNL     1      43.346 -17.009   3.019  1.00  0.00     0.037 A 
HETATM   15  C   UNL     1      42.993 -16.016   3.942  1.00  0.00     0.012 A 
BRANCH  13  16
HETATM   16  O   UNL     1      44.298 -19.249   2.669  1.00  0.00    -0.356 OA
HETATM   17  C   UNL     1      43.502 -20.427   2.732  1.00  0.00     0.210 C 
ENDBRANCH  13  16
ENDBRANCH   7  10
ENDBRANCH   5   7
ENDBRANCH   2   5
BRANCH   1  18
HETATM   18  C   UNL     1      39.634 -12.699   3.543  1.00  0.00     0.075 C 
HETATM   19  C   UNL     1      39.710 -13.273   2.275  1.00  0.00     0.051 C 
HETATM   20  C   UNL     1      39.951 -14.679   1.845  1.00  0.00     0.071 C 
HETATM   21  N   UNL     1      39.474 -12.238   1.365  1.00  0.00    -0.220 N 
HETATM   22  N   UNL     1      39.075 -11.101   2.001  1.00  0.00    -0.177 NA
HETATM   23  C   UNL     1      39.206 -11.379   3.293  1.00  0.00     0.158 C 
BRANCH  21  24
HETATM   24  C   UNL     1      39.612 -12.249  -0.067  1.00  0.00     0.150 A 
HETATM   25  N   UNL     1      38.529 -12.534  -0.840  1.00  0.00    -0.241 NA
HETATM   26  C   UNL     1      38.708 -12.560  -2.181  1.00  0.00     0.119 A 
HETATM   27  C   UNL     1      39.918 -12.310  -2.803  1.00  0.00     0.019 A 
HETATM   28  C   UNL     1      41.016 -12.019  -2.007  1.00  0.00     0.005 A 
HETATM   29  C   UNL     1      40.869 -11.992  -0.621  1.00  0.00     0.052 A 
ENDBRANCH  21  24
ENDBRANCH   1  18
TORSDOF 7
ENDMDL
MODEL 10
REMARK VINA RESULT:      -7.1      3.634      7.528
REMARK  7 active torsions:
REMARK  status: ('A' for Active; 'I' for Inactive)
REMARK    1  A    between atoms: N_3  and  C_4 
REMARK    2  A    between atoms: C_12  and  C_13 
REMARK       I    between atoms: C_13  and  N_14 
REMARK    3  A    between atoms: N_14  and  C_15 
REMARK    4  A    between atoms: C_15  and  C_16 
REMARK    5  A    between atoms: C_16  and  O_17 
REMARK    6  A    between atoms: C_16  and  C_18 
REMARK    7  A    between atoms: C_21  and  O_22 
ROOT
HETATM    1  C   UNL     1      41.670 -13.689   4.868  1.00  0.00     0.255 C 
HETATM    2  N   UNL     1      41.672 -13.033   3.663  1.00  0.00    -0.350 N 
HETATM    3  O   UNL     1      41.005 -13.298   5.824  1.00  0.00    -0.268 OA
HETATM    4  H   UNL     1      42.071 -13.492   2.855  1.00  0.00     0.163 HD
ENDROOT
BRANCH   2   5
HETATM    5  C   UNL     1      40.866 -11.837   3.408  1.00  0.00     0.114 C 
HETATM    6  C   UNL     1      41.612 -10.889   2.458  1.00  0.00     0.035 C 
BRANCH   5   7
HETATM    7  C   UNL     1      39.469 -12.216   2.824  1.00  0.00     0.173 C 
BRANCH   7   8
HETATM    8  O   UNL     1      38.641 -11.041   2.804  1.00  0.00    -0.389 OA
HETATM    9  H   UNL     1      38.906 -10.487   3.556  1.00  0.00     0.210 HD
ENDBRANCH   7   8
BRANCH   7  10
HETATM   10  C   UNL     1      39.480 -12.826   1.427  1.00  0.00    -0.028 A 
HETATM   11  C   UNL     1      39.005 -12.127   0.307  1.00  0.00     0.012 A 
HETATM   12  C   UNL     1      39.057 -12.696  -0.971  1.00  0.00     0.037 A 
HETATM   13  C   UNL     1      39.598 -13.967  -1.169  1.00  0.00     0.068 A 
HETATM   14  C   UNL     1      40.092 -14.666  -0.072  1.00  0.00     0.037 A 
HETATM   15  C   UNL     1      40.038 -14.097   1.207  1.00  0.00     0.012 A 
BRANCH  13  16
HETATM   16  O   UNL     1      39.590 -14.401  -2.465  1.00  0.00    -0.356 OA
HETATM   17  C   UNL     1      38.398 -14.176  -3.208  1.00  0.00     0.210 C 
ENDBRANCH  13  16
ENDBRANCH   7  10
ENDBRANCH   5   7
ENDBRANCH   2   5
BRANCH   1  18
HETATM   18  C   UNL     1      42.460 -14.910   4.948  1.00  0.00     0.075 C 
HETATM   19  C   UNL     1      42.384 -16.122   4.263  1.00  0.00     0.051 C 
HETATM   20  C   UNL     1      41.523 -16.558   3.128  1.00  0.00     0.071 C 
HETATM   21  N   UNL     1      43.355 -16.952   4.831  1.00  0.00    -0.220 N 
HETATM   22  N   UNL     1      44.148 -16.263   5.700  1.00  0.00    -0.177 NA
HETATM   23  C   UNL     1      43.586 -15.063   5.783  1.00  0.00     0.158 C 
BRANCH  21  24
HETATM   24  C   UNL     1      43.577 -18.358   4.617  1.00  0.00     0.150 A 
HETATM   25  N   UNL     1      43.686 -19.188   5.689  1.00  0.00    -0.241 NA
HETATM   26  C   UNL     1      43.921 -20.497   5.445  1.00  0.00     0.119 A 
HETATM   27  C   UNL     1      44.050 -21.034   4.176  1.00  0.00     0.019 A 
HETATM   28  C   UNL     1      43.936 -20.180   3.089  1.00  0.00     0.005 A 
HETATM   29  C   UNL     1      43.702 -18.823   3.306  1.00  0.00     0.052 A 
ENDBRANCH  21  24
ENDBRANCH   1  18
TORSDOF 7
ENDMDL
