MODEL 1
REMARK VINA RESULT:      -8.1      0.000      0.000
REMARK  10 active torsions:
REMARK  status: ('A' for Active; 'I' for Inactive)
REMARK    1  A    between atoms: C_2  and  C_3 
REMARK    2  A    between atoms: C_3  and  C_4 
REMARK    3  A    between atoms: N_7  and  C_9 
REMARK    4  A    between atoms: C_9  and  C_10 
REMARK    5  A    between atoms: C_12  and  O_13 
REMARK    6  A    between atoms: O_13  and  C_14 
REMARK    7  A    between atoms: C_16  and  O_17 
REMARK    8  A    between atoms: N_25  and  C_26 
REMARK    9  A    between atoms: C_26  and  C_27 
REMARK   10  A    between atoms: C_27  and  C_28 
ROOT
HETATM    1  C   UNL     1      40.032 -13.340   2.877  1.00  0.00     0.026 C 
HETATM    2  C   UNL     1      40.810 -14.071   3.994  1.00  0.00     0.035 C 
HETATM    3  C   UNL     1      42.016 -14.871   3.515  1.00  0.00     0.235 C 
HETATM    4  N   UNL     1      41.610 -15.839   2.431  1.00  0.00    -0.067 N 
HETATM    5  H   UNL     1      40.997 -16.534   2.876  1.00  0.00     0.280 HD
HETATM    6  C   UNL     1      40.845 -15.199   1.299  1.00  0.00     0.235 C 
HETATM    7  C   UNL     1      39.664 -14.389   1.812  1.00  0.00     0.035 C 
ENDROOT
BRANCH   1   8
HETATM    8  C   UNL     1      40.700 -12.019   2.339  1.00  0.00     0.119 A 
HETATM    9  N   UNL     1      42.140 -12.097   2.323  1.00  0.00    -0.324 N 
HETATM   10  C   UNL     1      42.720 -11.249   3.243  1.00  0.00     0.326 A 
HETATM   11  H   UNL     1      42.719 -12.435   1.563  1.00  0.00     0.165 HD
HETATM   12  O   UNL     1      43.923 -11.223   3.432  1.00  0.00    -0.247 OA
HETATM   13  N   UNL     1      41.743 -10.562   3.889  1.00  0.00    -0.268 N 
HETATM   14  C   UNL     1      40.511 -10.915   3.406  1.00  0.00     0.256 A 
HETATM   15  O   UNL     1      39.427 -10.507   3.796  1.00  0.00    -0.270 OA
BRANCH   8  16
HETATM   16  C   UNL     1      40.135 -11.570   0.979  1.00  0.00     0.037 C 
HETATM   17  C   UNL     1      41.146 -11.559  -0.167  1.00  0.00     0.008 C 
ENDBRANCH   8  16
BRANCH  13  18
HETATM   18  C   UNL     1      41.952  -9.718   5.055  1.00  0.00     0.142 C 
BRANCH  18  19
HETATM   19  C   UNL     1      41.749 -10.436   6.392  1.00  0.00     0.068 C 
BRANCH  19  20
HETATM   20  C   UNL     1      43.054 -10.600   7.109  1.00  0.00     0.010 A 
HETATM   21  S   UNL     1      43.710  -9.309   8.037  1.00  0.00    -0.085 SA
HETATM   22  C   UNL     1      45.070 -10.280   8.401  1.00  0.00     0.166 A 
HETATM   23  N   UNL     1      45.067 -11.490   7.890  1.00  0.00    -0.258 NA
HETATM   24  C   UNL     1      43.909 -11.691   7.157  1.00  0.00     0.044 A 
HETATM   25  C   UNL     1      43.710 -13.014   6.508  1.00  0.00     0.071 C 
ENDBRANCH  19  20
ENDBRANCH  18  19
ENDBRANCH  13  18
ENDBRANCH   1   8
BRANCH   4  26
HETATM   26  C   UNL     1      42.794 -16.616   1.866  1.00  0.00     0.273 C 
BRANCH  26  27
HETATM   27  C   UNL     1      43.214 -17.830   2.650  1.00  0.00    -0.030 A 
HETATM   28  C   UNL     1      43.390 -17.732   4.046  1.00  0.00     0.048 A 
HETATM   29  C   UNL     1      43.784 -18.843   4.794  1.00  0.00     0.102 A 
HETATM   30  C   UNL     1      43.966 -20.062   4.139  1.00  0.00     0.099 A 
HETATM   31  C   UNL     1      43.803 -20.180   2.764  1.00  0.00     0.040 A 
HETATM   32  C   UNL     1      43.441 -19.061   2.014  1.00  0.00     0.012 A 
BRANCH  29  33
HETATM   33  O   UNL     1      44.001 -18.866   6.145  1.00  0.00    -0.349 OA
BRANCH  33  34
HETATM   34  C   UNL     1      43.269 -17.922   6.930  1.00  0.00     0.171 C 
HETATM   35  C   UNL     1      44.207 -16.789   7.304  1.00  0.00     0.034 C 
ENDBRANCH  33  34
ENDBRANCH  29  33
BRANCH  30  36
HETATM   36  O   UNL     1      44.324 -21.179   4.840  1.00  0.00    -0.358 OA
HETATM   37  H   UNL     1      44.308 -21.915   4.196  1.00  0.00     0.218 HD
ENDBRANCH  30  36
ENDBRANCH  26  27
ENDBRANCH   4  26
TORSDOF 10
ENDMDL
MODEL 2
REMARK VINA RESULT:      -8.0      3.318      7.920
REMARK  10 active torsions:
REMARK  status: ('A' for Active; 'I' for Inactive)
REMARK    1  A    between atoms: C_2  and  C_3 
REMARK    2  A    between atoms: C_3  and  C_4 
REMARK    3  A    between atoms: N_7  and  C_9 
REMARK    4  A    between atoms: C_9  and  C_10 
REMARK    5  A    between atoms: C_12  and  O_13 
REMARK    6  A    between atoms: O_13  and  C_14 
REMARK    7  A    between atoms: C_16  and  O_17 
REMARK    8  A    between atoms: N_25  and  C_26 
REMARK    9  A    between atoms: C_26  and  C_27 
REMARK   10  A    between atoms: C_27  and  C_28 
ROOT
HETATM    1  C   UNL     1      40.253 -13.097   4.609  1.00  0.00     0.026 C 
HETATM    2  C   UNL     1      40.342 -11.873   3.670  1.00  0.00     0.035 C 
HETATM    3  C   UNL     1      40.990 -10.639   4.286  1.00  0.00     0.235 C 
HETATM    4  N   UNL     1      40.300 -10.269   5.576  1.00  0.00    -0.067 N 
HETATM    5  H   UNL     1      39.352  -9.965   5.322  1.00  0.00     0.280 HD
HETATM    6  C   UNL     1      40.177 -11.415   6.551  1.00  0.00     0.235 C 
HETATM    7  C   UNL     1      39.549 -12.637   5.899  1.00  0.00     0.035 C 
ENDROOT
BRANCH   1   8
HETATM    8  C   UNL     1      41.596 -13.897   4.807  1.00  0.00     0.119 A 
HETATM    9  N   UNL     1      42.610 -13.517   3.854  1.00  0.00    -0.324 N 
HETATM   10  C   UNL     1      42.893 -14.529   2.961  1.00  0.00     0.326 A 
HETATM   11  H   UNL     1      43.294 -12.778   3.963  1.00  0.00     0.165 HD
HETATM   12  O   UNL     1      43.669 -14.376   2.036  1.00  0.00    -0.247 OA
HETATM   13  N   UNL     1      42.134 -15.613   3.265  1.00  0.00    -0.268 N 
HETATM   14  C   UNL     1      41.356 -15.359   4.363  1.00  0.00     0.256 A 
HETATM   15  O   UNL     1      40.538 -16.111   4.871  1.00  0.00    -0.270 OA
BRANCH   8  16
HETATM   16  C   UNL     1      42.121 -13.842   6.254  1.00  0.00     0.037 C 
HETATM   17  C   UNL     1      43.634 -13.677   6.386  1.00  0.00     0.008 C 
ENDBRANCH   8  16
BRANCH  13  18
HETATM   18  C   UNL     1      42.014 -16.802   2.437  1.00  0.00     0.142 C 
BRANCH  18  19
HETATM   19  C   UNL     1      43.355 -17.436   2.055  1.00  0.00     0.068 C 
BRANCH  19  20
HETATM   20  C   UNL     1      43.629 -18.644   2.897  1.00  0.00     0.010 A 
HETATM   21  S   UNL     1      43.431 -20.225   2.248  1.00  0.00    -0.085 SA
HETATM   22  C   UNL     1      43.872 -20.887   3.763  1.00  0.00     0.166 A 
HETATM   23  N   UNL     1      44.160 -20.021   4.707  1.00  0.00    -0.258 NA
HETATM   24  C   UNL     1      44.037 -18.730   4.219  1.00  0.00     0.044 A 
HETATM   25  C   UNL     1      44.339 -17.601   5.139  1.00  0.00     0.071 C 
ENDBRANCH  19  20
ENDBRANCH  18  19
ENDBRANCH  13  18
ENDBRANCH   1   8
BRANCH   4  26
HETATM   26  C   UNL     1      40.956  -9.081   6.272  1.00  0.00     0.273 C 
BRANCH  26  27
HETATM   27  C   UNL     1      41.770  -9.406   7.494  1.00  0.00    -0.030 A 
HETATM   28  C   UNL     1      42.982 -10.116   7.357  1.00  0.00     0.048 A 
HETATM   29  C   UNL     1      43.752 -10.434   8.476  1.00  0.00     0.102 A 
HETATM   30  C   UNL     1      43.319 -10.005   9.732  1.00  0.00     0.099 A 
HETATM   31  C   UNL     1      42.127  -9.310   9.891  1.00  0.00     0.040 A 
HETATM   32  C   UNL     1      41.342  -9.021   8.775  1.00  0.00     0.012 A 
BRANCH  29  33
HETATM   33  O   UNL     1      44.932 -11.129   8.469  1.00  0.00    -0.349 OA
BRANCH  33  34
HETATM   34  C   UNL     1      45.929 -10.692   7.542  1.00  0.00     0.171 C 
HETATM   35  C   UNL     1      46.419  -9.325   7.985  1.00  0.00     0.034 C 
ENDBRANCH  33  34
ENDBRANCH  29  33
BRANCH  30  36
HETATM   36  O   UNL     1      44.059 -10.272  10.849  1.00  0.00    -0.358 OA
HETATM   37  H   UNL     1      44.273 -11.225  10.807  1.00  0.00     0.218 HD
ENDBRANCH  30  36
ENDBRANCH  26  27
ENDBRANCH   4  26
TORSDOF 10
ENDMDL
MODEL 3
REMARK VINA RESULT:      -7.9      3.836      6.260
REMARK  10 active torsions:
REMARK  status: ('A' for Active; 'I' for Inactive)
REMARK    1  A    between atoms: C_2  and  C_3 
REMARK    2  A    between atoms: C_3  and  C_4 
REMARK    3  A    between atoms: N_7  and  C_9 
REMARK    4  A    between atoms: C_9  and  C_10 
REMARK    5  A    between atoms: C_12  and  O_13 
REMARK    6  A    between atoms: O_13  and  C_14 
REMARK    7  A    between atoms: C_16  and  O_17 
REMARK    8  A    between atoms: N_25  and  C_26 
REMARK    9  A    between atoms: C_26  and  C_27 
REMARK   10  A    between atoms: C_27  and  C_28 
ROOT
HETATM    1  C   UNL     1      44.191 -10.181   6.923  1.00  0.00     0.026 C 
HETATM    2  C   UNL     1      42.860 -10.430   6.179  1.00  0.00     0.035 C 
HETATM    3  C   UNL     1      42.253 -11.811   6.399  1.00  0.00     0.235 C 
HETATM    4  N   UNL     1      43.257 -12.887   6.065  1.00  0.00    -0.067 N 
HETATM    5  H   UNL     1      43.417 -12.831   5.051  1.00  0.00     0.280 HD
HETATM    6  C   UNL     1      44.587 -12.715   6.757  1.00  0.00     0.235 C 
HETATM    7  C   UNL     1      45.152 -11.321   6.539  1.00  0.00     0.035 C 
ENDROOT
BRANCH   1   8
HETATM    8  C   UNL     1      44.060  -9.883   8.465  1.00  0.00     0.119 A 
HETATM    9  N   UNL     1      42.769 -10.254   8.990  1.00  0.00    -0.324 N 
HETATM   10  C   UNL     1      42.025  -9.157   9.372  1.00  0.00     0.326 A 
HETATM   11  H   UNL     1      42.507 -11.157   9.369  1.00  0.00     0.165 HD
HETATM   12  O   UNL     1      40.880  -9.260   9.771  1.00  0.00    -0.247 OA
HETATM   13  N   UNL     1      42.754  -8.032   9.156  1.00  0.00    -0.268 N 
HETATM   14  C   UNL     1      43.988  -8.350   8.655  1.00  0.00     0.256 A 
HETATM   15  O   UNL     1      44.866  -7.569   8.322  1.00  0.00    -0.270 OA
BRANCH   8  16
HETATM   16  C   UNL     1      45.210 -10.485   9.294  1.00  0.00     0.037 C 
HETATM   17  C   UNL     1      45.201 -10.110  10.775  1.00  0.00     0.008 C 
ENDBRANCH   8  16
BRANCH  13  18
HETATM   18  C   UNL     1      42.238  -6.676   9.257  1.00  0.00     0.142 C 
BRANCH  18  19
HETATM   19  C   UNL     1      42.578  -5.974  10.575  1.00  0.00     0.068 C 
BRANCH  19  20
HETATM   20  C   UNL     1      41.661  -6.429  11.669  1.00  0.00     0.010 A 
HETATM   21  S   UNL     1      40.010  -5.947  11.684  1.00  0.00    -0.085 SA
HETATM   22  C   UNL     1      39.787  -6.803  13.148  1.00  0.00     0.166 A 
HETATM   23  N   UNL     1      40.846  -7.422  13.619  1.00  0.00    -0.258 NA
HETATM   24  C   UNL     1      41.925  -7.227  12.772  1.00  0.00     0.044 A 
HETATM   25  C   UNL     1      43.219  -7.866  13.127  1.00  0.00     0.071 C 
ENDBRANCH  19  20
ENDBRANCH  18  19
ENDBRANCH  13  18
ENDBRANCH   1   8
BRANCH   4  26
HETATM   26  C   UNL     1      42.723 -14.290   6.334  1.00  0.00     0.273 C 
BRANCH  26  27
HETATM   27  C   UNL     1      42.940 -15.295   5.236  1.00  0.00    -0.030 A 
HETATM   28  C   UNL     1      43.627 -16.496   5.515  1.00  0.00     0.048 A 
HETATM   29  C   UNL     1      43.844 -17.440   4.511  1.00  0.00     0.102 A 
HETATM   30  C   UNL     1      43.338 -17.192   3.235  1.00  0.00     0.099 A 
HETATM   31  C   UNL     1      42.664 -16.014   2.936  1.00  0.00     0.040 A 
HETATM   32  C   UNL     1      42.475 -15.056   3.933  1.00  0.00     0.012 A 
BRANCH  29  33
HETATM   33  O   UNL     1      44.508 -18.629   4.657  1.00  0.00    -0.349 OA
BRANCH  33  34
HETATM   34  C   UNL     1      43.908 -19.597   5.522  1.00  0.00     0.171 C 
HETATM   35  C   UNL     1      43.924 -20.939   4.811  1.00  0.00     0.034 C 
ENDBRANCH  33  34
ENDBRANCH  29  33
BRANCH  30  36
HETATM   36  O   UNL     1      43.506 -18.105   2.232  1.00  0.00    -0.358 OA
HETATM   37  H   UNL     1      43.062 -17.726   1.448  1.00  0.00     0.218 HD
ENDBRANCH  30  36
ENDBRANCH  26  27
ENDBRANCH   4  26
TORSDOF 10
ENDMDL
MODEL 4
REMARK VINA RESULT:      -7.8      3.694      8.522
REMARK  10 active torsions:
REMARK  status: ('A' for Active; 'I' for Inactive)
REMARK    1  A    between atoms: C_2  and  C_3 
REMARK    2  A    between atoms: C_3  and  C_4 
REMARK    3  A    between atoms: N_7  and  C_9 
REMARK    4  A    between atoms: C_9  and  C_10 
REMARK    5  A    between atoms: C_12  and  O_13 
REMARK    6  A    between atoms: O_13  and  C_14 
REMARK    7  A    between atoms: C_16  and  O_17 
REMARK    8  A    between atoms: N_25  and  C_26 
REMARK    9  A    between atoms: C_26  and  C_27 
REMARK   10  A    between atoms: C_27  and  C_28 
ROOT
HETATM    1  C   UNL     1      43.049 -12.831   4.022  1.00  0.00     0.026 C 
HETATM    2  C   UNL     1      43.364 -12.924   5.532  1.00  0.00     0.035 C 
HETATM    3  C   UNL     1      42.596 -11.941   6.408  1.00  0.00     0.235 C 
HETATM    4  N   UNL     1      42.790 -10.530   5.911  1.00  0.00    -0.067 N 
HETATM    5  H   UNL     1      43.779 -10.299   6.068  1.00  0.00     0.280 HD
HETATM    6  C   UNL     1      42.497 -10.356   4.441  1.00  0.00     0.235 C 
HETATM    7  C   UNL     1      43.260 -11.367   3.598  1.00  0.00     0.035 C 
ENDROOT
BRANCH   1   8
HETATM    8  C   UNL     1      41.689 -13.488   3.573  1.00  0.00     0.119 A 
HETATM    9  N   UNL     1      41.096 -14.294   4.612  1.00  0.00    -0.324 N 
HETATM   10  C   UNL     1      41.103 -15.637   4.301  1.00  0.00     0.326 A 
HETATM   11  H   UNL     1      40.451 -13.978   5.327  1.00  0.00     0.165 HD
HETATM   12  O   UNL     1      40.713 -16.484   5.083  1.00  0.00    -0.247 OA
HETATM   13  N   UNL     1      41.657 -15.803   3.072  1.00  0.00    -0.268 N 
HETATM   14  C   UNL     1      42.006 -14.592   2.537  1.00  0.00     0.256 A 
HETATM   15  O   UNL     1      42.557 -14.397   1.464  1.00  0.00    -0.270 OA
BRANCH   8  16
HETATM   16  C   UNL     1      40.689 -12.468   2.998  1.00  0.00     0.037 C 
HETATM   17  C   UNL     1      39.402 -12.301   3.805  1.00  0.00     0.008 C 
ENDBRANCH   8  16
BRANCH  13  18
HETATM   18  C   UNL     1      42.009 -17.087   2.486  1.00  0.00     0.142 C 
BRANCH  18  19
HETATM   19  C   UNL     1      43.500 -17.426   2.572  1.00  0.00     0.068 C 
BRANCH  19  20
HETATM   20  C   UNL     1      43.714 -18.674   3.371  1.00  0.00     0.010 A 
HETATM   21  S   UNL     1      44.013 -18.590   5.063  1.00  0.00    -0.085 SA
HETATM   22  C   UNL     1      44.160 -20.293   5.109  1.00  0.00     0.166 A 
HETATM   23  N   UNL     1      43.998 -20.915   3.964  1.00  0.00    -0.258 NA
HETATM   24  C   UNL     1      43.727 -19.999   2.961  1.00  0.00     0.044 A 
HETATM   25  C   UNL     1      43.495 -20.513   1.585  1.00  0.00     0.071 C 
ENDBRANCH  19  20
ENDBRANCH  18  19
ENDBRANCH  13  18
ENDBRANCH   1   8
BRANCH   4  26
HETATM   26  C   UNL     1      41.984  -9.511   6.710  1.00  0.00     0.273 C 
BRANCH  26  27
HETATM   27  C   UNL     1      42.484  -9.227   8.100  1.00  0.00    -0.030 A 
HETATM   28  C   UNL     1      41.560  -8.982   9.138  1.00  0.00     0.048 A 
HETATM   29  C   UNL     1      42.000  -8.710  10.434  1.00  0.00     0.102 A 
HETATM   30  C   UNL     1      43.371  -8.722  10.693  1.00  0.00     0.099 A 
HETATM   31  C   UNL     1      44.299  -8.954   9.686  1.00  0.00     0.040 A 
HETATM   32  C   UNL     1      43.859  -9.194   8.384  1.00  0.00     0.012 A 
BRANCH  29  33
HETATM   33  O   UNL     1      41.202  -8.443  11.514  1.00  0.00    -0.349 OA
BRANCH  33  34
HETATM   34  C   UNL     1      40.139  -9.364  11.771  1.00  0.00     0.171 C 
HETATM   35  C   UNL     1      40.445 -10.089  13.068  1.00  0.00     0.034 C 
ENDBRANCH  33  34
ENDBRANCH  29  33
BRANCH  30  36
HETATM   36  O   UNL     1      43.840  -8.488  11.955  1.00  0.00    -0.358 OA
HETATM   37  H   UNL     1      44.520  -7.791  11.863  1.00  0.00     0.218 HD
ENDBRANCH  30  36
ENDBRANCH  26  27
ENDBRANCH   4  26
TORSDOF 10
ENDMDL
MODEL 5
REMARK VINA RESULT:      -7.8      3.826      8.551
REMARK  10 active torsions:
REMARK  status: ('A' for Active; 'I' for Inactive)
REMARK    1  A    between atoms: C_2  and  C_3 
REMARK    2  A    between atoms: C_3  and  C_4 
REMARK    3  A    between atoms: N_7  and  C_9 
REMARK    4  A    between atoms: C_9  and  C_10 
REMARK    5  A    between atoms: C_12  and  O_13 
REMARK    6  A    between atoms: O_13  and  C_14 
REMARK    7  A    between atoms: C_16  and  O_17 
REMARK    8  A    between atoms: N_25  and  C_26 
REMARK    9  A    between atoms: C_26  and  C_27 
REMARK   10  A    between atoms: C_27  and  C_28 
ROOT
HETATM    1  C   UNL     1      41.662 -14.713   5.584  1.00  0.00     0.026 C 
HETATM    2  C   UNL     1      40.915 -13.372   5.757  1.00  0.00     0.035 C 
HETATM    3  C   UNL     1      41.816 -12.148   5.870  1.00  0.00     0.235 C 
HETATM    4  N   UNL     1      42.828 -12.337   6.973  1.00  0.00    -0.067 N 
HETATM    5  H   UNL     1      42.298 -12.352   7.854  1.00  0.00     0.280 HD
HETATM    6  C   UNL     1      43.603 -13.628   6.873  1.00  0.00     0.235 C 
HETATM    7  C   UNL     1      42.677 -14.826   6.737  1.00  0.00     0.035 C 
ENDROOT
BRANCH   1   8
HETATM    8  C   UNL     1      42.229 -14.992   4.141  1.00  0.00     0.119 A 
HETATM    9  N   UNL     1      42.867 -13.833   3.566  1.00  0.00    -0.324 N 
HETATM   10  C   UNL     1      42.165 -13.329   2.491  1.00  0.00     0.326 A 
HETATM   11  H   UNL     1      43.842 -13.573   3.656  1.00  0.00     0.165 HD
HETATM   12  O   UNL     1      42.504 -12.310   1.918  1.00  0.00    -0.247 OA
HETATM   13  N   UNL     1      41.071 -14.103   2.275  1.00  0.00    -0.268 N 
HETATM   14  C   UNL     1      41.031 -15.136   3.173  1.00  0.00     0.256 A 
HETATM   15  O   UNL     1      40.161 -15.989   3.270  1.00  0.00    -0.270 OA
BRANCH   8  16
HETATM   16  C   UNL     1      43.136 -16.235   4.080  1.00  0.00     0.037 C 
HETATM   17  C   UNL     1      43.305 -16.842   2.688  1.00  0.00     0.008 C 
ENDBRANCH   8  16
BRANCH  13  18
HETATM   18  C   UNL     1      39.992 -13.779   1.355  1.00  0.00     0.142 C 
BRANCH  18  19
HETATM   19  C   UNL     1      39.949 -14.663   0.105  1.00  0.00     0.068 C 
BRANCH  19  20
HETATM   20  C   UNL     1      39.976 -13.826  -1.137  1.00  0.00     0.010 A 
HETATM   21  S   UNL     1      40.770 -12.300  -1.146  1.00  0.00    -0.085 SA
HETATM   22  C   UNL     1      40.298 -12.079  -2.775  1.00  0.00     0.166 A 
HETATM   23  N   UNL     1      39.602 -13.056  -3.310  1.00  0.00    -0.258 NA
HETATM   24  C   UNL     1      39.422 -14.071  -2.384  1.00  0.00     0.044 A 
HETATM   25  C   UNL     1      38.667 -15.280  -2.807  1.00  0.00     0.071 C 
ENDBRANCH  19  20
ENDBRANCH  18  19
ENDBRANCH  13  18
ENDBRANCH   1   8
BRANCH   4  26
HETATM   26  C   UNL     1      43.802 -11.169   7.083  1.00  0.00     0.273 C 
BRANCH  26  27
HETATM   27  C   UNL     1      43.819 -10.453   8.406  1.00  0.00    -0.030 A 
HETATM   28  C   UNL     1      42.623  -9.904   8.918  1.00  0.00     0.048 A 
HETATM   29  C   UNL     1      42.615  -9.231  10.140  1.00  0.00     0.102 A 
HETATM   30  C   UNL     1      43.804  -9.142  10.864  1.00  0.00     0.099 A 
HETATM   31  C   UNL     1      44.994  -9.669  10.377  1.00  0.00     0.040 A 
HETATM   32  C   UNL     1      45.007 -10.313   9.140  1.00  0.00     0.012 A 
BRANCH  29  33
HETATM   33  O   UNL     1      41.525  -8.647  10.728  1.00  0.00    -0.349 OA
BRANCH  33  34
HETATM   34  C   UNL     1      40.444  -9.513  11.081  1.00  0.00     0.171 C 
HETATM   35  C   UNL     1      40.625  -9.926  12.530  1.00  0.00     0.034 C 
ENDBRANCH  33  34
ENDBRANCH  29  33
BRANCH  30  36
HETATM   36  O   UNL     1      43.831  -8.515  12.078  1.00  0.00    -0.358 OA
HETATM   37  H   UNL     1      43.057  -8.852  12.571  1.00  0.00     0.218 HD
ENDBRANCH  30  36
ENDBRANCH  26  27
ENDBRANCH   4  26
TORSDOF 10
ENDMDL
MODEL 6
REMARK VINA RESULT:      -7.7      3.921      6.509
REMARK  10 active torsions:
REMARK  status: ('A' for Active; 'I' for Inactive)
REMARK    1  A    between atoms: C_2  and  C_3 
REMARK    2  A    between atoms: C_3  and  C_4 
REMARK    3  A    between atoms: N_7  and  C_9 
REMARK    4  A    between atoms: C_9  and  C_10 
REMARK    5  A    between atoms: C_12  and  O_13 
REMARK    6  A    between atoms: O_13  and  C_14 
REMARK    7  A    between atoms: C_16  and  O_17 
REMARK    8  A    between atoms: N_25  and  C_26 
REMARK    9  A    between atoms: C_26  and  C_27 
REMARK   10  A    between atoms: C_27  and  C_28 
ROOT
HETATM    1  C   UNL     1      44.272 -10.281   6.929  1.00  0.00     0.026 C 
HETATM    2  C   UNL     1      42.951 -10.402   6.137  1.00  0.00     0.035 C 
HETATM    3  C   UNL     1      42.202 -11.713   6.341  1.00  0.00     0.235 C 
HETATM    4  N   UNL     1      43.104 -12.887   6.050  1.00  0.00    -0.067 N 
HETATM    5  H   UNL     1      43.306 -12.857   5.043  1.00  0.00     0.280 HD
HETATM    6  C   UNL     1      44.418 -12.843   6.791  1.00  0.00     0.235 C 
HETATM    7  C   UNL     1      45.128 -11.514   6.587  1.00  0.00     0.035 C 
ENDROOT
BRANCH   1   8
HETATM    8  C   UNL     1      44.115  -9.957   8.463  1.00  0.00     0.119 A 
HETATM    9  N   UNL     1      42.814 -10.317   8.972  1.00  0.00    -0.324 N 
HETATM   10  C   UNL     1      42.066  -9.213   9.322  1.00  0.00     0.326 A 
HETATM   11  H   UNL     1      42.544 -11.213   9.360  1.00  0.00     0.165 HD
HETATM   12  O   UNL     1      40.913  -9.307   9.704  1.00  0.00    -0.247 OA
HETATM   13  N   UNL     1      42.800  -8.093   9.102  1.00  0.00    -0.268 N 
HETATM   14  C   UNL     1      44.042  -8.421   8.627  1.00  0.00     0.256 A 
HETATM   15  O   UNL     1      44.928  -7.647   8.297  1.00  0.00    -0.270 OA
BRANCH   8  16
HETATM   16  C   UNL     1      45.249 -10.547   9.322  1.00  0.00     0.037 C 
HETATM   17  C   UNL     1      45.315 -10.019  10.754  1.00  0.00     0.008 C 
ENDBRANCH   8  16
BRANCH  13  18
HETATM   18  C   UNL     1      42.286  -6.734   9.171  1.00  0.00     0.142 C 
BRANCH  18  19
HETATM   19  C   UNL     1      42.624  -6.003  10.473  1.00  0.00     0.068 C 
BRANCH  19  20
HETATM   20  C   UNL     1      41.689  -6.413  11.569  1.00  0.00     0.010 A 
HETATM   21  S   UNL     1      40.014  -6.032  11.478  1.00  0.00    -0.085 SA
HETATM   22  C   UNL     1      39.777  -6.766  13.005  1.00  0.00     0.166 A 
HETATM   23  N   UNL     1      40.848  -7.275  13.570  1.00  0.00    -0.258 NA
HETATM   24  C   UNL     1      41.950  -7.091  12.751  1.00  0.00     0.044 A 
HETATM   25  C   UNL     1      43.262  -7.617  13.211  1.00  0.00     0.071 C 
ENDBRANCH  19  20
ENDBRANCH  18  19
ENDBRANCH  13  18
ENDBRANCH   1   8
BRANCH   4  26
HETATM   26  C   UNL     1      42.423 -14.227   6.307  1.00  0.00     0.273 C 
BRANCH  26  27
HETATM   27  C   UNL     1      42.650 -15.287   5.264  1.00  0.00    -0.030 A 
HETATM   28  C   UNL     1      41.829 -15.324   4.116  1.00  0.00     0.048 A 
HETATM   29  C   UNL     1      42.016 -16.301   3.138  1.00  0.00     0.102 A 
HETATM   30  C   UNL     1      43.055 -17.219   3.297  1.00  0.00     0.099 A 
HETATM   31  C   UNL     1      43.872 -17.205   4.420  1.00  0.00     0.040 A 
HETATM   32  C   UNL     1      43.663 -16.248   5.414  1.00  0.00     0.012 A 
BRANCH  29  33
HETATM   33  O   UNL     1      41.276 -16.445   1.995  1.00  0.00    -0.349 OA
BRANCH  33  34
HETATM   34  C   UNL     1      40.108 -15.630   1.878  1.00  0.00     0.171 C 
HETATM   35  C   UNL     1      40.094 -15.022   0.487  1.00  0.00     0.034 C 
ENDBRANCH  33  34
ENDBRANCH  29  33
BRANCH  30  36
HETATM   36  O   UNL     1      43.289 -18.173   2.347  1.00  0.00    -0.358 OA
HETATM   37  H   UNL     1      43.195 -17.721   1.485  1.00  0.00     0.218 HD
ENDBRANCH  30  36
ENDBRANCH  26  27
ENDBRANCH   4  26
TORSDOF 10
ENDMDL
MODEL 7
REMARK VINA RESULT:      -7.4      3.934      5.905
REMARK  10 active torsions:
REMARK  status: ('A' for Active; 'I' for Inactive)
REMARK    1  A    between atoms: C_2  and  C_3 
REMARK    2  A    between atoms: C_3  and  C_4 
REMARK    3  A    between atoms: N_7  and  C_9 
REMARK    4  A    between atoms: C_9  and  C_10 
REMARK    5  A    between atoms: C_12  and  O_13 
REMARK    6  A    between atoms: O_13  and  C_14 
REMARK    7  A    between atoms: C_16  and  O_17 
REMARK    8  A    between atoms: N_25  and  C_26 
REMARK    9  A    between atoms: C_26  and  C_27 
REMARK   10  A    between atoms: C_27  and  C_28 
ROOT
HETATM    1  C   UNL     1      39.963 -13.700   1.008  1.00  0.00     0.026 C 
HETATM    2  C   UNL     1      41.267 -13.081   1.559  1.00  0.00     0.035 C 
HETATM    3  C   UNL     1      42.502 -13.964   1.423  1.00  0.00     0.235 C 
HETATM    4  N   UNL     1      42.254 -15.317   2.043  1.00  0.00    -0.067 N 
HETATM    5  H   UNL     1      42.157 -15.160   3.055  1.00  0.00     0.280 HD
HETATM    6  C   UNL     1      40.996 -15.990   1.553  1.00  0.00     0.235 C 
HETATM    7  C   UNL     1      39.788 -15.075   1.679  1.00  0.00     0.035 C 
ENDROOT
BRANCH   1   8
HETATM    8  C   UNL     1      39.811 -13.677  -0.559  1.00  0.00     0.119 A 
HETATM    9  N   UNL     1      41.039 -13.317  -1.227  1.00  0.00    -0.324 N 
HETATM   10  C   UNL     1      40.956 -12.088  -1.846  1.00  0.00     0.326 A 
HETATM   11  H   UNL     1      41.770 -13.951  -1.529  1.00  0.00     0.165 HD
HETATM   12  O   UNL     1      41.912 -11.578  -2.400  1.00  0.00    -0.247 OA
HETATM   13  N   UNL     1      39.711 -11.582  -1.659  1.00  0.00    -0.268 N 
HETATM   14  C   UNL     1      38.941 -12.457  -0.941  1.00  0.00     0.256 A 
HETATM   15  O   UNL     1      37.787 -12.288  -0.575  1.00  0.00    -0.270 OA
BRANCH   8  16
HETATM   16  C   UNL     1      39.212 -14.978  -1.126  1.00  0.00     0.037 C 
HETATM   17  C   UNL     1      38.852 -14.929  -2.610  1.00  0.00     0.008 C 
ENDBRANCH   8  16
BRANCH  13  18
HETATM   18  C   UNL     1      39.305 -10.227  -2.000  1.00  0.00     0.142 C 
BRANCH  18  19
HETATM   19  C   UNL     1      40.207  -9.137  -1.415  1.00  0.00     0.068 C 
BRANCH  19  20
HETATM   20  C   UNL     1      40.936  -8.412  -2.504  1.00  0.00     0.010 A 
HETATM   21  S   UNL     1      40.243  -8.262  -4.071  1.00  0.00    -0.085 SA
HETATM   22  C   UNL     1      41.640  -7.424  -4.594  1.00  0.00     0.166 A 
HETATM   23  N   UNL     1      42.575  -7.245  -3.690  1.00  0.00    -0.258 NA
HETATM   24  C   UNL     1      42.178  -7.794  -2.482  1.00  0.00     0.044 A 
HETATM   25  C   UNL     1      43.100  -7.678  -1.322  1.00  0.00     0.071 C 
ENDBRANCH  19  20
ENDBRANCH  18  19
ENDBRANCH  13  18
ENDBRANCH   1   8
BRANCH   4  26
HETATM   26  C   UNL     1      43.436 -16.265   1.872  1.00  0.00     0.273 C 
BRANCH  26  27
HETATM   27  C   UNL     1      43.585 -17.323   2.931  1.00  0.00    -0.030 A 
HETATM   28  C   UNL     1      43.622 -16.948   4.291  1.00  0.00     0.048 A 
HETATM   29  C   UNL     1      43.765 -17.910   5.291  1.00  0.00     0.102 A 
HETATM   30  C   UNL     1      43.834 -19.255   4.923  1.00  0.00     0.099 A 
HETATM   31  C   UNL     1      43.806 -19.647   3.591  1.00  0.00     0.040 A 
HETATM   32  C   UNL     1      43.695 -18.681   2.590  1.00  0.00     0.012 A 
BRANCH  29  33
HETATM   33  O   UNL     1      43.829 -17.667   6.637  1.00  0.00    -0.349 OA
BRANCH  33  34
HETATM   34  C   UNL     1      43.813 -16.297   7.044  1.00  0.00     0.171 C 
HETATM   35  C   UNL     1      42.394 -15.941   7.448  1.00  0.00     0.034 C 
ENDBRANCH  33  34
ENDBRANCH  29  33
BRANCH  30  36
HETATM   36  O   UNL     1      43.946 -20.229   5.875  1.00  0.00    -0.358 OA
HETATM   37  H   UNL     1      43.221 -20.861   5.698  1.00  0.00     0.218 HD
ENDBRANCH  30  36
ENDBRANCH  26  27
ENDBRANCH   4  26
TORSDOF 10
ENDMDL
MODEL 8
REMARK VINA RESULT:      -7.3      3.983      9.004
REMARK  10 active torsions:
REMARK  status: ('A' for Active; 'I' for Inactive)
REMARK    1  A    between atoms: C_2  and  C_3 
REMARK    2  A    between atoms: C_3  and  C_4 
REMARK    3  A    between atoms: N_7  and  C_9 
REMARK    4  A    between atoms: C_9  and  C_10 
REMARK    5  A    between atoms: C_12  and  O_13 
REMARK    6  A    between atoms: O_13  and  C_14 
REMARK    7  A    between atoms: C_16  and  O_17 
REMARK    8  A    between atoms: N_25  and  C_26 
REMARK    9  A    between atoms: C_26  and  C_27 
REMARK   10  A    between atoms: C_27  and  C_28 
ROOT
HETATM    1  C   UNL     1      42.800 -11.791   4.833  1.00  0.00     0.026 C 
HETATM    2  C   UNL     1      44.328 -11.896   5.032  1.00  0.00     0.035 C 
HETATM    3  C   UNL     1      44.793 -11.804   6.480  1.00  0.00     0.235 C 
HETATM    4  N   UNL     1      44.260 -10.549   7.126  1.00  0.00    -0.067 N 
HETATM    5  H   UNL     1      44.720  -9.760   6.655  1.00  0.00     0.280 HD
HETATM    6  C   UNL     1      42.768 -10.375   6.978  1.00  0.00     0.235 C 
HETATM    7  C   UNL     1      42.334 -10.497   5.526  1.00  0.00     0.035 C 
ENDROOT
BRANCH   1   8
HETATM    8  C   UNL     1      41.981 -13.090   5.184  1.00  0.00     0.119 A 
HETATM    9  N   UNL     1      42.097 -13.458   6.573  1.00  0.00    -0.324 N 
HETATM   10  C   UNL     1      42.798 -14.632   6.747  1.00  0.00     0.326 A 
HETATM   11  H   UNL     1      41.502 -13.147   7.332  1.00  0.00     0.165 HD
HETATM   12  O   UNL     1      43.065 -15.069   7.851  1.00  0.00    -0.247 OA
HETATM   13  N   UNL     1      43.158 -15.116   5.531  1.00  0.00    -0.268 N 
HETATM   14  C   UNL     1      42.694 -14.299   4.534  1.00  0.00     0.256 A 
HETATM   15  O   UNL     1      42.876 -14.433   3.333  1.00  0.00    -0.270 OA
BRANCH   8  16
HETATM   16  C   UNL     1      40.510 -13.015   4.732  1.00  0.00     0.037 C 
HETATM   17  C   UNL     1      39.508 -12.713   5.846  1.00  0.00     0.008 C 
ENDBRANCH   8  16
BRANCH  13  18
HETATM   18  C   UNL     1      44.068 -16.230   5.316  1.00  0.00     0.142 C 
BRANCH  18  19
HETATM   19  C   UNL     1      43.454 -17.604   5.598  1.00  0.00     0.068 C 
BRANCH  19  20
HETATM   20  C   UNL     1      43.563 -18.491   4.395  1.00  0.00     0.010 A 
HETATM   21  S   UNL     1      43.213 -17.882   2.826  1.00  0.00    -0.085 SA
HETATM   22  C   UNL     1      43.526 -19.431   2.170  1.00  0.00     0.166 A 
HETATM   23  N   UNL     1      43.876 -20.359   3.030  1.00  0.00    -0.258 NA
HETATM   24  C   UNL     1      43.915 -19.830   4.310  1.00  0.00     0.044 A 
HETATM   25  C   UNL     1      44.309 -20.726   5.429  1.00  0.00     0.071 C 
ENDBRANCH  19  20
ENDBRANCH  18  19
ENDBRANCH  13  18
ENDBRANCH   1   8
BRANCH   4  26
HETATM   26  C   UNL     1      44.637 -10.443   8.600  1.00  0.00     0.273 C 
BRANCH  26  27
HETATM   27  C   UNL     1      43.943  -9.357   9.377  1.00  0.00    -0.030 A 
HETATM   28  C   UNL     1      43.205  -9.689  10.533  1.00  0.00     0.048 A 
HETATM   29  C   UNL     1      42.548  -8.701  11.267  1.00  0.00     0.102 A 
HETATM   30  C   UNL     1      42.665  -7.372  10.856  1.00  0.00     0.099 A 
HETATM   31  C   UNL     1      43.380  -7.023   9.718  1.00  0.00     0.040 A 
HETATM   32  C   UNL     1      44.010  -8.016   8.967  1.00  0.00     0.012 A 
BRANCH  29  33
HETATM   33  O   UNL     1      41.794  -8.903  12.391  1.00  0.00    -0.349 OA
BRANCH  33  34
HETATM   34  C   UNL     1      40.546  -9.578  12.214  1.00  0.00     0.171 C 
HETATM   35  C   UNL     1      39.435  -8.636  12.642  1.00  0.00     0.034 C 
ENDBRANCH  33  34
ENDBRANCH  29  33
BRANCH  30  36
HETATM   36  O   UNL     1      42.060  -6.372  11.564  1.00  0.00    -0.358 OA
HETATM   37  H   UNL     1      41.812  -6.765  12.425  1.00  0.00     0.218 HD
ENDBRANCH  30  36
ENDBRANCH  26  27
ENDBRANCH   4  26
TORSDOF 10
ENDMDL
MODEL 9
REMARK VINA RESULT:      -7.2      3.172      7.661
REMARK  10 active torsions:
REMARK  status: ('A' for Active; 'I' for Inactive)
REMARK    1  A    between atoms: C_2  and  C_3 
REMARK    2  A    between atoms: C_3  and  C_4 
REMARK    3  A    between atoms: N_7  and  C_9 
REMARK    4  A    between atoms: C_9  and  C_10 
REMARK    5  A    between atoms: C_12  and  O_13 
REMARK    6  A    between atoms: O_13  and  C_14 
REMARK    7  A    between atoms: C_16  and  O_17 
REMARK    8  A    between atoms: N_25  and  C_26 
REMARK    9  A    between atoms: C_26  and  C_27 
REMARK   10  A    between atoms: C_27  and  C_28 
ROOT
HETATM    1  C   UNL     1      41.892 -16.149   5.621  1.00  0.00     0.026 C 
HETATM    2  C   UNL     1      40.611 -15.332   5.902  1.00  0.00     0.035 C 
HETATM    3  C   UNL     1      40.784 -13.821   5.813  1.00  0.00     0.235 C 
HETATM    4  N   UNL     1      41.910 -13.365   6.707  1.00  0.00    -0.067 N 
HETATM    5  H   UNL     1      41.602 -13.534   7.673  1.00  0.00     0.280 HD
HETATM    6  C   UNL     1      43.202 -14.115   6.490  1.00  0.00     0.235 C 
HETATM    7  C   UNL     1      42.991 -15.619   6.561  1.00  0.00     0.035 C 
ENDROOT
BRANCH   1   8
HETATM    8  C   UNL     1      42.292 -16.280   4.103  1.00  0.00     0.119 A 
HETATM    9  N   UNL     1      43.247 -15.279   3.695  1.00  0.00    -0.324 N 
HETATM   10  C   UNL     1      42.707 -14.372   2.808  1.00  0.00     0.326 A 
HETATM   11  H   UNL     1      44.256 -15.354   3.738  1.00  0.00     0.165 HD
HETATM   12  O   UNL     1      43.333 -13.409   2.405  1.00  0.00    -0.247 OA
HETATM   13  N   UNL     1      41.416 -14.712   2.558  1.00  0.00    -0.268 N 
HETATM   14  C   UNL     1      41.079 -15.848   3.246  1.00  0.00     0.256 A 
HETATM   15  O   UNL     1      39.987 -16.395   3.266  1.00  0.00    -0.270 OA
BRANCH   8  16
HETATM   16  C   UNL     1      42.754 -17.700   3.723  1.00  0.00     0.037 C 
HETATM   17  C   UNL     1      42.998 -17.920   2.231  1.00  0.00     0.008 C 
ENDBRANCH   8  16
BRANCH  13  18
HETATM   18  C   UNL     1      40.467 -13.891   1.824  1.00  0.00     0.142 C 
BRANCH  18  19
HETATM   19  C   UNL     1      40.240 -14.338   0.378  1.00  0.00     0.068 C 
BRANCH  19  20
HETATM   20  C   UNL     1      39.664 -13.220  -0.438  1.00  0.00     0.010 A 
HETATM   21  S   UNL     1      38.857 -11.907   0.324  1.00  0.00    -0.085 SA
HETATM   22  C   UNL     1      38.539 -11.228  -1.213  1.00  0.00     0.166 A 
HETATM   23  N   UNL     1      38.994 -11.901  -2.244  1.00  0.00    -0.258 NA
HETATM   24  C   UNL     1      39.654 -13.040  -1.813  1.00  0.00     0.044 A 
HETATM   25  C   UNL     1      40.258 -13.932  -2.838  1.00  0.00     0.071 C 
ENDBRANCH  19  20
ENDBRANCH  18  19
ENDBRANCH  13  18
ENDBRANCH   1   8
BRANCH   4  26
HETATM   26  C   UNL     1      42.172 -11.866   6.601  1.00  0.00     0.273 C 
BRANCH  26  27
HETATM   27  C   UNL     1      43.590 -11.430   6.853  1.00  0.00    -0.030 A 
HETATM   28  C   UNL     1      43.938 -10.879   8.105  1.00  0.00     0.048 A 
HETATM   29  C   UNL     1      45.245 -10.462   8.360  1.00  0.00     0.102 A 
HETATM   30  C   UNL     1      46.210 -10.635   7.367  1.00  0.00     0.099 A 
HETATM   31  C   UNL     1      45.889 -11.169   6.126  1.00  0.00     0.040 A 
HETATM   32  C   UNL     1      44.575 -11.555   5.860  1.00  0.00     0.012 A 
BRANCH  29  33
HETATM   33  O   UNL     1      45.697  -9.902   9.525  1.00  0.00    -0.349 OA
BRANCH  33  34
HETATM   34  C   UNL     1      44.934 -10.168  10.704  1.00  0.00     0.171 C 
HETATM   35  C   UNL     1      44.141  -8.920  11.046  1.00  0.00     0.034 C 
ENDBRANCH  33  34
ENDBRANCH  29  33
BRANCH  30  36
HETATM   36  O   UNL     1      47.507 -10.265   7.588  1.00  0.00    -0.358 OA
HETATM   37  H   UNL     1      47.680  -9.519   6.981  1.00  0.00     0.218 HD
ENDBRANCH  30  36
ENDBRANCH  26  27
ENDBRANCH   4  26
TORSDOF 10
ENDMDL
MODEL 10
REMARK VINA RESULT:      -7.1      8.517     12.106
REMARK  10 active torsions:
REMARK  status: ('A' for Active; 'I' for Inactive)
REMARK    1  A    between atoms: C_2  and  C_3 
REMARK    2  A    between atoms: C_3  and  C_4 
REMARK    3  A    between atoms: N_7  and  C_9 
REMARK    4  A    between atoms: C_9  and  C_10 
REMARK    5  A    between atoms: C_12  and  O_13 
REMARK    6  A    between atoms: O_13  and  C_14 
REMARK    7  A    between atoms: C_16  and  O_17 
REMARK    8  A    between atoms: N_25  and  C_26 
REMARK    9  A    between atoms: C_26  and  C_27 
REMARK   10  A    between atoms: C_27  and  C_28 
ROOT
HETATM    1  C   UNL     1      42.143  -6.994  13.399  1.00  0.00     0.026 C 
HETATM    2  C   UNL     1      41.813  -6.131  12.161  1.00  0.00     0.035 C 
HETATM    3  C   UNL     1      41.592  -6.917  10.874  1.00  0.00     0.235 C 
HETATM    4  N   UNL     1      42.771  -7.816  10.595  1.00  0.00    -0.067 N 
HETATM    5  H   UNL     1      43.566  -7.198  10.388  1.00  0.00     0.280 HD
HETATM    6  C   UNL     1      43.155  -8.695  11.760  1.00  0.00     0.235 C 
HETATM    7  C   UNL     1      43.344  -7.884  13.032  1.00  0.00     0.035 C 
ENDROOT
BRANCH   1   8
HETATM    8  C   UNL     1      40.917  -7.732  14.056  1.00  0.00     0.119 A 
HETATM    9  N   UNL     1      39.670  -7.044  13.824  1.00  0.00    -0.324 N 
HETATM   10  C   UNL     1      39.143  -6.510  14.981  1.00  0.00     0.326 A 
HETATM   11  H   UNL     1      39.044  -7.177  13.038  1.00  0.00     0.165 HD
HETATM   12  O   UNL     1      38.133  -5.830  14.978  1.00  0.00    -0.247 OA
HETATM   13  N   UNL     1      39.960  -6.816  16.021  1.00  0.00    -0.268 N 
HETATM   14  C   UNL     1      41.021  -7.568  15.591  1.00  0.00     0.256 A 
HETATM   15  O   UNL     1      41.952  -7.975  16.269  1.00  0.00    -0.270 OA
BRANCH   8  16
HETATM   16  C   UNL     1      40.831  -9.220  13.669  1.00  0.00     0.037 C 
HETATM   17  C   UNL     1      39.690  -9.574  12.716  1.00  0.00     0.008 C 
ENDBRANCH   8  16
BRANCH  13  18
HETATM   18  C   UNL     1      39.838  -6.268  17.363  1.00  0.00     0.142 C 
BRANCH  18  19
HETATM   19  C   UNL     1      39.785  -7.326  18.468  1.00  0.00     0.068 C 
BRANCH  19  20
HETATM   20  C   UNL     1      40.624  -6.912  19.638  1.00  0.00     0.010 A 
HETATM   21  S   UNL     1      42.082  -6.032  19.401  1.00  0.00    -0.085 SA
HETATM   22  C   UNL     1      42.348  -6.043  21.091  1.00  0.00     0.166 A 
HETATM   23  N   UNL     1      41.432  -6.646  21.813  1.00  0.00    -0.258 NA
HETATM   24  C   UNL     1      40.430  -7.138  20.993  1.00  0.00     0.044 A 
HETATM   25  C   UNL     1      39.286  -7.844  21.629  1.00  0.00     0.071 C 
ENDBRANCH  19  20
ENDBRANCH  18  19
ENDBRANCH  13  18
ENDBRANCH   1   8
BRANCH   4  26
HETATM   26  C   UNL     1      42.570  -8.679   9.354  1.00  0.00     0.273 C 
BRANCH  26  27
HETATM   27  C   UNL     1      43.822  -9.245   8.741  1.00  0.00    -0.030 A 
HETATM   28  C   UNL     1      43.769 -10.481   8.062  1.00  0.00     0.048 A 
HETATM   29  C   UNL     1      44.918 -11.029   7.490  1.00  0.00     0.102 A 
HETATM   30  C   UNL     1      46.113 -10.313   7.569  1.00  0.00     0.099 A 
HETATM   31  C   UNL     1      46.190  -9.098   8.238  1.00  0.00     0.040 A 
HETATM   32  C   UNL     1      45.048  -8.567   8.838  1.00  0.00     0.012 A 
BRANCH  29  33
HETATM   33  O   UNL     1      44.992 -12.222   6.822  1.00  0.00    -0.349 OA
BRANCH  33  34
HETATM   34  C   UNL     1      43.847 -12.603   6.057  1.00  0.00     0.171 C 
HETATM   35  C   UNL     1      43.886 -11.848   4.740  1.00  0.00     0.034 C 
ENDBRANCH  33  34
ENDBRANCH  29  33
BRANCH  30  36
HETATM   36  O   UNL     1      47.254 -10.802   6.997  1.00  0.00    -0.358 OA
HETATM   37  H   UNL     1      46.964 -11.503   6.380  1.00  0.00     0.218 HD
ENDBRANCH  30  36
ENDBRANCH  26  27
ENDBRANCH   4  26
TORSDOF 10
ENDMDL
