MODEL 1
REMARK VINA RESULT:      -9.1      0.000      0.000
REMARK  6 active torsions:
REMARK  status: ('A' for Active; 'I' for Inactive)
REMARK    1  A    between atoms: C_5  and  N_6 
REMARK    2  A    between atoms: C_17  and  C_29 
REMARK    3  A    between atoms: C_17  and  N_18 
REMARK       I    between atoms: N_18  and  C_19 
REMARK    4  A    between atoms: C_19  and  C_20 
REMARK    5  A    between atoms: C_20  and  C_21 
REMARK    6  A    between atoms: C_21  and  C_22 
ROOT
HETATM    1  N   UNL     1      41.288  -9.878   7.356  1.00  0.00    -0.248 N 
HETATM    2  C   UNL     1      39.938 -10.262   7.169  1.00  0.00     0.335 A 
HETATM    3  O   UNL     1      38.946  -9.721   7.657  1.00  0.00    -0.246 OA
HETATM    4  N   UNL     1      39.724 -11.318   6.305  1.00  0.00    -0.274 N 
HETATM    5  C   UNL     1      40.656 -11.962   5.547  1.00  0.00     0.262 A 
HETATM    6  O   UNL     1      40.385 -12.825   4.724  1.00  0.00    -0.267 OA
HETATM    7  C   UNL     1      42.018 -11.554   5.806  1.00  0.00     0.101 A 
HETATM    8  C   UNL     1      42.269 -10.576   6.676  1.00  0.00     0.134 A 
HETATM    9  N   UNL     1      43.619 -10.457   6.810  1.00  0.00    -0.309 N 
HETATM   10  C   UNL     1      44.300 -11.382   6.024  1.00  0.00     0.266 A 
HETATM   11  O   UNL     1      45.511 -11.536   6.024  1.00  0.00    -0.270 OA
HETATM   12  C   UNL     1      43.251 -12.154   5.203  1.00  0.00     0.249 A 
HETATM   13  H   UNL     1      38.756 -11.561   6.150  1.00  0.00     0.173 HD
HETATM   14  H   UNL     1      44.091  -9.897   7.508  1.00  0.00     0.170 HD
ENDROOT
BRANCH  12  15
HETATM   15  C   UNL     1      43.466 -11.690   3.757  1.00  0.00     0.426 C 
HETATM   16  F   UNL     1      42.849 -10.512   3.493  1.00  0.00    -0.167 F 
HETATM   17  F   UNL     1      44.775 -11.542   3.452  1.00  0.00    -0.167 F 
HETATM   18  F   UNL     1      42.970 -12.595   2.876  1.00  0.00    -0.167 F 
ENDBRANCH  12  15
BRANCH  12  19
HETATM   19  N   UNL     1      43.307 -13.621   5.372  1.00  0.00    -0.332 N 
HETATM   20  C   UNL     1      43.403 -14.218   6.601  1.00  0.00     0.219 C 
HETATM   21  O   UNL     1      43.530 -13.561   7.633  1.00  0.00    -0.274 OA
HETATM   22  H   UNL     1      42.827 -14.147   4.647  1.00  0.00     0.164 HD
BRANCH  20  23
HETATM   23  C   UNL     1      43.263 -15.729   6.655  1.00  0.00     0.107 C 
BRANCH  23  24
HETATM   24  C   UNL     1      44.352 -16.551   5.959  1.00  0.00     0.047 C 
BRANCH  24  25
HETATM   25  C   UNL     1      43.944 -17.271   4.691  1.00  0.00    -0.058 A 
HETATM   26  C   UNL     1      44.315 -18.613   4.512  1.00  0.00     0.007 A 
HETATM   27  C   UNL     1      43.946 -19.307   3.358  1.00  0.00     0.001 A 
HETATM   28  C   UNL     1      43.196 -18.673   2.371  1.00  0.00     0.000 A 
HETATM   29  C   UNL     1      42.804 -17.349   2.545  1.00  0.00     0.001 A 
HETATM   30  C   UNL     1      43.165 -16.655   3.702  1.00  0.00     0.007 A 
ENDBRANCH  24  25
ENDBRANCH  23  24
ENDBRANCH  20  23
ENDBRANCH  12  19
BRANCH   1  31
HETATM   31  C   UNL     1      41.570  -8.738   8.193  1.00  0.00     0.045 A 
HETATM   32  C   UNL     1      41.698  -7.452   7.650  1.00  0.00     0.031 A 
HETATM   33  C   UNL     1      41.984  -6.347   8.460  1.00  0.00     0.009 A 
HETATM   34  C   UNL     1      42.166  -6.503   9.836  1.00  0.00    -0.062 A 
HETATM   35  C   UNL     1      42.453  -5.317  10.708  1.00  0.00     0.048 C 
HETATM   36  C   UNL     1      42.030  -7.777  10.391  1.00  0.00     0.009 A 
HETATM   37  C   UNL     1      41.744  -8.881   9.579  1.00  0.00     0.031 A 
ENDBRANCH   1  31
TORSDOF 6
ENDMDL
MODEL 2
REMARK VINA RESULT:      -8.9      2.737      4.106
REMARK  6 active torsions:
REMARK  status: ('A' for Active; 'I' for Inactive)
REMARK    1  A    between atoms: C_5  and  N_6 
REMARK    2  A    between atoms: C_17  and  C_29 
REMARK    3  A    between atoms: C_17  and  N_18 
REMARK       I    between atoms: N_18  and  C_19 
REMARK    4  A    between atoms: C_19  and  C_20 
REMARK    5  A    between atoms: C_20  and  C_21 
REMARK    6  A    between atoms: C_21  and  C_22 
ROOT
HETATM    1  N   UNL     1      42.463 -11.213   6.371  1.00  0.00    -0.248 N 
HETATM    2  C   UNL     1      43.719 -11.426   6.990  1.00  0.00     0.335 A 
HETATM    3  O   UNL     1      44.403 -10.584   7.572  1.00  0.00    -0.246 OA
HETATM    4  N   UNL     1      44.185 -12.726   6.980  1.00  0.00    -0.274 N 
HETATM    5  C   UNL     1      43.530 -13.832   6.527  1.00  0.00     0.262 A 
HETATM    6  O   UNL     1      43.958 -14.972   6.640  1.00  0.00    -0.267 OA
HETATM    7  C   UNL     1      42.271 -13.550   5.874  1.00  0.00     0.101 A 
HETATM    8  C   UNL     1      41.814 -12.300   5.813  1.00  0.00     0.134 A 
HETATM    9  N   UNL     1      40.676 -12.295   5.067  1.00  0.00    -0.309 N 
HETATM   10  C   UNL     1      40.357 -13.567   4.600  1.00  0.00     0.266 A 
HETATM   11  O   UNL     1      39.432 -13.819   3.844  1.00  0.00    -0.270 OA
HETATM   12  C   UNL     1      41.386 -14.547   5.193  1.00  0.00     0.249 A 
HETATM   13  H   UNL     1      45.064 -12.874   7.456  1.00  0.00     0.173 HD
HETATM   14  H   UNL     1      40.196 -11.468   4.735  1.00  0.00     0.170 HD
ENDROOT
BRANCH  12  15
HETATM   15  C   UNL     1      40.591 -15.390   6.198  1.00  0.00     0.426 C 
HETATM   16  F   UNL     1      41.368 -15.878   7.195  1.00  0.00    -0.167 F 
HETATM   17  F   UNL     1      39.583 -14.693   6.771  1.00  0.00    -0.167 F 
HETATM   18  F   UNL     1      40.018 -16.460   5.592  1.00  0.00    -0.167 F 
ENDBRANCH  12  15
BRANCH  12  19
HETATM   19  N   UNL     1      42.110 -15.351   4.185  1.00  0.00    -0.332 N 
HETATM   20  C   UNL     1      42.701 -14.792   3.083  1.00  0.00     0.219 C 
HETATM   21  O   UNL     1      42.592 -13.594   2.826  1.00  0.00    -0.274 OA
HETATM   22  H   UNL     1      42.537 -16.198   4.549  1.00  0.00     0.164 HD
BRANCH  20  23
HETATM   23  C   UNL     1      43.571 -15.693   2.224  1.00  0.00     0.107 C 
BRANCH  23  24
HETATM   24  C   UNL     1      42.975 -17.043   1.812  1.00  0.00     0.047 C 
BRANCH  24  25
HETATM   25  C   UNL     1      43.372 -18.238   2.653  1.00  0.00    -0.058 A 
HETATM   26  C   UNL     1      43.262 -19.528   2.111  1.00  0.00     0.007 A 
HETATM   27  C   UNL     1      43.628 -20.650   2.858  1.00  0.00     0.001 A 
HETATM   28  C   UNL     1      44.117 -20.497   4.153  1.00  0.00     0.000 A 
HETATM   29  C   UNL     1      44.251 -19.223   4.696  1.00  0.00     0.001 A 
HETATM   30  C   UNL     1      43.893 -18.099   3.948  1.00  0.00     0.007 A 
ENDBRANCH  24  25
ENDBRANCH  23  24
ENDBRANCH  20  23
ENDBRANCH  12  19
BRANCH   1  31
HETATM   31  C   UNL     1      41.892  -9.890   6.409  1.00  0.00     0.045 A 
HETATM   32  C   UNL     1      41.304  -9.386   7.578  1.00  0.00     0.031 A 
HETATM   33  C   UNL     1      40.738  -8.107   7.613  1.00  0.00     0.009 A 
HETATM   34  C   UNL     1      40.732  -7.302   6.471  1.00  0.00    -0.062 A 
HETATM   35  C   UNL     1      40.143  -5.923   6.513  1.00  0.00     0.048 C 
HETATM   36  C   UNL     1      41.324  -7.787   5.304  1.00  0.00     0.009 A 
HETATM   37  C   UNL     1      41.889  -9.068   5.271  1.00  0.00     0.031 A 
ENDBRANCH   1  31
TORSDOF 6
ENDMDL
MODEL 3
REMARK VINA RESULT:      -8.9      3.993      5.887
REMARK  6 active torsions:
REMARK  status: ('A' for Active; 'I' for Inactive)
REMARK    1  A    between atoms: C_5  and  N_6 
REMARK    2  A    between atoms: C_17  and  C_29 
REMARK    3  A    between atoms: C_17  and  N_18 
REMARK       I    between atoms: N_18  and  C_19 
REMARK    4  A    between atoms: C_19  and  C_20 
REMARK    5  A    between atoms: C_20  and  C_21 
REMARK    6  A    between atoms: C_21  and  C_22 
ROOT
HETATM    1  N   UNL     1      43.564 -11.979   5.296  1.00  0.00    -0.248 N 
HETATM    2  C   UNL     1      44.330 -11.839   4.113  1.00  0.00     0.335 A 
HETATM    3  O   UNL     1      45.384 -11.216   3.989  1.00  0.00    -0.246 OA
HETATM    4  N   UNL     1      43.863 -12.522   3.007  1.00  0.00    -0.274 N 
HETATM    5  C   UNL     1      42.808 -13.384   2.957  1.00  0.00     0.262 A 
HETATM    6  O   UNL     1      42.507 -14.036   1.967  1.00  0.00    -0.267 OA
HETATM    7  C   UNL     1      42.043 -13.458   4.181  1.00  0.00     0.101 A 
HETATM    8  C   UNL     1      42.430 -12.769   5.254  1.00  0.00     0.134 A 
HETATM    9  N   UNL     1      41.494 -12.932   6.230  1.00  0.00    -0.309 N 
HETATM   10  C   UNL     1      40.441 -13.739   5.807  1.00  0.00     0.266 A 
HETATM   11  O   UNL     1      39.438 -13.974   6.462  1.00  0.00    -0.270 OA
HETATM   12  C   UNL     1      40.781 -14.236   4.389  1.00  0.00     0.249 A 
HETATM   13  H   UNL     1      44.435 -12.446   2.178  1.00  0.00     0.173 HD
HETATM   14  H   UNL     1      41.454 -12.411   7.096  1.00  0.00     0.170 HD
ENDROOT
BRANCH  12  15
HETATM   15  C   UNL     1      41.052 -15.737   4.555  1.00  0.00     0.426 C 
HETATM   16  F   UNL     1      42.295 -15.988   5.035  1.00  0.00    -0.167 F 
HETATM   17  F   UNL     1      40.167 -16.332   5.386  1.00  0.00    -0.167 F 
HETATM   18  F   UNL     1      40.955 -16.384   3.367  1.00  0.00    -0.167 F 
ENDBRANCH  12  15
BRANCH  12  19
HETATM   19  N   UNL     1      39.752 -13.927   3.375  1.00  0.00    -0.332 N 
HETATM   20  C   UNL     1      39.276 -12.659   3.170  1.00  0.00     0.219 C 
HETATM   21  O   UNL     1      39.621 -11.714   3.879  1.00  0.00    -0.274 OA
HETATM   22  H   UNL     1      39.754 -14.546   2.569  1.00  0.00     0.164 HD
BRANCH  20  23
HETATM   23  C   UNL     1      38.362 -12.440   1.977  1.00  0.00     0.107 C 
BRANCH  23  24
HETATM   24  C   UNL     1      39.013 -11.922   0.691  1.00  0.00     0.047 C 
BRANCH  24  25
HETATM   25  C   UNL     1      38.757 -12.729  -0.564  1.00  0.00    -0.058 A 
HETATM   26  C   UNL     1      39.520 -13.882  -0.808  1.00  0.00     0.007 A 
HETATM   27  C   UNL     1      39.302 -14.653  -1.952  1.00  0.00     0.001 A 
HETATM   28  C   UNL     1      38.315 -14.287  -2.863  1.00  0.00     0.000 A 
HETATM   29  C   UNL     1      37.538 -13.157  -2.624  1.00  0.00     0.001 A 
HETATM   30  C   UNL     1      37.748 -12.390  -1.476  1.00  0.00     0.007 A 
ENDBRANCH  24  25
ENDBRANCH  23  24
ENDBRANCH  20  23
ENDBRANCH  12  19
BRANCH   1  31
HETATM   31  C   UNL     1      44.039 -11.345   6.502  1.00  0.00     0.045 A 
HETATM   32  C   UNL     1      43.218 -10.479   7.238  1.00  0.00     0.031 A 
HETATM   33  C   UNL     1      43.683  -9.853   8.400  1.00  0.00     0.009 A 
HETATM   34  C   UNL     1      44.988 -10.066   8.849  1.00  0.00    -0.062 A 
HETATM   35  C   UNL     1      45.480  -9.411  10.106  1.00  0.00     0.048 C 
HETATM   36  C   UNL     1      45.811 -10.935   8.131  1.00  0.00     0.009 A 
HETATM   37  C   UNL     1      45.345 -11.560   6.967  1.00  0.00     0.031 A 
ENDBRANCH   1  31
TORSDOF 6
ENDMDL
MODEL 4
REMARK VINA RESULT:      -8.8      3.734      7.982
REMARK  6 active torsions:
REMARK  status: ('A' for Active; 'I' for Inactive)
REMARK    1  A    between atoms: C_5  and  N_6 
REMARK    2  A    between atoms: C_17  and  C_29 
REMARK    3  A    between atoms: C_17  and  N_18 
REMARK       I    between atoms: N_18  and  C_19 
REMARK    4  A    between atoms: C_19  and  C_20 
REMARK    5  A    between atoms: C_20  and  C_21 
REMARK    6  A    between atoms: C_21  and  C_22 
ROOT
HETATM    1  N   UNL     1      40.210 -13.095   2.516  1.00  0.00    -0.248 N 
HETATM    2  C   UNL     1      39.276 -12.227   3.132  1.00  0.00     0.335 A 
HETATM    3  O   UNL     1      38.486 -11.475   2.563  1.00  0.00    -0.246 OA
HETATM    4  N   UNL     1      39.218 -12.283   4.511  1.00  0.00    -0.274 N 
HETATM    5  C   UNL     1      39.890 -13.143   5.329  1.00  0.00     0.262 A 
HETATM    6  O   UNL     1      39.717 -13.208   6.537  1.00  0.00    -0.267 OA
HETATM    7  C   UNL     1      40.854 -13.978   4.649  1.00  0.00     0.101 A 
HETATM    8  C   UNL     1      40.980 -13.912   3.324  1.00  0.00     0.134 A 
HETATM    9  N   UNL     1      42.013 -14.716   2.950  1.00  0.00    -0.309 N 
HETATM   10  C   UNL     1      42.612 -15.332   4.045  1.00  0.00     0.266 A 
HETATM   11  O   UNL     1      43.607 -16.036   3.989  1.00  0.00    -0.270 OA
HETATM   12  C   UNL     1      41.803 -14.939   5.296  1.00  0.00     0.249 A 
HETATM   13  H   UNL     1      38.524 -11.689   4.939  1.00  0.00     0.173 HD
HETATM   14  H   UNL     1      42.425 -14.749   2.026  1.00  0.00     0.170 HD
ENDROOT
BRANCH  12  15
HETATM   15  C   UNL     1      41.103 -16.232   5.732  1.00  0.00     0.426 C 
HETATM   16  F   UNL     1      41.975 -17.250   5.933  1.00  0.00    -0.167 F 
HETATM   17  F   UNL     1      40.393 -16.073   6.872  1.00  0.00    -0.167 F 
HETATM   18  F   UNL     1      40.223 -16.652   4.790  1.00  0.00    -0.167 F 
ENDBRANCH  12  15
BRANCH  12  19
HETATM   19  N   UNL     1      42.606 -14.307   6.364  1.00  0.00    -0.332 N 
HETATM   20  C   UNL     1      43.406 -13.218   6.139  1.00  0.00     0.219 C 
HETATM   21  O   UNL     1      43.565 -12.751   5.012  1.00  0.00    -0.274 OA
HETATM   22  H   UNL     1      42.212 -14.397   7.296  1.00  0.00     0.164 HD
BRANCH  20  23
HETATM   23  C   UNL     1      44.032 -12.550   7.351  1.00  0.00     0.107 C 
BRANCH  23  24
HETATM   24  C   UNL     1      44.242 -11.034   7.275  1.00  0.00     0.047 C 
BRANCH  24  25
HETATM   25  C   UNL     1      44.186 -10.282   8.587  1.00  0.00    -0.058 A 
HETATM   26  C   UNL     1      42.981  -9.682   8.986  1.00  0.00     0.007 A 
HETATM   27  C   UNL     1      42.894  -8.988  10.195  1.00  0.00     0.001 A 
HETATM   28  C   UNL     1      44.007  -8.891  11.025  1.00  0.00     0.000 A 
HETATM   29  C   UNL     1      45.203  -9.497  10.653  1.00  0.00     0.001 A 
HETATM   30  C   UNL     1      45.290 -10.199   9.448  1.00  0.00     0.007 A 
ENDBRANCH  24  25
ENDBRANCH  23  24
ENDBRANCH  20  23
ENDBRANCH  12  19
BRANCH   1  31
HETATM   31  C   UNL     1      40.269 -13.132   1.075  1.00  0.00     0.045 A 
HETATM   32  C   UNL     1      39.706 -14.193   0.352  1.00  0.00     0.031 A 
HETATM   33  C   UNL     1      39.774 -14.236  -1.045  1.00  0.00     0.009 A 
HETATM   34  C   UNL     1      40.422 -13.224  -1.756  1.00  0.00    -0.062 A 
HETATM   35  C   UNL     1      40.478 -13.259  -3.255  1.00  0.00     0.048 C 
HETATM   36  C   UNL     1      40.977 -12.156  -1.049  1.00  0.00     0.009 A 
HETATM   37  C   UNL     1      40.909 -12.115   0.349  1.00  0.00     0.031 A 
ENDBRANCH   1  31
TORSDOF 6
ENDMDL
MODEL 5
REMARK VINA RESULT:      -8.8      3.559      7.979
REMARK  6 active torsions:
REMARK  status: ('A' for Active; 'I' for Inactive)
REMARK    1  A    between atoms: C_5  and  N_6 
REMARK    2  A    between atoms: C_17  and  C_29 
REMARK    3  A    between atoms: C_17  and  N_18 
REMARK       I    between atoms: N_18  and  C_19 
REMARK    4  A    between atoms: C_19  and  C_20 
REMARK    5  A    between atoms: C_20  and  C_21 
REMARK    6  A    between atoms: C_21  and  C_22 
ROOT
HETATM    1  N   UNL     1      40.158 -12.947   2.744  1.00  0.00    -0.248 N 
HETATM    2  C   UNL     1      39.226 -12.006   3.247  1.00  0.00     0.335 A 
HETATM    3  O   UNL     1      38.459 -11.307   2.587  1.00  0.00    -0.246 OA
HETATM    4  N   UNL     1      39.141 -11.917   4.623  1.00  0.00    -0.274 N 
HETATM    5  C   UNL     1      39.783 -12.696   5.540  1.00  0.00     0.262 A 
HETATM    6  O   UNL     1      39.586 -12.631   6.745  1.00  0.00    -0.267 OA
HETATM    7  C   UNL     1      40.747 -13.610   4.971  1.00  0.00     0.101 A 
HETATM    8  C   UNL     1      40.899 -13.685   3.649  1.00  0.00     0.134 A 
HETATM    9  N   UNL     1      41.927 -14.537   3.383  1.00  0.00    -0.309 N 
HETATM   10  C   UNL     1      42.494 -15.044   4.549  1.00  0.00     0.266 A 
HETATM   11  O   UNL     1      43.479 -15.764   4.587  1.00  0.00    -0.270 OA
HETATM   12  C   UNL     1      41.668 -14.511   5.734  1.00  0.00     0.249 A 
HETATM   13  H   UNL     1      38.448 -11.271   4.972  1.00  0.00     0.173 HD
HETATM   14  H   UNL     1      42.355 -14.673   2.477  1.00  0.00     0.170 HD
ENDROOT
BRANCH  12  15
HETATM   15  C   UNL     1      40.939 -15.741   6.289  1.00  0.00     0.426 C 
HETATM   16  F   UNL     1      39.796 -15.416   6.940  1.00  0.00    -0.167 F 
HETATM   17  F   UNL     1      40.617 -16.629   5.321  1.00  0.00    -0.167 F 
HETATM   18  F   UNL     1      41.717 -16.410   7.176  1.00  0.00    -0.167 F 
ENDBRANCH  12  15
BRANCH  12  19
HETATM   19  N   UNL     1      42.460 -13.782   6.747  1.00  0.00    -0.332 N 
HETATM   20  C   UNL     1      43.354 -12.798   6.417  1.00  0.00     0.219 C 
HETATM   21  O   UNL     1      43.608 -12.520   5.246  1.00  0.00    -0.274 OA
HETATM   22  H   UNL     1      42.011 -13.701   7.655  1.00  0.00     0.164 HD
BRANCH  20  23
HETATM   23  C   UNL     1      43.965 -11.999   7.554  1.00  0.00     0.107 C 
BRANCH  23  24
HETATM   24  C   UNL     1      43.754 -10.482   7.528  1.00  0.00     0.047 C 
BRANCH  24  25
HETATM   25  C   UNL     1      43.667  -9.791   8.872  1.00  0.00    -0.058 A 
HETATM   26  C   UNL     1      43.918 -10.528  10.041  1.00  0.00     0.007 A 
HETATM   27  C   UNL     1      43.856  -9.918  11.295  1.00  0.00     0.001 A 
HETATM   28  C   UNL     1      43.550  -8.564  11.399  1.00  0.00     0.000 A 
HETATM   29  C   UNL     1      43.319  -7.817  10.248  1.00  0.00     0.001 A 
HETATM   30  C   UNL     1      43.389  -8.423   8.992  1.00  0.00     0.007 A 
ENDBRANCH  24  25
ENDBRANCH  23  24
ENDBRANCH  20  23
ENDBRANCH  12  19
BRANCH   1  31
HETATM   31  C   UNL     1      40.244 -13.135   1.317  1.00  0.00     0.045 A 
HETATM   32  C   UNL     1      40.823 -12.162   0.490  1.00  0.00     0.031 A 
HETATM   33  C   UNL     1      40.894 -12.337  -0.897  1.00  0.00     0.009 A 
HETATM   34  C   UNL     1      40.372 -13.487  -1.495  1.00  0.00    -0.062 A 
HETATM   35  C   UNL     1      40.466 -13.685  -2.979  1.00  0.00     0.048 C 
HETATM   36  C   UNL     1      39.803 -14.468  -0.681  1.00  0.00     0.009 A 
HETATM   37  C   UNL     1      39.732 -14.290   0.706  1.00  0.00     0.031 A 
ENDBRANCH   1  31
TORSDOF 6
ENDMDL
MODEL 6
REMARK VINA RESULT:      -8.8      1.497      2.112
REMARK  6 active torsions:
REMARK  status: ('A' for Active; 'I' for Inactive)
REMARK    1  A    between atoms: C_5  and  N_6 
REMARK    2  A    between atoms: C_17  and  C_29 
REMARK    3  A    between atoms: C_17  and  N_18 
REMARK       I    between atoms: N_18  and  C_19 
REMARK    4  A    between atoms: C_19  and  C_20 
REMARK    5  A    between atoms: C_20  and  C_21 
REMARK    6  A    between atoms: C_21  and  C_22 
ROOT
HETATM    1  N   UNL     1      40.924 -10.276   6.563  1.00  0.00    -0.248 N 
HETATM    2  C   UNL     1      39.631 -10.772   6.862  1.00  0.00     0.335 A 
HETATM    3  O   UNL     1      38.871 -10.363   7.740  1.00  0.00    -0.246 OA
HETATM    4  N   UNL     1      39.165 -11.778   6.039  1.00  0.00    -0.274 N 
HETATM    5  C   UNL     1      39.771 -12.277   4.924  1.00  0.00     0.262 A 
HETATM    6  O   UNL     1      39.258 -13.101   4.181  1.00  0.00    -0.267 OA
HETATM    7  C   UNL     1      41.101 -11.761   4.691  1.00  0.00     0.101 A 
HETATM    8  C   UNL     1      41.608 -10.829   5.497  1.00  0.00     0.134 A 
HETATM    9  N   UNL     1      42.896 -10.592   5.123  1.00  0.00    -0.309 N 
HETATM   10  C   UNL     1      43.278 -11.390   4.048  1.00  0.00     0.266 A 
HETATM   11  O   UNL     1      44.403 -11.430   3.576  1.00  0.00    -0.270 OA
HETATM   12  C   UNL     1      42.042 -12.197   3.610  1.00  0.00     0.249 A 
HETATM   13  H   UNL     1      38.228 -12.100   6.236  1.00  0.00     0.173 HD
HETATM   14  H   UNL     1      43.565 -10.042   5.645  1.00  0.00     0.170 HD
ENDROOT
BRANCH  12  15
HETATM   15  C   UNL     1      41.657 -11.614   2.244  1.00  0.00     0.426 C 
HETATM   16  F   UNL     1      42.325 -10.469   1.964  1.00  0.00    -0.167 F 
HETATM   17  F   UNL     1      41.887 -12.479   1.231  1.00  0.00    -0.167 F 
HETATM   18  F   UNL     1      40.335 -11.315   2.197  1.00  0.00    -0.167 F 
ENDBRANCH  12  15
BRANCH  12  19
HETATM   19  N   UNL     1      42.246 -13.661   3.595  1.00  0.00    -0.332 N 
HETATM   20  C   UNL     1      42.799 -14.339   4.650  1.00  0.00     0.219 C 
HETATM   21  O   UNL     1      43.232 -13.754   5.641  1.00  0.00    -0.274 OA
HETATM   22  H   UNL     1      41.581 -14.174   3.024  1.00  0.00     0.164 HD
BRANCH  20  23
HETATM   23  C   UNL     1      42.783 -15.857   4.589  1.00  0.00     0.107 C 
BRANCH  23  24
HETATM   24  C   UNL     1      43.219 -16.502   3.270  1.00  0.00     0.047 C 
BRANCH  24  25
HETATM   25  C   UNL     1      43.431 -18.001   3.292  1.00  0.00    -0.058 A 
HETATM   26  C   UNL     1      43.085 -18.761   2.164  1.00  0.00     0.007 A 
HETATM   27  C   UNL     1      43.277 -20.144   2.149  1.00  0.00     0.001 A 
HETATM   28  C   UNL     1      43.823 -20.785   3.258  1.00  0.00     0.000 A 
HETATM   29  C   UNL     1      44.188 -20.042   4.376  1.00  0.00     0.001 A 
HETATM   30  C   UNL     1      44.005 -18.657   4.390  1.00  0.00     0.007 A 
ENDBRANCH  24  25
ENDBRANCH  23  24
ENDBRANCH  20  23
ENDBRANCH  12  19
BRANCH   1  31
HETATM   31  C   UNL     1      41.436  -9.177   7.344  1.00  0.00     0.045 A 
HETATM   32  C   UNL     1      42.153  -9.399   8.529  1.00  0.00     0.031 A 
HETATM   33  C   UNL     1      42.638  -8.333   9.294  1.00  0.00     0.009 A 
HETATM   34  C   UNL     1      42.406  -7.013   8.901  1.00  0.00    -0.062 A 
HETATM   35  C   UNL     1      42.944  -5.870   9.710  1.00  0.00     0.048 C 
HETATM   36  C   UNL     1      41.703  -6.778   7.718  1.00  0.00     0.009 A 
HETATM   37  C   UNL     1      41.217  -7.846   6.954  1.00  0.00     0.031 A 
ENDBRANCH   1  31
TORSDOF 6
ENDMDL
MODEL 7
REMARK VINA RESULT:      -8.6      4.398      6.830
REMARK  6 active torsions:
REMARK  status: ('A' for Active; 'I' for Inactive)
REMARK    1  A    between atoms: C_5  and  N_6 
REMARK    2  A    between atoms: C_17  and  C_29 
REMARK    3  A    between atoms: C_17  and  N_18 
REMARK       I    between atoms: N_18  and  C_19 
REMARK    4  A    between atoms: C_19  and  C_20 
REMARK    5  A    between atoms: C_20  and  C_21 
REMARK    6  A    between atoms: C_21  and  C_22 
ROOT
HETATM    1  N   UNL     1      40.750 -12.495   1.359  1.00  0.00    -0.248 N 
HETATM    2  C   UNL     1      41.633 -11.388   1.352  1.00  0.00     0.335 A 
HETATM    3  O   UNL     1      41.681 -10.491   0.510  1.00  0.00    -0.246 OA
HETATM    4  N   UNL     1      42.484 -11.287   2.435  1.00  0.00    -0.274 N 
HETATM    5  C   UNL     1      42.500 -12.078   3.546  1.00  0.00     0.262 A 
HETATM    6  O   UNL     1      43.213 -11.873   4.517  1.00  0.00    -0.267 OA
HETATM    7  C   UNL     1      41.604 -13.211   3.481  1.00  0.00     0.101 A 
HETATM    8  C   UNL     1      40.807 -13.374   2.425  1.00  0.00     0.134 A 
HETATM    9  N   UNL     1      40.147 -14.556   2.564  1.00  0.00    -0.309 N 
HETATM   10  C   UNL     1      40.511 -15.218   3.733  1.00  0.00     0.266 A 
HETATM   11  O   UNL     1      40.125 -16.331   4.052  1.00  0.00    -0.270 OA
HETATM   12  C   UNL     1      41.481 -14.300   4.500  1.00  0.00     0.249 A 
HETATM   13  H   UNL     1      43.084 -10.475   2.440  1.00  0.00     0.173 HD
HETATM   14  H   UNL     1      39.588 -15.003   1.848  1.00  0.00     0.170 HD
ENDROOT
BRANCH  12  15
HETATM   15  C   UNL     1      40.694 -13.844   5.736  1.00  0.00     0.426 C 
HETATM   16  F   UNL     1      41.503 -13.412   6.734  1.00  0.00    -0.167 F 
HETATM   17  F   UNL     1      39.827 -12.845   5.454  1.00  0.00    -0.167 F 
HETATM   18  F   UNL     1      39.955 -14.860   6.245  1.00  0.00    -0.167 F 
ENDBRANCH  12  15
BRANCH  12  19
HETATM   19  N   UNL     1      42.782 -14.924   4.821  1.00  0.00    -0.332 N 
HETATM   20  C   UNL     1      42.897 -15.994   5.668  1.00  0.00     0.219 C 
HETATM   21  O   UNL     1      41.929 -16.448   6.276  1.00  0.00    -0.274 OA
HETATM   22  H   UNL     1      43.478 -14.851   4.084  1.00  0.00     0.164 HD
BRANCH  20  23
HETATM   23  C   UNL     1      44.258 -16.661   5.770  1.00  0.00     0.107 C 
BRANCH  23  24
HETATM   24  C   UNL     1      44.280 -18.192   5.795  1.00  0.00     0.047 C 
BRANCH  24  25
HETATM   25  C   UNL     1      43.975 -18.890   4.487  1.00  0.00    -0.058 A 
HETATM   26  C   UNL     1      44.100 -20.286   4.406  1.00  0.00     0.007 A 
HETATM   27  C   UNL     1      43.817 -20.961   3.217  1.00  0.00     0.001 A 
HETATM   28  C   UNL     1      43.398 -20.251   2.095  1.00  0.00     0.000 A 
HETATM   29  C   UNL     1      43.250 -18.869   2.165  1.00  0.00     0.001 A 
HETATM   30  C   UNL     1      43.525 -18.194   3.356  1.00  0.00     0.007 A 
ENDBRANCH  24  25
ENDBRANCH  23  24
ENDBRANCH  20  23
ENDBRANCH  12  19
BRANCH   1  31
HETATM   31  C   UNL     1      39.791 -12.616   0.289  1.00  0.00     0.045 A 
HETATM   32  C   UNL     1      38.669 -11.778   0.221  1.00  0.00     0.031 A 
HETATM   33  C   UNL     1      37.730 -11.904  -0.810  1.00  0.00     0.009 A 
HETATM   34  C   UNL     1      37.882 -12.884  -1.793  1.00  0.00    -0.062 A 
HETATM   35  C   UNL     1      36.887 -13.007  -2.909  1.00  0.00     0.048 C 
HETATM   36  C   UNL     1      39.001 -13.718  -1.743  1.00  0.00     0.009 A 
HETATM   37  C   UNL     1      39.938 -13.591  -0.711  1.00  0.00     0.031 A 
ENDBRANCH   1  31
TORSDOF 6
ENDMDL
MODEL 8
REMARK VINA RESULT:      -8.5      3.999      7.807
REMARK  6 active torsions:
REMARK  status: ('A' for Active; 'I' for Inactive)
REMARK    1  A    between atoms: C_5  and  N_6 
REMARK    2  A    between atoms: C_17  and  C_29 
REMARK    3  A    between atoms: C_17  and  N_18 
REMARK       I    between atoms: N_18  and  C_19 
REMARK    4  A    between atoms: C_19  and  C_20 
REMARK    5  A    between atoms: C_20  and  C_21 
REMARK    6  A    between atoms: C_21  and  C_22 
ROOT
HETATM    1  N   UNL     1      41.011 -14.646   3.131  1.00  0.00    -0.248 N 
HETATM    2  C   UNL     1      39.766 -14.958   2.531  1.00  0.00     0.335 A 
HETATM    3  O   UNL     1      39.356 -16.078   2.230  1.00  0.00    -0.246 OA
HETATM    4  N   UNL     1      38.915 -13.892   2.318  1.00  0.00    -0.274 N 
HETATM    5  C   UNL     1      39.102 -12.598   2.707  1.00  0.00     0.262 A 
HETATM    6  O   UNL     1      38.262 -11.719   2.577  1.00  0.00    -0.267 OA
HETATM    7  C   UNL     1      40.402 -12.333   3.280  1.00  0.00     0.101 A 
HETATM    8  C   UNL     1      41.274 -13.326   3.449  1.00  0.00     0.134 A 
HETATM    9  N   UNL     1      42.443 -12.799   3.907  1.00  0.00    -0.309 N 
HETATM   10  C   UNL     1      42.368 -11.415   4.041  1.00  0.00     0.266 A 
HETATM   11  O   UNL     1      43.303 -10.696   4.355  1.00  0.00    -0.270 OA
HETATM   12  C   UNL     1      40.926 -10.995   3.701  1.00  0.00     0.249 A 
HETATM   13  H   UNL     1      38.016 -14.128   1.924  1.00  0.00     0.173 HD
HETATM   14  H   UNL     1      43.319 -13.298   3.986  1.00  0.00     0.170 HD
ENDROOT
BRANCH  12  15
HETATM   15  C   UNL     1      40.326 -10.537   5.037  1.00  0.00     0.426 C 
HETATM   16  F   UNL     1      39.034 -10.147   4.917  1.00  0.00    -0.167 F 
HETATM   17  F   UNL     1      40.374 -11.504   5.981  1.00  0.00    -0.167 F 
HETATM   18  F   UNL     1      41.008  -9.479   5.540  1.00  0.00    -0.167 F 
ENDBRANCH  12  15
BRANCH  12  19
HETATM   19  N   UNL     1      40.826  -9.985   2.627  1.00  0.00    -0.332 N 
HETATM   20  C   UNL     1      41.457 -10.127   1.419  1.00  0.00     0.219 C 
HETATM   21  O   UNL     1      42.213 -11.070   1.190  1.00  0.00    -0.274 OA
HETATM   22  H   UNL     1      39.959  -9.455   2.626  1.00  0.00     0.164 HD
BRANCH  20  23
HETATM   23  C   UNL     1      41.126  -9.117   0.335  1.00  0.00     0.107 C 
BRANCH  23  24
HETATM   24  C   UNL     1      39.977  -9.471  -0.615  1.00  0.00     0.047 C 
BRANCH  24  25
HETATM   25  C   UNL     1      40.068 -10.814  -1.308  1.00  0.00    -0.058 A 
HETATM   26  C   UNL     1      41.035 -11.008  -2.307  1.00  0.00     0.007 A 
HETATM   27  C   UNL     1      41.150 -12.237  -2.959  1.00  0.00     0.001 A 
HETATM   28  C   UNL     1      40.308 -13.291  -2.616  1.00  0.00     0.000 A 
HETATM   29  C   UNL     1      39.358 -13.119  -1.614  1.00  0.00     0.001 A 
HETATM   30  C   UNL     1      39.247 -11.893  -0.954  1.00  0.00     0.007 A 
ENDBRANCH  24  25
ENDBRANCH  23  24
ENDBRANCH  20  23
ENDBRANCH  12  19
BRANCH   1  31
HETATM   31  C   UNL     1      41.914 -15.727   3.441  1.00  0.00     0.045 A 
HETATM   32  C   UNL     1      42.652 -16.368   2.436  1.00  0.00     0.031 A 
HETATM   33  C   UNL     1      43.519 -17.425   2.734  1.00  0.00     0.009 A 
HETATM   34  C   UNL     1      43.659 -17.880   4.047  1.00  0.00    -0.062 A 
HETATM   35  C   UNL     1      44.603 -19.000   4.371  1.00  0.00     0.048 C 
HETATM   36  C   UNL     1      42.939 -17.243   5.059  1.00  0.00     0.009 A 
HETATM   37  C   UNL     1      42.071 -16.186   4.759  1.00  0.00     0.031 A 
ENDBRANCH   1  31
TORSDOF 6
ENDMDL
MODEL 9
REMARK VINA RESULT:      -8.4      7.235     10.506
REMARK  6 active torsions:
REMARK  status: ('A' for Active; 'I' for Inactive)
REMARK    1  A    between atoms: C_5  and  N_6 
REMARK    2  A    between atoms: C_17  and  C_29 
REMARK    3  A    between atoms: C_17  and  N_18 
REMARK       I    between atoms: N_18  and  C_19 
REMARK    4  A    between atoms: C_19  and  C_20 
REMARK    5  A    between atoms: C_20  and  C_21 
REMARK    6  A    between atoms: C_21  and  C_22 
ROOT
HETATM    1  N   UNL     1      40.344 -13.532   1.198  1.00  0.00    -0.248 N 
HETATM    2  C   UNL     1      39.603 -12.829   2.179  1.00  0.00     0.335 A 
HETATM    3  O   UNL     1      39.577 -13.062   3.387  1.00  0.00    -0.246 OA
HETATM    4  N   UNL     1      38.885 -11.739   1.728  1.00  0.00    -0.274 N 
HETATM    5  C   UNL     1      38.889 -11.215   0.469  1.00  0.00     0.262 A 
HETATM    6  O   UNL     1      38.308 -10.186   0.158  1.00  0.00    -0.267 OA
HETATM    7  C   UNL     1      39.632 -11.994  -0.496  1.00  0.00     0.101 A 
HETATM    8  C   UNL     1      40.291 -13.086  -0.110  1.00  0.00     0.134 A 
HETATM    9  N   UNL     1      40.817 -13.684  -1.214  1.00  0.00    -0.309 N 
HETATM   10  C   UNL     1      40.497 -12.991  -2.379  1.00  0.00     0.266 A 
HETATM   11  O   UNL     1      40.778 -13.361  -3.507  1.00  0.00    -0.270 OA
HETATM   12  C   UNL     1      39.727 -11.723  -1.966  1.00  0.00     0.249 A 
HETATM   13  H   UNL     1      38.390 -11.222   2.440  1.00  0.00     0.173 HD
HETATM   14  H   UNL     1      41.242 -14.601  -1.237  1.00  0.00     0.170 HD
ENDROOT
BRANCH  12  15
HETATM   15  C   UNL     1      40.685 -10.565  -2.275  1.00  0.00     0.426 C 
HETATM   16  F   UNL     1      41.809 -10.608  -1.520  1.00  0.00    -0.167 F 
HETATM   17  F   UNL     1      41.066 -10.544  -3.572  1.00  0.00    -0.167 F 
HETATM   18  F   UNL     1      40.096  -9.368  -2.030  1.00  0.00    -0.167 F 
ENDBRANCH  12  15
BRANCH  12  19
HETATM   19  N   UNL     1      38.401 -11.584  -2.603  1.00  0.00    -0.332 N 
HETATM   20  C   UNL     1      37.486 -12.604  -2.631  1.00  0.00     0.219 C 
HETATM   21  O   UNL     1      37.749 -13.724  -2.196  1.00  0.00    -0.274 OA
HETATM   22  H   UNL     1      38.028 -10.639  -2.598  1.00  0.00     0.164 HD
BRANCH  20  23
HETATM   23  C   UNL     1      36.095 -12.279  -3.147  1.00  0.00     0.107 C 
BRANCH  23  24
HETATM   24  C   UNL     1      35.772 -10.801  -3.387  1.00  0.00     0.047 C 
BRANCH  24  25
HETATM   25  C   UNL     1      34.398 -10.334  -2.956  1.00  0.00    -0.058 A 
HETATM   26  C   UNL     1      33.261 -10.907  -3.545  1.00  0.00     0.007 A 
HETATM   27  C   UNL     1      31.979 -10.505  -3.163  1.00  0.00     0.001 A 
HETATM   28  C   UNL     1      31.817  -9.530  -2.182  1.00  0.00     0.000 A 
HETATM   29  C   UNL     1      32.936  -8.967  -1.575  1.00  0.00     0.001 A 
HETATM   30  C   UNL     1      34.218  -9.374  -1.950  1.00  0.00     0.007 A 
ENDBRANCH  24  25
ENDBRANCH  23  24
ENDBRANCH  20  23
ENDBRANCH  12  19
BRANCH   1  31
HETATM   31  C   UNL     1      41.168 -14.638   1.620  1.00  0.00     0.045 A 
HETATM   32  C   UNL     1      42.557 -14.501   1.750  1.00  0.00     0.031 A 
HETATM   33  C   UNL     1      43.359 -15.578   2.147  1.00  0.00     0.009 A 
HETATM   34  C   UNL     1      42.792 -16.826   2.409  1.00  0.00    -0.062 A 
HETATM   35  C   UNL     1      43.648 -17.976   2.853  1.00  0.00     0.048 C 
HETATM   36  C   UNL     1      41.408 -16.974   2.294  1.00  0.00     0.009 A 
HETATM   37  C   UNL     1      40.608 -15.896   1.896  1.00  0.00     0.031 A 
ENDBRANCH   1  31
TORSDOF 6
ENDMDL
MODEL 10
REMARK VINA RESULT:      -8.2      1.890      8.429
REMARK  6 active torsions:
REMARK  status: ('A' for Active; 'I' for Inactive)
REMARK    1  A    between atoms: C_5  and  N_6 
REMARK    2  A    between atoms: C_17  and  C_29 
REMARK    3  A    between atoms: C_17  and  N_18 
REMARK       I    between atoms: N_18  and  C_19 
REMARK    4  A    between atoms: C_19  and  C_20 
REMARK    5  A    between atoms: C_20  and  C_21 
REMARK    6  A    between atoms: C_21  and  C_22 
ROOT
HETATM    1  N   UNL     1      43.210 -15.546   4.842  1.00  0.00    -0.248 N 
HETATM    2  C   UNL     1      43.769 -15.488   6.142  1.00  0.00     0.335 A 
HETATM    3  O   UNL     1      44.361 -16.394   6.728  1.00  0.00    -0.246 OA
HETATM    4  N   UNL     1      43.684 -14.267   6.782  1.00  0.00    -0.274 N 
HETATM    5  C   UNL     1      43.208 -13.098   6.265  1.00  0.00     0.262 A 
HETATM    6  O   UNL     1      43.254 -12.026   6.852  1.00  0.00    -0.267 OA
HETATM    7  C   UNL     1      42.618 -13.226   4.952  1.00  0.00     0.101 A 
HETATM    8  C   UNL     1      42.630 -14.402   4.325  1.00  0.00     0.134 A 
HETATM    9  N   UNL     1      41.930 -14.276   3.164  1.00  0.00    -0.309 N 
HETATM   10  C   UNL     1      41.419 -12.991   3.004  1.00  0.00     0.266 A 
HETATM   11  O   UNL     1      40.690 -12.641   2.090  1.00  0.00    -0.270 OA
HETATM   12  C   UNL     1      41.928 -12.142   4.184  1.00  0.00     0.249 A 
HETATM   13  H   UNL     1      44.118 -14.225   7.693  1.00  0.00     0.173 HD
HETATM   14  H   UNL     1      41.654 -15.040   2.561  1.00  0.00     0.170 HD
ENDROOT
BRANCH  12  15
HETATM   15  C   UNL     1      42.925 -11.158   3.558  1.00  0.00     0.426 C 
HETATM   16  F   UNL     1      44.159 -11.698   3.408  1.00  0.00    -0.167 F 
HETATM   17  F   UNL     1      42.522 -10.718   2.344  1.00  0.00    -0.167 F 
HETATM   18  F   UNL     1      43.074 -10.055   4.333  1.00  0.00    -0.167 F 
ENDBRANCH  12  15
BRANCH  12  19
HETATM   19  N   UNL     1      40.858 -11.487   4.966  1.00  0.00    -0.332 N 
HETATM   20  C   UNL     1      39.773 -12.171   5.447  1.00  0.00     0.219 C 
HETATM   21  O   UNL     1      39.586 -13.358   5.185  1.00  0.00    -0.274 OA
HETATM   22  H   UNL     1      41.163 -10.681   5.505  1.00  0.00     0.164 HD
BRANCH  20  23
HETATM   23  C   UNL     1      38.843 -11.429   6.391  1.00  0.00     0.107 C 
BRANCH  23  24
HETATM   24  C   UNL     1      39.181  -9.965   6.688  1.00  0.00     0.047 C 
BRANCH  24  25
HETATM   25  C   UNL     1      39.871  -9.689   8.007  1.00  0.00    -0.058 A 
HETATM   26  C   UNL     1      39.147  -9.817   9.202  1.00  0.00     0.007 A 
HETATM   27  C   UNL     1      39.757  -9.578  10.436  1.00  0.00     0.001 A 
HETATM   28  C   UNL     1      41.101  -9.216  10.491  1.00  0.00     0.000 A 
HETATM   29  C   UNL     1      41.836  -9.105   9.316  1.00  0.00     0.001 A 
HETATM   30  C   UNL     1      41.230  -9.351   8.082  1.00  0.00     0.007 A 
ENDBRANCH  24  25
ENDBRANCH  23  24
ENDBRANCH  20  23
ENDBRANCH  12  19
BRANCH   1  31
HETATM   31  C   UNL     1      43.329 -16.775   4.096  1.00  0.00     0.045 A 
HETATM   32  C   UNL     1      42.578 -16.994   2.932  1.00  0.00     0.031 A 
HETATM   33  C   UNL     1      42.683 -18.191   2.215  1.00  0.00     0.009 A 
HETATM   34  C   UNL     1      43.533 -19.209   2.654  1.00  0.00    -0.062 A 
HETATM   35  C   UNL     1      43.662 -20.485   1.875  1.00  0.00     0.048 C 
HETATM   36  C   UNL     1      44.295 -18.999   3.805  1.00  0.00     0.009 A 
HETATM   37  C   UNL     1      44.187 -17.801   4.521  1.00  0.00     0.031 A 
ENDBRANCH   1  31
TORSDOF 6
ENDMDL
