MODEL 1
REMARK VINA RESULT:      -8.5      0.000      0.000
REMARK  4 active torsions:
REMARK  status: ('A' for Active; 'I' for Inactive)
REMARK    1  A    between atoms: O_2  and  C_3 
REMARK    2  A    between atoms: C_5  and  C_6 
REMARK    3  A    between atoms: C_10  and  N_11 
REMARK    4  A    between atoms: C_14  and  C_15 
ROOT
HETATM    1  C   UNL     1      42.210 -16.545   2.623  1.00  0.00     0.164 C 
HETATM    2  N   UNL     1      41.724 -15.947   3.861  1.00  0.00    -0.074 N 
HETATM    3  C   UNL     1      41.881 -14.626   4.189  1.00  0.00     0.736 A 
HETATM    4  N   UNL     1      41.241 -14.384   5.304  1.00  0.00     0.131 NA
HETATM    5  C   UNL     1      40.654 -15.582   5.586  1.00  0.00     0.753 A 
HETATM    6  N   UNL     1      40.894 -16.564   4.722  1.00  0.00     0.037 NA
HETATM    7  N   UNL     1      42.547 -13.774   3.381  1.00  0.00    -0.214 N 
HETATM    8  C   UNL     1      42.784 -14.142   1.988  1.00  0.00     0.135 C 
HETATM    9  C   UNL     1      43.227 -15.616   1.928  1.00  0.00     0.063 C 
HETATM   10  H   UNL     1      42.413 -12.782   3.560  1.00  0.00     0.178 HD
ENDROOT
BRANCH   1  11
HETATM   11  C   UNL     1      42.814 -17.924   2.848  1.00  0.00    -0.030 A 
HETATM   12  C   UNL     1      43.375 -18.285   4.087  1.00  0.00     0.046 A 
HETATM   13  C   UNL     1      43.911 -19.559   4.295  1.00  0.00     0.068 A 
HETATM   14  C   UNL     1      43.927 -20.477   3.247  1.00  0.00     0.037 A 
HETATM   15  C   UNL     1      43.388 -20.128   2.006  1.00  0.00     0.003 A 
HETATM   16  C   UNL     1      42.832 -18.863   1.808  1.00  0.00     0.009 A 
BRANCH  13  17
HETATM   17  O   UNL     1      44.407 -19.778   5.551  1.00  0.00    -0.356 OA
HETATM   18  C   UNL     1      43.508 -19.532   6.626  1.00  0.00     0.210 C 
ENDBRANCH  13  17
ENDBRANCH   1  11
BRANCH   8  19
HETATM   19  C   UNL     1      41.616 -13.818   1.061  1.00  0.00    -0.035 A 
HETATM   20  C   UNL     1      40.864 -14.801   0.393  1.00  0.00     0.010 A 
HETATM   21  C   UNL     1      39.800 -14.452  -0.445  1.00  0.00     0.019 A 
HETATM   22  C   UNL     1      39.470 -13.113  -0.626  1.00  0.00     0.011 A 
HETATM   23 BR   UNL     1      38.033 -12.642  -1.758  1.00  0.00    -0.051 Br
HETATM   24  C   UNL     1      40.193 -12.120   0.028  1.00  0.00     0.019 A 
HETATM   25  C   UNL     1      41.255 -12.471   0.867  1.00  0.00     0.010 A 
ENDBRANCH   8  19
BRANCH   5  26
HETATM   26  N   UNL     1      39.907 -15.683   6.681  1.00  0.00    -0.229 N 
HETATM   27  H   UNL     1      39.055 -16.220   6.593  1.00  0.00     0.174 HD
HETATM   28  H   UNL     1      39.822 -14.846   7.241  1.00  0.00     0.174 HD
ENDBRANCH   5  26
TORSDOF 4
ENDMDL
MODEL 2
REMARK VINA RESULT:      -8.4      3.245      4.938
REMARK  4 active torsions:
REMARK  status: ('A' for Active; 'I' for Inactive)
REMARK    1  A    between atoms: O_2  and  C_3 
REMARK    2  A    between atoms: C_5  and  C_6 
REMARK    3  A    between atoms: C_10  and  N_11 
REMARK    4  A    between atoms: C_14  and  C_15 
ROOT
HETATM    1  C   UNL     1      42.474 -15.741   4.007  1.00  0.00     0.164 C 
HETATM    2  N   UNL     1      41.775 -15.016   2.952  1.00  0.00    -0.074 N 
HETATM    3  C   UNL     1      40.675 -14.226   3.161  1.00  0.00     0.736 A 
HETATM    4  N   UNL     1      40.356 -13.633   2.041  1.00  0.00     0.131 NA
HETATM    5  C   UNL     1      41.335 -14.046   1.186  1.00  0.00     0.753 A 
HETATM    6  N   UNL     1      42.244 -14.870   1.699  1.00  0.00     0.037 NA
HETATM    7  N   UNL     1      40.127 -14.093   4.388  1.00  0.00    -0.214 N 
HETATM    8  C   UNL     1      40.900 -14.474   5.566  1.00  0.00     0.135 C 
HETATM    9  C   UNL     1      41.613 -15.811   5.286  1.00  0.00     0.063 C 
HETATM   10  H   UNL     1      39.483 -13.316   4.513  1.00  0.00     0.178 HD
ENDROOT
BRANCH   1  11
HETATM   11  C   UNL     1      42.891 -17.137   3.567  1.00  0.00    -0.030 A 
HETATM   12  C   UNL     1      43.681 -17.960   4.390  1.00  0.00     0.046 A 
HETATM   13  C   UNL     1      44.046 -19.248   3.991  1.00  0.00     0.068 A 
HETATM   14  C   UNL     1      43.654 -19.714   2.737  1.00  0.00     0.037 A 
HETATM   15  C   UNL     1      42.883 -18.903   1.901  1.00  0.00     0.003 A 
HETATM   16  C   UNL     1      42.501 -17.625   2.313  1.00  0.00     0.009 A 
BRANCH  13  17
HETATM   17  O   UNL     1      44.800 -19.942   4.896  1.00  0.00    -0.356 OA
HETATM   18  C   UNL     1      44.138 -21.005   5.572  1.00  0.00     0.210 C 
ENDBRANCH  13  17
ENDBRANCH   1  11
BRANCH   8  19
HETATM   19  C   UNL     1      41.837 -13.378   6.066  1.00  0.00    -0.035 A 
HETATM   20  C   UNL     1      41.546 -12.006   5.965  1.00  0.00     0.010 A 
HETATM   21  C   UNL     1      42.438 -11.040   6.442  1.00  0.00     0.019 A 
HETATM   22  C   UNL     1      43.636 -11.433   7.030  1.00  0.00     0.011 A 
HETATM   23 BR   UNL     1      44.841 -10.128   7.674  1.00  0.00    -0.051 Br
HETATM   24  C   UNL     1      43.947 -12.783   7.149  1.00  0.00     0.019 A 
HETATM   25  C   UNL     1      43.053 -13.748   6.673  1.00  0.00     0.010 A 
ENDBRANCH   8  19
BRANCH   5  26
HETATM   26  N   UNL     1      41.310 -13.611  -0.070  1.00  0.00    -0.229 N 
HETATM   27  H   UNL     1      41.681 -12.684  -0.230  1.00  0.00     0.174 HD
HETATM   28  H   UNL     1      40.478 -13.830  -0.601  1.00  0.00     0.174 HD
ENDBRANCH   5  26
TORSDOF 4
ENDMDL
MODEL 3
REMARK VINA RESULT:      -8.2      3.859      7.112
REMARK  4 active torsions:
REMARK  status: ('A' for Active; 'I' for Inactive)
REMARK    1  A    between atoms: O_2  and  C_3 
REMARK    2  A    between atoms: C_5  and  C_6 
REMARK    3  A    between atoms: C_10  and  N_11 
REMARK    4  A    between atoms: C_14  and  C_15 
ROOT
HETATM    1  C   UNL     1      40.951 -13.668   0.828  1.00  0.00     0.164 C 
HETATM    2  N   UNL     1      40.989 -12.665   1.887  1.00  0.00    -0.074 N 
HETATM    3  C   UNL     1      40.389 -12.816   3.109  1.00  0.00     0.736 A 
HETATM    4  N   UNL     1      40.699 -11.796   3.865  1.00  0.00     0.131 NA
HETATM    5  C   UNL     1      41.547 -11.076   3.076  1.00  0.00     0.753 A 
HETATM    6  N   UNL     1      41.780 -11.577   1.867  1.00  0.00     0.037 NA
HETATM    7  N   UNL     1      39.672 -13.919   3.410  1.00  0.00    -0.214 N 
HETATM    8  C   UNL     1      39.829 -15.123   2.599  1.00  0.00     0.135 C 
HETATM    9  C   UNL     1      39.860 -14.722   1.111  1.00  0.00     0.063 C 
HETATM   10  H   UNL     1      39.470 -14.073   4.395  1.00  0.00     0.178 HD
ENDROOT
BRANCH   1  11
HETATM   11  C   UNL     1      40.749 -13.047  -0.547  1.00  0.00    -0.030 A 
HETATM   12  C   UNL     1      40.054 -13.727  -1.564  1.00  0.00     0.046 A 
HETATM   13  C   UNL     1      39.853 -13.145  -2.818  1.00  0.00     0.068 A 
HETATM   14  C   UNL     1      40.386 -11.884  -3.083  1.00  0.00     0.037 A 
HETATM   15  C   UNL     1      41.092 -11.203  -2.089  1.00  0.00     0.003 A 
HETATM   16  C   UNL     1      41.270 -11.777  -0.829  1.00  0.00     0.009 A 
BRANCH  13  17
HETATM   17  O   UNL     1      39.148 -13.912  -3.704  1.00  0.00    -0.356 OA
HETATM   18  C   UNL     1      38.407 -14.987  -3.141  1.00  0.00     0.210 C 
ENDBRANCH  13  17
ENDBRANCH   1  11
BRANCH   8  19
HETATM   19  C   UNL     1      41.007 -15.997   3.019  1.00  0.00    -0.035 A 
HETATM   20  C   UNL     1      41.761 -16.766   2.115  1.00  0.00     0.010 A 
HETATM   21  C   UNL     1      42.834 -17.550   2.552  1.00  0.00     0.019 A 
HETATM   22  C   UNL     1      43.172 -17.573   3.901  1.00  0.00     0.011 A 
HETATM   23 BR   UNL     1      44.622 -18.632   4.490  1.00  0.00    -0.051 Br
HETATM   24  C   UNL     1      42.448 -16.817   4.817  1.00  0.00     0.019 A 
HETATM   25  C   UNL     1      41.376 -16.032   4.377  1.00  0.00     0.010 A 
ENDBRANCH   8  19
BRANCH   5  26
HETATM   26  N   UNL     1      42.063  -9.949   3.557  1.00  0.00    -0.229 N 
HETATM   27  H   UNL     1      42.985 -10.018   3.966  1.00  0.00     0.174 HD
HETATM   28  H   UNL     1      41.424  -9.343   4.053  1.00  0.00     0.174 HD
ENDBRANCH   5  26
TORSDOF 4
ENDMDL
MODEL 4
REMARK VINA RESULT:      -8.1      4.156      5.966
REMARK  4 active torsions:
REMARK  status: ('A' for Active; 'I' for Inactive)
REMARK    1  A    between atoms: O_2  and  C_3 
REMARK    2  A    between atoms: C_5  and  C_6 
REMARK    3  A    between atoms: C_10  and  N_11 
REMARK    4  A    between atoms: C_14  and  C_15 
ROOT
HETATM    1  C   UNL     1      42.639 -12.961   5.763  1.00  0.00     0.164 C 
HETATM    2  N   UNL     1      42.441 -14.279   6.356  1.00  0.00    -0.074 N 
HETATM    3  C   UNL     1      41.215 -14.848   6.571  1.00  0.00     0.736 A 
HETATM    4  N   UNL     1      41.381 -16.069   7.010  1.00  0.00     0.131 NA
HETATM    5  C   UNL     1      42.735 -16.221   6.985  1.00  0.00     0.753 A 
HETATM    6  N   UNL     1      43.430 -15.167   6.567  1.00  0.00     0.037 NA
HETATM    7  N   UNL     1      40.072 -14.193   6.275  1.00  0.00    -0.214 N 
HETATM    8  C   UNL     1      40.117 -13.038   5.383  1.00  0.00     0.135 C 
HETATM    9  C   UNL     1      41.322 -12.157   5.765  1.00  0.00     0.063 C 
HETATM   10  H   UNL     1      39.226 -14.756   6.227  1.00  0.00     0.178 HD
ENDROOT
BRANCH   1  11
HETATM   11  C   UNL     1      43.744 -12.177   6.456  1.00  0.00    -0.030 A 
HETATM   12  C   UNL     1      43.631 -11.786   7.803  1.00  0.00     0.046 A 
HETATM   13  C   UNL     1      44.657 -11.084   8.442  1.00  0.00     0.068 A 
HETATM   14  C   UNL     1      45.796 -10.728   7.722  1.00  0.00     0.037 A 
HETATM   15  C   UNL     1      45.916 -11.094   6.379  1.00  0.00     0.003 A 
HETATM   16  C   UNL     1      44.900 -11.816   5.751  1.00  0.00     0.009 A 
BRANCH  13  17
HETATM   17  O   UNL     1      44.420 -10.784   9.755  1.00  0.00    -0.356 OA
HETATM   18  C   UNL     1      45.154  -9.685  10.282  1.00  0.00     0.210 C 
ENDBRANCH  13  17
ENDBRANCH   1  11
BRANCH   8  19
HETATM   19  C   UNL     1      40.076 -13.404   3.902  1.00  0.00    -0.035 A 
HETATM   20  C   UNL     1      40.315 -14.703   3.419  1.00  0.00     0.010 A 
HETATM   21  C   UNL     1      40.263 -14.987   2.051  1.00  0.00     0.019 A 
HETATM   22  C   UNL     1      39.967 -13.976   1.143  1.00  0.00     0.011 A 
HETATM   23 BR   UNL     1      39.896 -14.360  -0.705  1.00  0.00    -0.051 Br
HETATM   24  C   UNL     1      39.719 -12.683   1.593  1.00  0.00     0.019 A 
HETATM   25  C   UNL     1      39.770 -12.401   2.962  1.00  0.00     0.010 A 
ENDBRANCH   8  19
BRANCH   5  26
HETATM   26  N   UNL     1      43.254 -17.381   7.375  1.00  0.00    -0.229 N 
HETATM   27  H   UNL     1      42.749 -18.213   7.099  1.00  0.00     0.174 HD
HETATM   28  H   UNL     1      43.630 -17.407   8.313  1.00  0.00     0.174 HD
ENDBRANCH   5  26
TORSDOF 4
ENDMDL
MODEL 5
REMARK VINA RESULT:      -8.0      4.519      7.488
REMARK  4 active torsions:
REMARK  status: ('A' for Active; 'I' for Inactive)
REMARK    1  A    between atoms: O_2  and  C_3 
REMARK    2  A    between atoms: C_5  and  C_6 
REMARK    3  A    between atoms: C_10  and  N_11 
REMARK    4  A    between atoms: C_14  and  C_15 
ROOT
HETATM    1  C   UNL     1      41.405 -13.207   5.404  1.00  0.00     0.164 C 
HETATM    2  N   UNL     1      42.688 -12.755   5.929  1.00  0.00    -0.074 N 
HETATM    3  C   UNL     1      43.402 -13.419   6.891  1.00  0.00     0.736 A 
HETATM    4  N   UNL     1      44.551 -12.819   7.061  1.00  0.00     0.131 NA
HETATM    5  C   UNL     1      44.518 -11.824   6.129  1.00  0.00     0.753 A 
HETATM    6  N   UNL     1      43.414 -11.758   5.391  1.00  0.00     0.037 NA
HETATM    7  N   UNL     1      42.933 -14.550   7.461  1.00  0.00    -0.214 N 
HETATM    8  C   UNL     1      41.854 -15.288   6.810  1.00  0.00     0.135 C 
HETATM    9  C   UNL     1      40.790 -14.288   6.317  1.00  0.00     0.063 C 
HETATM   10  H   UNL     1      43.608 -15.112   7.972  1.00  0.00     0.178 HD
ENDROOT
BRANCH   1  11
HETATM   11  C   UNL     1      40.427 -12.058   5.204  1.00  0.00    -0.030 A 
HETATM   12  C   UNL     1      39.939 -11.313   6.294  1.00  0.00     0.046 A 
HETATM   13  C   UNL     1      39.057 -10.246   6.105  1.00  0.00     0.068 A 
HETATM   14  C   UNL     1      38.618  -9.938   4.818  1.00  0.00     0.037 A 
HETATM   15  C   UNL     1      39.080 -10.680   3.728  1.00  0.00     0.003 A 
HETATM   16  C   UNL     1      39.980 -11.730   3.917  1.00  0.00     0.009 A 
BRANCH  13  17
HETATM   17  O   UNL     1      38.678  -9.600   7.249  1.00  0.00    -0.356 OA
HETATM   18  C   UNL     1      39.611  -9.640   8.322  1.00  0.00     0.210 C 
ENDBRANCH  13  17
ENDBRANCH   1  11
BRANCH   8  19
HETATM   19  C   UNL     1      42.335 -16.250   5.727  1.00  0.00    -0.035 A 
HETATM   20  C   UNL     1      41.866 -16.220   4.402  1.00  0.00     0.010 A 
HETATM   21  C   UNL     1      42.341 -17.123   3.446  1.00  0.00     0.019 A 
HETATM   22  C   UNL     1      43.296 -18.070   3.801  1.00  0.00     0.011 A 
HETATM   23 BR   UNL     1      43.938 -19.290   2.508  1.00  0.00    -0.051 Br
HETATM   24  C   UNL     1      43.783 -18.118   5.103  1.00  0.00     0.019 A 
HETATM   25  C   UNL     1      43.308 -17.213   6.057  1.00  0.00     0.010 A 
ENDBRANCH   8  19
BRANCH   5  26
HETATM   26  N   UNL     1      45.563 -11.009   6.029  1.00  0.00    -0.229 N 
HETATM   27  H   UNL     1      45.808 -10.491   6.863  1.00  0.00     0.174 HD
HETATM   28  H   UNL     1      45.638 -10.484   5.169  1.00  0.00     0.174 HD
ENDBRANCH   5  26
TORSDOF 4
ENDMDL
MODEL 6
REMARK VINA RESULT:      -7.9     11.389     13.817
REMARK  4 active torsions:
REMARK  status: ('A' for Active; 'I' for Inactive)
REMARK    1  A    between atoms: O_2  and  C_3 
REMARK    2  A    between atoms: C_5  and  C_6 
REMARK    3  A    between atoms: C_10  and  N_11 
REMARK    4  A    between atoms: C_14  and  C_15 
ROOT
HETATM    1  C   UNL     1      42.094  -7.732  12.377  1.00  0.00     0.164 C 
HETATM    2  N   UNL     1      41.201  -8.868  12.578  1.00  0.00    -0.074 N 
HETATM    3  C   UNL     1      40.948  -9.440  13.796  1.00  0.00     0.736 A 
HETATM    4  N   UNL     1      40.027 -10.358  13.654  1.00  0.00     0.131 NA
HETATM    5  C   UNL     1      39.704 -10.265  12.333  1.00  0.00     0.753 A 
HETATM    6  N   UNL     1      40.372  -9.351  11.635  1.00  0.00     0.037 NA
HETATM    7  N   UNL     1      41.553  -9.000  14.920  1.00  0.00    -0.214 N 
HETATM    8  C   UNL     1      42.191  -7.687  14.926  1.00  0.00     0.135 C 
HETATM    9  C   UNL     1      42.984  -7.510  13.617  1.00  0.00     0.063 C 
HETATM   10  H   UNL     1      41.141  -9.296  15.802  1.00  0.00     0.178 HD
ENDROOT
BRANCH   1  11
HETATM   11  C   UNL     1      42.948  -7.885  11.127  1.00  0.00    -0.030 A 
HETATM   12  C   UNL     1      43.759  -9.018  10.927  1.00  0.00     0.046 A 
HETATM   13  C   UNL     1      44.527  -9.164   9.769  1.00  0.00     0.068 A 
HETATM   14  C   UNL     1      44.524  -8.151   8.811  1.00  0.00     0.037 A 
HETATM   15  C   UNL     1      43.737  -7.012   9.003  1.00  0.00     0.003 A 
HETATM   16  C   UNL     1      42.953  -6.881  10.150  1.00  0.00     0.009 A 
BRANCH  13  17
HETATM   17  O   UNL     1      45.253 -10.321   9.699  1.00  0.00    -0.356 OA
HETATM   18  C   UNL     1      45.697 -10.698   8.401  1.00  0.00     0.210 C 
ENDBRANCH  13  17
ENDBRANCH   1  11
BRANCH   8  19
HETATM   19  C   UNL     1      41.228  -6.539  15.215  1.00  0.00    -0.035 A 
HETATM   20  C   UNL     1      41.326  -5.275  14.605  1.00  0.00     0.010 A 
HETATM   21  C   UNL     1      40.415  -4.256  14.903  1.00  0.00     0.019 A 
HETATM   22  C   UNL     1      39.389  -4.487  15.814  1.00  0.00     0.011 A 
HETATM   23 BR   UNL     1      38.159  -3.110  16.215  1.00  0.00    -0.051 Br
HETATM   24  C   UNL     1      39.264  -5.729  16.426  1.00  0.00     0.019 A 
HETATM   25  C   UNL     1      40.175  -6.748  16.126  1.00  0.00     0.010 A 
ENDBRANCH   8  19
BRANCH   5  26
HETATM   26  N   UNL     1      38.770 -11.077  11.847  1.00  0.00    -0.229 N 
HETATM   27  H   UNL     1      37.859 -10.669  11.689  1.00  0.00     0.174 HD
HETATM   28  H   UNL     1      38.754 -12.014  12.226  1.00  0.00     0.174 HD
ENDBRANCH   5  26
TORSDOF 4
ENDMDL
MODEL 7
REMARK VINA RESULT:      -7.9      2.563      4.514
REMARK  4 active torsions:
REMARK  status: ('A' for Active; 'I' for Inactive)
REMARK    1  A    between atoms: O_2  and  C_3 
REMARK    2  A    between atoms: C_5  and  C_6 
REMARK    3  A    between atoms: C_10  and  N_11 
REMARK    4  A    between atoms: C_14  and  C_15 
ROOT
HETATM    1  C   UNL     1      42.070 -13.667   3.422  1.00  0.00     0.164 C 
HETATM    2  N   UNL     1      42.177 -15.103   3.188  1.00  0.00    -0.074 N 
HETATM    3  C   UNL     1      41.136 -15.895   2.783  1.00  0.00     0.736 A 
HETATM    4  N   UNL     1      41.581 -17.103   2.557  1.00  0.00     0.131 NA
HETATM    5  C   UNL     1      42.921 -16.983   2.781  1.00  0.00     0.753 A 
HETATM    6  N   UNL     1      43.342 -15.774   3.142  1.00  0.00     0.037 NA
HETATM    7  N   UNL     1      39.896 -15.391   2.602  1.00  0.00    -0.214 N 
HETATM    8  C   UNL     1      39.719 -13.948   2.470  1.00  0.00     0.135 C 
HETATM    9  C   UNL     1      40.591 -13.238   3.523  1.00  0.00     0.063 C 
HETATM   10  H   UNL     1      39.246 -15.967   2.073  1.00  0.00     0.178 HD
ENDROOT
BRANCH   1  11
HETATM   11  C   UNL     1      42.839 -13.226   4.659  1.00  0.00    -0.030 A 
HETATM   12  C   UNL     1      42.789 -13.964   5.856  1.00  0.00     0.046 A 
HETATM   13  C   UNL     1      43.512 -13.566   6.983  1.00  0.00     0.068 A 
HETATM   14  C   UNL     1      44.267 -12.395   6.937  1.00  0.00     0.037 A 
HETATM   15  C   UNL     1      44.313 -11.642   5.761  1.00  0.00     0.003 A 
HETATM   16  C   UNL     1      43.608 -12.055   4.629  1.00  0.00     0.009 A 
BRANCH  13  17
HETATM   17  O   UNL     1      43.384 -14.386   8.071  1.00  0.00    -0.356 OA
HETATM   18  C   UNL     1      42.917 -15.703   7.803  1.00  0.00     0.210 C 
ENDBRANCH  13  17
ENDBRANCH   1  11
BRANCH   8  19
HETATM   19  C   UNL     1      39.937 -13.431   1.050  1.00  0.00    -0.035 A 
HETATM   20  C   UNL     1      39.925 -14.260  -0.086  1.00  0.00     0.010 A 
HETATM   21  C   UNL     1      40.128 -13.735  -1.366  1.00  0.00     0.019 A 
HETATM   22  C   UNL     1      40.343 -12.371  -1.530  1.00  0.00     0.011 A 
HETATM   23 BR   UNL     1      40.617 -11.662  -3.261  1.00  0.00    -0.051 Br
HETATM   24  C   UNL     1      40.353 -11.526  -0.425  1.00  0.00     0.019 A 
HETATM   25  C   UNL     1      40.149 -12.053   0.854  1.00  0.00     0.010 A 
ENDBRANCH   8  19
BRANCH   5  26
HETATM   26  N   UNL     1      43.692 -18.056   2.632  1.00  0.00    -0.229 N 
HETATM   27  H   UNL     1      44.328 -18.259   3.391  1.00  0.00     0.174 HD
HETATM   28  H   UNL     1      44.075 -18.203   1.708  1.00  0.00     0.174 HD
ENDBRANCH   5  26
TORSDOF 4
ENDMDL
MODEL 8
REMARK VINA RESULT:      -7.9      1.409      2.286
REMARK  4 active torsions:
REMARK  status: ('A' for Active; 'I' for Inactive)
REMARK    1  A    between atoms: O_2  and  C_3 
REMARK    2  A    between atoms: C_5  and  C_6 
REMARK    3  A    between atoms: C_10  and  N_11 
REMARK    4  A    between atoms: C_14  and  C_15 
ROOT
HETATM    1  C   UNL     1      42.142 -15.099   2.882  1.00  0.00     0.164 C 
HETATM    2  N   UNL     1      41.597 -14.246   3.933  1.00  0.00    -0.074 N 
HETATM    3  C   UNL     1      41.607 -12.877   3.894  1.00  0.00     0.736 A 
HETATM    4  N   UNL     1      40.950 -12.415   4.925  1.00  0.00     0.131 NA
HETATM    5  C   UNL     1      40.501 -13.549   5.535  1.00  0.00     0.753 A 
HETATM    6  N   UNL     1      40.845 -14.695   4.954  1.00  0.00     0.037 NA
HETATM    7  N   UNL     1      42.171 -12.206   2.867  1.00  0.00    -0.214 N 
HETATM    8  C   UNL     1      42.441 -12.905   1.614  1.00  0.00     0.135 C 
HETATM    9  C   UNL     1      43.046 -14.286   1.931  1.00  0.00     0.063 C 
HETATM   10  H   UNL     1      41.927 -11.222   2.781  1.00  0.00     0.178 HD
ENDROOT
BRANCH   1  11
HETATM   11  C   UNL     1      42.896 -16.295   3.444  1.00  0.00    -0.030 A 
HETATM   12  C   UNL     1      42.925 -17.528   2.767  1.00  0.00     0.046 A 
HETATM   13  C   UNL     1      43.635 -18.618   3.276  1.00  0.00     0.068 A 
HETATM   14  C   UNL     1      44.295 -18.496   4.498  1.00  0.00     0.037 A 
HETATM   15  C   UNL     1      44.263 -17.284   5.190  1.00  0.00     0.003 A 
HETATM   16  C   UNL     1      43.572 -16.189   4.667  1.00  0.00     0.009 A 
BRANCH  13  17
HETATM   17  O   UNL     1      43.590 -19.747   2.506  1.00  0.00    -0.356 OA
HETATM   18  C   UNL     1      43.854 -20.971   3.183  1.00  0.00     0.210 C 
ENDBRANCH  13  17
ENDBRANCH   1  11
BRANCH   8  19
HETATM   19  C   UNL     1      41.240 -12.967   0.674  1.00  0.00    -0.035 A 
HETATM   20  C   UNL     1      40.436 -11.854   0.371  1.00  0.00     0.010 A 
HETATM   21  C   UNL     1      39.346 -11.964  -0.499  1.00  0.00     0.019 A 
HETATM   22  C   UNL     1      39.046 -13.190  -1.083  1.00  0.00     0.011 A 
HETATM   23 BR   UNL     1      37.575 -13.338  -2.259  1.00  0.00    -0.051 Br
HETATM   24  C   UNL     1      39.829 -14.307  -0.807  1.00  0.00     0.019 A 
HETATM   25  C   UNL     1      40.919 -14.194   0.063  1.00  0.00     0.010 A 
ENDBRANCH   8  19
BRANCH   5  26
HETATM   26  N   UNL     1      39.775 -13.433   6.642  1.00  0.00    -0.229 N 
HETATM   27  H   UNL     1      38.800 -13.692   6.567  1.00  0.00     0.174 HD
HETATM   28  H   UNL     1      39.952 -12.614   7.207  1.00  0.00     0.174 HD
ENDBRANCH   5  26
TORSDOF 4
ENDMDL
MODEL 9
REMARK VINA RESULT:      -7.8      4.420      7.691
REMARK  4 active torsions:
REMARK  status: ('A' for Active; 'I' for Inactive)
REMARK    1  A    between atoms: O_2  and  C_3 
REMARK    2  A    between atoms: C_5  and  C_6 
REMARK    3  A    between atoms: C_10  and  N_11 
REMARK    4  A    between atoms: C_14  and  C_15 
ROOT
HETATM    1  C   UNL     1      42.200 -12.274   4.716  1.00  0.00     0.164 C 
HETATM    2  N   UNL     1      43.361 -12.028   5.564  1.00  0.00    -0.074 N 
HETATM    3  C   UNL     1      43.627 -12.712   6.720  1.00  0.00     0.736 A 
HETATM    4  N   UNL     1      44.790 -12.334   7.183  1.00  0.00     0.131 NA
HETATM    5  C   UNL     1      45.226 -11.457   6.234  1.00  0.00     0.753 A 
HETATM    6  N   UNL     1      44.403 -11.255   5.209  1.00  0.00     0.037 NA
HETATM    7  N   UNL     1      42.788 -13.663   7.184  1.00  0.00    -0.214 N 
HETATM    8  C   UNL     1      41.791 -14.241   6.289  1.00  0.00     0.135 C 
HETATM    9  C   UNL     1      41.143 -13.112   5.465  1.00  0.00     0.063 C 
HETATM   10  H   UNL     1      43.162 -14.289   7.894  1.00  0.00     0.178 HD
ENDROOT
BRANCH   1  11
HETATM   11  C   UNL     1      41.586 -10.984   4.191  1.00  0.00    -0.030 A 
HETATM   12  C   UNL     1      41.568 -10.687   2.816  1.00  0.00     0.046 A 
HETATM   13  C   UNL     1      40.986  -9.510   2.337  1.00  0.00     0.068 A 
HETATM   14  C   UNL     1      40.448  -8.594   3.240  1.00  0.00     0.037 A 
HETATM   15  C   UNL     1      40.474  -8.867   4.609  1.00  0.00     0.003 A 
HETATM   16  C   UNL     1      41.035 -10.054   5.083  1.00  0.00     0.009 A 
BRANCH  13  17
HETATM   17  O   UNL     1      41.024  -9.359   0.979  1.00  0.00    -0.356 OA
HETATM   18  C   UNL     1      41.357 -10.524   0.233  1.00  0.00     0.210 C 
ENDBRANCH  13  17
ENDBRANCH   1  11
BRANCH   8  19
HETATM   19  C   UNL     1      42.324 -15.388   5.435  1.00  0.00    -0.035 A 
HETATM   20  C   UNL     1      43.496 -16.102   5.743  1.00  0.00     0.010 A 
HETATM   21  C   UNL     1      43.942 -17.148   4.928  1.00  0.00     0.019 A 
HETATM   22  C   UNL     1      43.219 -17.498   3.792  1.00  0.00     0.011 A 
HETATM   23 BR   UNL     1      43.821 -18.911   2.692  1.00  0.00    -0.051 Br
HETATM   24  C   UNL     1      42.052 -16.814   3.467  1.00  0.00     0.019 A 
HETATM   25  C   UNL     1      41.607 -15.770   4.284  1.00  0.00     0.010 A 
ENDBRANCH   8  19
BRANCH   5  26
HETATM   26  N   UNL     1      46.411 -10.877   6.399  1.00  0.00    -0.229 N 
HETATM   27  H   UNL     1      46.474  -9.904   6.129  1.00  0.00     0.174 HD
HETATM   28  H   UNL     1      47.218 -11.435   6.158  1.00  0.00     0.174 HD
ENDBRANCH   5  26
TORSDOF 4
ENDMDL
MODEL 10
REMARK VINA RESULT:      -7.4     10.973     13.490
REMARK  4 active torsions:
REMARK  status: ('A' for Active; 'I' for Inactive)
REMARK    1  A    between atoms: O_2  and  C_3 
REMARK    2  A    between atoms: C_5  and  C_6 
REMARK    3  A    between atoms: C_10  and  N_11 
REMARK    4  A    between atoms: C_14  and  C_15 
ROOT
HETATM    1  C   UNL     1      41.355  -7.889  12.807  1.00  0.00     0.164 C 
HETATM    2  N   UNL     1      40.436  -8.997  12.571  1.00  0.00    -0.074 N 
HETATM    3  C   UNL     1      39.754  -9.193  11.400  1.00  0.00     0.736 A 
HETATM    4  N   UNL     1      39.105 -10.327  11.468  1.00  0.00     0.131 NA
HETATM    5  C   UNL     1      39.477 -10.819  12.684  1.00  0.00     0.753 A 
HETATM    6  N   UNL     1      40.311 -10.059  13.387  1.00  0.00     0.037 NA
HETATM    7  N   UNL     1      39.860  -8.328  10.369  1.00  0.00    -0.214 N 
HETATM    8  C   UNL     1      40.975  -7.386  10.334  1.00  0.00     0.135 C 
HETATM    9  C   UNL     1      41.169  -6.788  11.741  1.00  0.00     0.063 C 
HETATM   10  H   UNL     1      39.532  -8.658   9.465  1.00  0.00     0.178 HD
ENDROOT
BRANCH   1  11
HETATM   11  C   UNL     1      41.209  -7.308  14.206  1.00  0.00    -0.030 A 
HETATM   12  C   UNL     1      39.976  -6.811  14.668  1.00  0.00     0.046 A 
HETATM   13  C   UNL     1      39.842  -6.296  15.960  1.00  0.00     0.068 A 
HETATM   14  C   UNL     1      40.957  -6.235  16.794  1.00  0.00     0.037 A 
HETATM   15  C   UNL     1      42.191  -6.708  16.344  1.00  0.00     0.003 A 
HETATM   16  C   UNL     1      42.317  -7.244  15.061  1.00  0.00     0.009 A 
BRANCH  13  17
HETATM   17  O   UNL     1      38.584  -5.864  16.282  1.00  0.00    -0.356 OA
HETATM   18  C   UNL     1      38.181  -4.633  15.693  1.00  0.00     0.210 C 
ENDBRANCH  13  17
ENDBRANCH   1  11
BRANCH   8  19
HETATM   19  C   UNL     1      42.253  -7.969   9.738  1.00  0.00    -0.035 A 
HETATM   20  C   UNL     1      42.397  -9.324   9.391  1.00  0.00     0.010 A 
HETATM   21  C   UNL     1      43.590  -9.808   8.845  1.00  0.00     0.019 A 
HETATM   22  C   UNL     1      44.658  -8.942   8.635  1.00  0.00     0.011 A 
HETATM   23 BR   UNL     1      46.270  -9.597   7.897  1.00  0.00    -0.051 Br
HETATM   24  C   UNL     1      44.542  -7.595   8.962  1.00  0.00     0.019 A 
HETATM   25  C   UNL     1      43.347  -7.113   9.507  1.00  0.00     0.010 A 
ENDBRANCH   8  19
BRANCH   5  26
HETATM   26  N   UNL     1      38.987 -11.992  13.074  1.00  0.00    -0.229 N 
HETATM   27  H   UNL     1      39.659 -12.669  13.408  1.00  0.00     0.174 HD
HETATM   28  H   UNL     1      38.248 -12.378  12.502  1.00  0.00     0.174 HD
ENDBRANCH   5  26
TORSDOF 4
ENDMDL
