MODEL 1
REMARK VINA RESULT:      -8.9      0.000      0.000
REMARK  3 active torsions:
REMARK  status: ('A' for Active; 'I' for Inactive)
REMARK    1  A    between atoms: C_6  and  N_7 
REMARK    2  A    between atoms: N_7  and  N_8 
REMARK    3  A    between atoms: C_9  and  C_10 
ROOT
HETATM    1  C   UNL     1      42.718 -13.819   3.677  1.00  0.00     0.024 A 
HETATM    2  C   UNL     1      42.246 -14.073   2.400  1.00  0.00     0.138 A 
HETATM    3 CL   UNL     1      41.587 -12.865   1.368  1.00  0.00    -0.061 Cl
HETATM    4  N   UNL     1      42.250 -15.299   1.821  1.00  0.00    -0.235 NA
HETATM    5  C   UNL     1      42.742 -16.334   2.524  1.00  0.00     0.071 A 
HETATM    6  C   UNL     1      43.246 -16.176   3.835  1.00  0.00    -0.004 A 
HETATM    7  C   UNL     1      43.226 -14.898   4.402  1.00  0.00     0.030 A 
HETATM    8  C   UNL     1      42.768 -17.602   1.960  1.00  0.00     0.072 A 
HETATM    9  C   UNL     1      43.279 -18.697   2.658  1.00  0.00     0.104 A 
HETATM   10  C   UNL     1      43.749 -18.539   3.960  1.00  0.00     0.103 A 
HETATM   11  O   UNL     1      44.235 -19.570   4.720  1.00  0.00    -0.346 OA
HETATM   12  C   UNL     1      43.880 -20.841   4.163  1.00  0.00     0.202 C 
HETATM   13  C   UNL     1      44.124 -20.856   2.663  1.00  0.00     0.202 C 
HETATM   14  O   UNL     1      43.280 -19.902   2.004  1.00  0.00    -0.346 OA
HETATM   15  C   UNL     1      43.749 -17.278   4.545  1.00  0.00     0.053 A 
ENDROOT
BRANCH   1  16
HETATM   16  C   UNL     1      42.704 -12.474   4.282  1.00  0.00     0.154 C 
HETATM   17  N   UNL     1      41.984 -12.238   5.334  1.00  0.00    -0.172 NA
BRANCH  17  18
HETATM   18  N   UNL     1      42.040 -10.967   5.815  1.00  0.00    -0.108 N 
HETATM   19  H   UNL     1      41.544 -10.203   5.360  1.00  0.00     0.208 HD
BRANCH  18  20
HETATM   20  C   UNL     1      42.756 -10.635   6.909  1.00  0.00     0.721 A 
HETATM   21  N   UNL     1      44.043 -10.768   7.127  1.00  0.00    -0.061 NA
HETATM   22  C   UNL     1      44.244 -10.274   8.398  1.00  0.00     0.103 A 
HETATM   23  C   UNL     1      43.050  -9.832   8.960  1.00  0.00     0.078 A 
HETATM   24  C   UNL     1      45.426 -10.170   9.146  1.00  0.00     0.034 A 
HETATM   25  C   UNL     1      42.953  -9.283  10.239  1.00  0.00     0.032 A 
HETATM   26  N   UNL     1      42.123 -10.076   7.986  1.00  0.00    -0.186 N 
HETATM   27  C   UNL     1      44.144  -9.188  10.969  1.00  0.00     0.002 A 
HETATM   28  C   UNL     1      45.360  -9.622  10.434  1.00  0.00     0.002 A 
HETATM   29  H   UNL     1      41.132  -9.894   8.008  1.00  0.00     0.184 HD
ENDBRANCH  18  20
ENDBRANCH  17  18
ENDBRANCH   1  16
TORSDOF 3
ENDMDL
MODEL 2
REMARK VINA RESULT:      -8.8      1.609      2.353
REMARK  3 active torsions:
REMARK  status: ('A' for Active; 'I' for Inactive)
REMARK    1  A    between atoms: C_6  and  N_7 
REMARK    2  A    between atoms: N_7  and  N_8 
REMARK    3  A    between atoms: C_9  and  C_10 
ROOT
HETATM    1  C   UNL     1      43.516 -14.166   5.942  1.00  0.00     0.024 A 
HETATM    2  C   UNL     1      42.826 -13.876   4.777  1.00  0.00     0.138 A 
HETATM    3 CL   UNL     1      42.182 -12.324   4.411  1.00  0.00    -0.061 Cl
HETATM    4  N   UNL     1      42.580 -14.780   3.797  1.00  0.00    -0.235 NA
HETATM    5  C   UNL     1      43.032 -16.035   3.960  1.00  0.00     0.071 A 
HETATM    6  C   UNL     1      43.747 -16.429   5.114  1.00  0.00    -0.004 A 
HETATM    7  C   UNL     1      43.982 -15.472   6.106  1.00  0.00     0.030 A 
HETATM    8  C   UNL     1      42.804 -16.985   2.974  1.00  0.00     0.072 A 
HETATM    9  C   UNL     1      43.267 -18.295   3.107  1.00  0.00     0.104 A 
HETATM   10  C   UNL     1      43.947 -18.684   4.259  1.00  0.00     0.103 A 
HETATM   11  O   UNL     1      44.402 -19.957   4.477  1.00  0.00    -0.346 OA
HETATM   12  C   UNL     1      43.801 -20.888   3.568  1.00  0.00     0.202 C 
HETATM   13  C   UNL     1      43.810 -20.337   2.152  1.00  0.00     0.202 C 
HETATM   14  O   UNL     1      43.009 -19.150   2.066  1.00  0.00    -0.346 OA
HETATM   15  C   UNL     1      44.201 -17.750   5.257  1.00  0.00     0.053 A 
ENDROOT
BRANCH   1  16
HETATM   16  C   UNL     1      43.771 -13.162   6.992  1.00  0.00     0.154 C 
HETATM   17  N   UNL     1      44.689 -12.262   6.825  1.00  0.00    -0.172 NA
BRANCH  17  18
HETATM   18  N   UNL     1      44.846 -11.382   7.851  1.00  0.00    -0.108 N 
HETATM   19  H   UNL     1      45.732 -11.295   8.347  1.00  0.00     0.208 HD
BRANCH  18  20
HETATM   20  C   UNL     1      43.849 -10.583   8.282  1.00  0.00     0.721 A 
HETATM   21  N   UNL     1      43.104  -9.747   7.599  1.00  0.00    -0.061 NA
HETATM   22  C   UNL     1      42.248  -9.190   8.525  1.00  0.00     0.103 A 
HETATM   23  C   UNL     1      42.482  -9.703   9.797  1.00  0.00     0.078 A 
HETATM   24  C   UNL     1      41.238  -8.233   8.353  1.00  0.00     0.034 A 
HETATM   25  C   UNL     1      41.764  -9.319  10.930  1.00  0.00     0.032 A 
HETATM   26  N   UNL     1      43.507 -10.586   9.608  1.00  0.00    -0.186 N 
HETATM   27  C   UNL     1      40.760  -8.362  10.738  1.00  0.00     0.002 A 
HETATM   28  C   UNL     1      40.499  -7.827   9.473  1.00  0.00     0.002 A 
HETATM   29  H   UNL     1      43.967 -11.165  10.293  1.00  0.00     0.184 HD
ENDBRANCH  18  20
ENDBRANCH  17  18
ENDBRANCH   1  16
TORSDOF 3
ENDMDL
MODEL 3
REMARK VINA RESULT:      -8.7      2.451      3.682
REMARK  3 active torsions:
REMARK  status: ('A' for Active; 'I' for Inactive)
REMARK    1  A    between atoms: C_6  and  N_7 
REMARK    2  A    between atoms: N_7  and  N_8 
REMARK    3  A    between atoms: C_9  and  C_10 
ROOT
HETATM    1  C   UNL     1      43.335 -12.082   6.720  1.00  0.00     0.024 A 
HETATM    2  C   UNL     1      42.376 -11.971   5.728  1.00  0.00     0.138 A 
HETATM    3 CL   UNL     1      41.480 -10.534   5.424  1.00  0.00    -0.061 Cl
HETATM    4  N   UNL     1      42.035 -12.977   4.887  1.00  0.00    -0.235 NA
HETATM    5  C   UNL     1      42.664 -14.158   5.019  1.00  0.00     0.071 A 
HETATM    6  C   UNL     1      43.657 -14.371   6.001  1.00  0.00    -0.004 A 
HETATM    7  C   UNL     1      43.984 -13.311   6.852  1.00  0.00     0.030 A 
HETATM    8  C   UNL     1      42.345 -15.209   4.169  1.00  0.00     0.072 A 
HETATM    9  C   UNL     1      42.984 -16.445   4.273  1.00  0.00     0.104 A 
HETATM   10  C   UNL     1      43.943 -16.657   5.262  1.00  0.00     0.103 A 
HETATM   11  O   UNL     1      44.590 -17.850   5.447  1.00  0.00    -0.346 OA
HETATM   12  C   UNL     1      43.924 -18.916   4.758  1.00  0.00     0.202 C 
HETATM   13  C   UNL     1      43.554 -18.493   3.346  1.00  0.00     0.202 C 
HETATM   14  O   UNL     1      42.613 -17.411   3.373  1.00  0.00    -0.346 OA
HETATM   15  C   UNL     1      44.292 -15.618   6.117  1.00  0.00     0.053 A 
ENDROOT
BRANCH   1  16
HETATM   16  C   UNL     1      43.688 -10.969   7.621  1.00  0.00     0.154 C 
HETATM   17  N   UNL     1      44.268 -11.206   8.756  1.00  0.00    -0.172 NA
BRANCH  17  18
HETATM   18  N   UNL     1      44.552 -10.112   9.513  1.00  0.00    -0.108 N 
HETATM   19  H   UNL     1      45.341  -9.504   9.295  1.00  0.00     0.208 HD
BRANCH  18  20
HETATM   20  C   UNL     1      43.826  -9.768  10.596  1.00  0.00     0.721 A 
HETATM   21  N   UNL     1      44.086  -8.870  11.516  1.00  0.00    -0.061 NA
HETATM   22  C   UNL     1      43.020  -8.929  12.387  1.00  0.00     0.103 A 
HETATM   23  C   UNL     1      42.094  -9.886  11.983  1.00  0.00     0.078 A 
HETATM   24  C   UNL     1      42.771  -8.193  13.554  1.00  0.00     0.034 A 
HETATM   25  C   UNL     1      40.915 -10.163  12.676  1.00  0.00     0.032 A 
HETATM   26  N   UNL     1      42.637 -10.402  10.840  1.00  0.00    -0.186 N 
HETATM   27  C   UNL     1      40.685  -9.418  13.839  1.00  0.00     0.002 A 
HETATM   28  C   UNL     1      41.595  -8.449  14.272  1.00  0.00     0.002 A 
HETATM   29  H   UNL     1      42.267 -11.123  10.243  1.00  0.00     0.184 HD
ENDBRANCH  18  20
ENDBRANCH  17  18
ENDBRANCH   1  16
TORSDOF 3
ENDMDL
MODEL 4
REMARK VINA RESULT:      -8.7      3.356      9.132
REMARK  3 active torsions:
REMARK  status: ('A' for Active; 'I' for Inactive)
REMARK    1  A    between atoms: C_6  and  N_7 
REMARK    2  A    between atoms: N_7  and  N_8 
REMARK    3  A    between atoms: C_9  and  C_10 
ROOT
HETATM    1  C   UNL     1      43.048 -12.263   4.423  1.00  0.00     0.024 A 
HETATM    2  C   UNL     1      42.334 -11.098   4.202  1.00  0.00     0.138 A 
HETATM    3 CL   UNL     1      41.534 -10.735   2.723  1.00  0.00    -0.061 Cl
HETATM    4  N   UNL     1      42.185 -10.114   5.123  1.00  0.00    -0.235 NA
HETATM    5  C   UNL     1      42.763 -10.276   6.326  1.00  0.00     0.071 A 
HETATM    6  C   UNL     1      43.513 -11.429   6.647  1.00  0.00    -0.004 A 
HETATM    7  C   UNL     1      43.647 -12.424   5.673  1.00  0.00     0.030 A 
HETATM    8  C   UNL     1      42.626  -9.291   7.295  1.00  0.00     0.072 A 
HETATM    9  C   UNL     1      43.206  -9.429   8.557  1.00  0.00     0.104 A 
HETATM   10  C   UNL     1      43.967 -10.557   8.858  1.00  0.00     0.103 A 
HETATM   11  O   UNL     1      44.593 -10.749  10.061  1.00  0.00    -0.346 OA
HETATM   12  C   UNL     1      44.664  -9.531  10.813  1.00  0.00     0.202 C 
HETATM   13  C   UNL     1      43.328  -8.808  10.787  1.00  0.00     0.202 C 
HETATM   14  O   UNL     1      42.992  -8.411   9.450  1.00  0.00    -0.346 OA
HETATM   15  C   UNL     1      44.109 -11.565   7.911  1.00  0.00     0.053 A 
ENDROOT
BRANCH   1  16
HETATM   16  C   UNL     1      43.192 -13.319   3.403  1.00  0.00     0.154 C 
HETATM   17  N   UNL     1      42.652 -14.483   3.587  1.00  0.00    -0.172 NA
BRANCH  17  18
HETATM   18  N   UNL     1      42.841 -15.387   2.588  1.00  0.00    -0.108 N 
HETATM   19  H   UNL     1      42.789 -15.115   1.607  1.00  0.00     0.208 HD
BRANCH  18  20
HETATM   20  C   UNL     1      43.097 -16.690   2.825  1.00  0.00     0.721 A 
HETATM   21  N   UNL     1      42.980 -17.716   2.017  1.00  0.00    -0.061 NA
HETATM   22  C   UNL     1      43.368 -18.807   2.764  1.00  0.00     0.103 A 
HETATM   23  C   UNL     1      43.727 -18.430   4.054  1.00  0.00     0.078 A 
HETATM   24  C   UNL     1      43.438 -20.161   2.408  1.00  0.00     0.034 A 
HETATM   25  C   UNL     1      44.161 -19.328   5.031  1.00  0.00     0.032 A 
HETATM   26  N   UNL     1      43.543 -17.076   4.060  1.00  0.00    -0.186 N 
HETATM   27  C   UNL     1      44.224 -20.675   4.656  1.00  0.00     0.002 A 
HETATM   28  C   UNL     1      43.870 -21.087   3.367  1.00  0.00     0.002 A 
HETATM   29  H   UNL     1      43.696 -16.428   4.817  1.00  0.00     0.184 HD
ENDBRANCH  18  20
ENDBRANCH  17  18
ENDBRANCH   1  16
TORSDOF 3
ENDMDL
MODEL 5
REMARK VINA RESULT:      -8.5      1.096      1.582
REMARK  3 active torsions:
REMARK  status: ('A' for Active; 'I' for Inactive)
REMARK    1  A    between atoms: C_6  and  N_7 
REMARK    2  A    between atoms: N_7  and  N_8 
REMARK    3  A    between atoms: C_9  and  C_10 
ROOT
HETATM    1  C   UNL     1      41.534 -13.320   4.499  1.00  0.00     0.024 A 
HETATM    2  C   UNL     1      40.783 -13.604   3.371  1.00  0.00     0.138 A 
HETATM    3 CL   UNL     1      39.643 -12.513   2.684  1.00  0.00    -0.061 Cl
HETATM    4  N   UNL     1      40.860 -14.769   2.682  1.00  0.00    -0.235 NA
HETATM    5  C   UNL     1      41.718 -15.709   3.116  1.00  0.00     0.071 A 
HETATM    6  C   UNL     1      42.527 -15.514   4.257  1.00  0.00    -0.004 A 
HETATM    7  C   UNL     1      42.421 -14.301   4.944  1.00  0.00     0.030 A 
HETATM    8  C   UNL     1      41.827 -16.912   2.431  1.00  0.00     0.072 A 
HETATM    9  C   UNL     1      42.713 -17.906   2.848  1.00  0.00     0.104 A 
HETATM   10  C   UNL     1      43.489 -17.718   3.991  1.00  0.00     0.103 A 
HETATM   11  O   UNL     1      44.355 -18.659   4.481  1.00  0.00    -0.346 OA
HETATM   12  C   UNL     1      44.109 -19.947   3.903  1.00  0.00     0.202 C 
HETATM   13  C   UNL     1      43.923 -19.832   2.399  1.00  0.00     0.202 C 
HETATM   14  O   UNL     1      42.762 -19.048   2.090  1.00  0.00    -0.346 OA
HETATM   15  C   UNL     1      43.409 -16.518   4.688  1.00  0.00     0.053 A 
ENDROOT
BRANCH   1  16
HETATM   16  C   UNL     1      41.432 -12.042   5.228  1.00  0.00     0.154 C 
HETATM   17  N   UNL     1      42.264 -11.080   4.979  1.00  0.00    -0.172 NA
BRANCH  17  18
HETATM   18  N   UNL     1      42.085  -9.943   5.704  1.00  0.00    -0.108 N 
HETATM   19  H   UNL     1      41.549  -9.157   5.338  1.00  0.00     0.208 HD
BRANCH  18  20
HETATM   20  C   UNL     1      42.608  -9.775   6.936  1.00  0.00     0.721 A 
HETATM   21  N   UNL     1      42.080  -9.194   7.987  1.00  0.00    -0.061 NA
HETATM   22  C   UNL     1      43.036  -9.300   8.974  1.00  0.00     0.103 A 
HETATM   23  C   UNL     1      44.167  -9.963   8.507  1.00  0.00     0.078 A 
HETATM   24  C   UNL     1      43.011  -8.852  10.302  1.00  0.00     0.034 A 
HETATM   25  C   UNL     1      45.295 -10.213   9.290  1.00  0.00     0.032 A 
HETATM   26  N   UNL     1      43.862 -10.252   7.207  1.00  0.00    -0.186 N 
HETATM   27  C   UNL     1      45.250  -9.758  10.613  1.00  0.00     0.002 A 
HETATM   28  C   UNL     1      44.129  -9.089  11.113  1.00  0.00     0.002 A 
HETATM   29  H   UNL     1      44.428 -10.730   6.524  1.00  0.00     0.184 HD
ENDBRANCH  18  20
ENDBRANCH  17  18
ENDBRANCH   1  16
TORSDOF 3
ENDMDL
MODEL 6
REMARK VINA RESULT:      -8.4      4.560     10.137
REMARK  3 active torsions:
REMARK  status: ('A' for Active; 'I' for Inactive)
REMARK    1  A    between atoms: C_6  and  N_7 
REMARK    2  A    between atoms: N_7  and  N_8 
REMARK    3  A    between atoms: C_9  and  C_10 
ROOT
HETATM    1  C   UNL     1      43.532 -10.443   7.287  1.00  0.00     0.024 A 
HETATM    2  C   UNL     1      44.779 -10.477   7.889  1.00  0.00     0.138 A 
HETATM    3 CL   UNL     1      46.187 -11.111   7.131  1.00  0.00    -0.061 Cl
HETATM    4  N   UNL     1      45.030 -10.018   9.139  1.00  0.00    -0.235 NA
HETATM    5  C   UNL     1      44.010  -9.494   9.842  1.00  0.00     0.071 A 
HETATM    6  C   UNL     1      42.702  -9.414   9.315  1.00  0.00    -0.004 A 
HETATM    7  C   UNL     1      42.478  -9.899   8.023  1.00  0.00     0.030 A 
HETATM    8  C   UNL     1      44.233  -9.007  11.123  1.00  0.00     0.072 A 
HETATM    9  C   UNL     1      43.199  -8.450  11.877  1.00  0.00     0.104 A 
HETATM   10  C   UNL     1      41.905  -8.399  11.362  1.00  0.00     0.103 A 
HETATM   11  O   UNL     1      40.834  -7.898  12.053  1.00  0.00    -0.346 OA
HETATM   12  C   UNL     1      41.129  -7.767  13.449  1.00  0.00     0.202 C 
HETATM   13  C   UNL     1      42.496  -7.134  13.651  1.00  0.00     0.202 C 
HETATM   14  O   UNL     1      43.528  -7.977  13.122  1.00  0.00    -0.346 OA
HETATM   15  C   UNL     1      41.657  -8.866  10.076  1.00  0.00     0.053 A 
ENDROOT
BRANCH   1  16
HETATM   16  C   UNL     1      43.288 -10.948   5.923  1.00  0.00     0.154 C 
HETATM   17  N   UNL     1      42.775 -12.125   5.746  1.00  0.00    -0.172 NA
BRANCH  17  18
HETATM   18  N   UNL     1      42.588 -12.498   4.451  1.00  0.00    -0.108 N 
HETATM   19  H   UNL     1      42.271 -11.835   3.746  1.00  0.00     0.208 HD
BRANCH  18  20
HETATM   20  C   UNL     1      42.797 -13.759   4.020  1.00  0.00     0.721 A 
HETATM   21  N   UNL     1      42.796 -14.225   2.793  1.00  0.00    -0.061 NA
HETATM   22  C   UNL     1      43.061 -15.571   2.921  1.00  0.00     0.103 A 
HETATM   23  C   UNL     1      43.227 -15.926   4.256  1.00  0.00     0.078 A 
HETATM   24  C   UNL     1      43.176 -16.563   1.936  1.00  0.00     0.034 A 
HETATM   25  C   UNL     1      43.505 -17.225   4.683  1.00  0.00     0.032 A 
HETATM   26  N   UNL     1      43.053 -14.749   4.929  1.00  0.00    -0.186 N 
HETATM   27  C   UNL     1      43.615 -18.200   3.685  1.00  0.00     0.002 A 
HETATM   28  C   UNL     1      43.454 -17.877   2.334  1.00  0.00     0.002 A 
HETATM   29  H   UNL     1      43.095 -14.586   5.922  1.00  0.00     0.184 HD
ENDBRANCH  18  20
ENDBRANCH  17  18
ENDBRANCH   1  16
TORSDOF 3
ENDMDL
MODEL 7
REMARK VINA RESULT:      -8.3      3.405      4.584
REMARK  3 active torsions:
REMARK  status: ('A' for Active; 'I' for Inactive)
REMARK    1  A    between atoms: C_6  and  N_7 
REMARK    2  A    between atoms: N_7  and  N_8 
REMARK    3  A    between atoms: C_9  and  C_10 
ROOT
HETATM    1  C   UNL     1      42.742 -14.085   4.888  1.00  0.00     0.024 A 
HETATM    2  C   UNL     1      42.066 -15.293   4.884  1.00  0.00     0.138 A 
HETATM    3 CL   UNL     1      42.092 -16.405   6.197  1.00  0.00    -0.061 Cl
HETATM    4  N   UNL     1      41.309 -15.735   3.850  1.00  0.00    -0.235 NA
HETATM    5  C   UNL     1      41.205 -14.956   2.759  1.00  0.00     0.071 A 
HETATM    6  C   UNL     1      41.858 -13.706   2.667  1.00  0.00    -0.004 A 
HETATM    7  C   UNL     1      42.630 -13.282   3.752  1.00  0.00     0.030 A 
HETATM    8  C   UNL     1      40.432 -15.374   1.684  1.00  0.00     0.072 A 
HETATM    9  C   UNL     1      40.296 -14.587   0.539  1.00  0.00     0.104 A 
HETATM   10  C   UNL     1      40.964 -13.368   0.444  1.00  0.00     0.103 A 
HETATM   11  O   UNL     1      40.906 -12.557  -0.658  1.00  0.00    -0.346 OA
HETATM   12  C   UNL     1      40.383 -13.257  -1.795  1.00  0.00     0.202 C 
HETATM   13  C   UNL     1      39.154 -14.062  -1.409  1.00  0.00     0.202 C 
HETATM   14  O   UNL     1      39.493 -15.080  -0.458  1.00  0.00    -0.346 OA
HETATM   15  C   UNL     1      41.733 -12.919   1.511  1.00  0.00     0.053 A 
ENDROOT
BRANCH   1  16
HETATM   16  C   UNL     1      43.557 -13.628   6.029  1.00  0.00     0.154 C 
HETATM   17  N   UNL     1      44.006 -12.412   6.065  1.00  0.00    -0.172 NA
BRANCH  17  18
HETATM   18  N   UNL     1      44.746 -12.088   7.160  1.00  0.00    -0.108 N 
HETATM   19  H   UNL     1      45.660 -12.506   7.327  1.00  0.00     0.208 HD
BRANCH  18  20
HETATM   20  C   UNL     1      44.320 -11.212   8.092  1.00  0.00     0.721 A 
HETATM   21  N   UNL     1      44.895 -10.855   9.216  1.00  0.00    -0.061 NA
HETATM   22  C   UNL     1      44.036  -9.939   9.783  1.00  0.00     0.103 A 
HETATM   23  C   UNL     1      42.917  -9.737   8.981  1.00  0.00     0.078 A 
HETATM   24  C   UNL     1      44.144  -9.231  10.989  1.00  0.00     0.034 A 
HETATM   25  C   UNL     1      41.880  -8.862   9.307  1.00  0.00     0.032 A 
HETATM   26  N   UNL     1      43.129 -10.562   7.913  1.00  0.00    -0.186 N 
HETATM   27  C   UNL     1      42.006  -8.166  10.514  1.00  0.00     0.002 A 
HETATM   28  C   UNL     1      43.118  -8.345  11.343  1.00  0.00     0.002 A 
HETATM   29  H   UNL     1      42.541 -10.704   7.107  1.00  0.00     0.184 HD
ENDBRANCH  18  20
ENDBRANCH  17  18
ENDBRANCH   1  16
TORSDOF 3
ENDMDL
MODEL 8
REMARK VINA RESULT:      -8.1      6.368      9.601
REMARK  3 active torsions:
REMARK  status: ('A' for Active; 'I' for Inactive)
REMARK    1  A    between atoms: C_6  and  N_7 
REMARK    2  A    between atoms: N_7  and  N_8 
REMARK    3  A    between atoms: C_9  and  C_10 
ROOT
HETATM    1  C   UNL     1      40.294 -12.862  -0.391  1.00  0.00     0.024 A 
HETATM    2  C   UNL     1      39.845 -13.130  -1.673  1.00  0.00     0.138 A 
HETATM    3 CL   UNL     1      39.053 -14.590  -2.121  1.00  0.00    -0.061 Cl
HETATM    4  N   UNL     1      39.979 -12.276  -2.717  1.00  0.00    -0.235 NA
HETATM    5  C   UNL     1      40.582 -11.095  -2.499  1.00  0.00     0.071 A 
HETATM    6  C   UNL     1      41.074 -10.729  -1.226  1.00  0.00    -0.004 A 
HETATM    7  C   UNL     1      40.920 -11.634  -0.172  1.00  0.00     0.030 A 
HETATM    8  C   UNL     1      40.731 -10.193  -3.544  1.00  0.00     0.072 A 
HETATM    9  C   UNL     1      41.345  -8.954  -3.352  1.00  0.00     0.104 A 
HETATM   10  C   UNL     1      41.852  -8.611  -2.100  1.00  0.00     0.103 A 
HETATM   11  O   UNL     1      42.495  -7.430  -1.841  1.00  0.00    -0.346 OA
HETATM   12  C   UNL     1      42.885  -6.771  -3.053  1.00  0.00     0.202 C 
HETATM   13  C   UNL     1      41.745  -6.783  -4.059  1.00  0.00     0.202 C 
HETATM   14  O   UNL     1      41.422  -8.126  -4.443  1.00  0.00    -0.346 OA
HETATM   15  C   UNL     1      41.705  -9.489  -1.033  1.00  0.00     0.053 A 
ENDROOT
BRANCH   1  16
HETATM   16  C   UNL     1      40.132 -13.810   0.728  1.00  0.00     0.154 C 
HETATM   17  N   UNL     1      40.830 -13.667   1.811  1.00  0.00    -0.172 NA
BRANCH  17  18
HETATM   18  N   UNL     1      40.607 -14.591   2.783  1.00  0.00    -0.108 N 
HETATM   19  H   UNL     1      39.762 -14.573   3.352  1.00  0.00     0.208 HD
BRANCH  18  20
HETATM   20  C   UNL     1      41.485 -15.576   3.066  1.00  0.00     0.721 A 
HETATM   21  N   UNL     1      42.302 -15.688   4.085  1.00  0.00    -0.061 NA
HETATM   22  C   UNL     1      42.969 -16.877   3.881  1.00  0.00     0.103 A 
HETATM   23  C   UNL     1      42.542 -17.497   2.711  1.00  0.00     0.078 A 
HETATM   24  C   UNL     1      43.959 -17.497   4.656  1.00  0.00     0.034 A 
HETATM   25  C   UNL     1      43.045 -18.716   2.253  1.00  0.00     0.032 A 
HETATM   26  N   UNL     1      41.597 -16.643   2.216  1.00  0.00    -0.186 N 
HETATM   27  C   UNL     1      44.033 -19.319   3.041  1.00  0.00     0.002 A 
HETATM   28  C   UNL     1      44.483 -18.723   4.222  1.00  0.00     0.002 A 
HETATM   29  H   UNL     1      41.050 -16.737   1.375  1.00  0.00     0.184 HD
ENDBRANCH  18  20
ENDBRANCH  17  18
ENDBRANCH   1  16
TORSDOF 3
ENDMDL
MODEL 9
REMARK VINA RESULT:      -8.1      6.207      9.502
REMARK  3 active torsions:
REMARK  status: ('A' for Active; 'I' for Inactive)
REMARK    1  A    between atoms: C_6  and  N_7 
REMARK    2  A    between atoms: N_7  and  N_8 
REMARK    3  A    between atoms: C_9  and  C_10 
ROOT
HETATM    1  C   UNL     1      41.096 -12.124   0.719  1.00  0.00     0.024 A 
HETATM    2  C   UNL     1      41.679 -11.045   1.362  1.00  0.00     0.138 A 
HETATM    3 CL   UNL     1      42.122 -11.050   3.024  1.00  0.00    -0.061 Cl
HETATM    4  N   UNL     1      41.966  -9.866   0.756  1.00  0.00    -0.235 NA
HETATM    5  C   UNL     1      41.669  -9.733  -0.549  1.00  0.00     0.071 A 
HETATM    6  C   UNL     1      41.072 -10.776  -1.291  1.00  0.00    -0.004 A 
HETATM    7  C   UNL     1      40.789 -11.977  -0.634  1.00  0.00     0.030 A 
HETATM    8  C   UNL     1      41.956  -8.542  -1.203  1.00  0.00     0.072 A 
HETATM    9  C   UNL     1      41.668  -8.371  -2.558  1.00  0.00     0.104 A 
HETATM   10  C   UNL     1      41.054  -9.394  -3.278  1.00  0.00     0.103 A 
HETATM   11  O   UNL     1      40.712  -9.290  -4.600  1.00  0.00    -0.346 OA
HETATM   12  C   UNL     1      40.735  -7.927  -5.039  1.00  0.00     0.202 C 
HETATM   13  C   UNL     1      41.992  -7.227  -4.548  1.00  0.00     0.202 C 
HETATM   14  O   UNL     1      42.011  -7.165  -3.116  1.00  0.00    -0.346 OA
HETATM   15  C   UNL     1      40.769 -10.602  -2.651  1.00  0.00     0.053 A 
ENDROOT
BRANCH   1  16
HETATM   16  C   UNL     1      40.796 -13.396   1.403  1.00  0.00     0.154 C 
HETATM   17  N   UNL     1      39.619 -13.607   1.902  1.00  0.00    -0.172 NA
BRANCH  17  18
HETATM   18  N   UNL     1      39.444 -14.811   2.511  1.00  0.00    -0.108 N 
HETATM   19  H   UNL     1      38.514 -15.192   2.681  1.00  0.00     0.208 HD
BRANCH  18  20
HETATM   20  C   UNL     1      40.476 -15.568   2.936  1.00  0.00     0.721 A 
HETATM   21  N   UNL     1      41.044 -15.605   4.118  1.00  0.00    -0.061 NA
HETATM   22  C   UNL     1      42.045 -16.545   4.007  1.00  0.00     0.103 A 
HETATM   23  C   UNL     1      42.081 -17.091   2.727  1.00  0.00     0.078 A 
HETATM   24  C   UNL     1      42.970 -16.991   4.961  1.00  0.00     0.034 A 
HETATM   25  C   UNL     1      42.994 -18.068   2.328  1.00  0.00     0.032 A 
HETATM   26  N   UNL     1      41.070 -16.447   2.071  1.00  0.00    -0.186 N 
HETATM   27  C   UNL     1      43.909 -18.499   3.295  1.00  0.00     0.002 A 
HETATM   28  C   UNL     1      43.899 -17.972   4.590  1.00  0.00     0.002 A 
HETATM   29  H   UNL     1      40.772 -16.563   1.115  1.00  0.00     0.184 HD
ENDBRANCH  18  20
ENDBRANCH  17  18
ENDBRANCH   1  16
TORSDOF 3
ENDMDL
MODEL 10
REMARK VINA RESULT:      -7.7      4.537     10.077
REMARK  3 active torsions:
REMARK  status: ('A' for Active; 'I' for Inactive)
REMARK    1  A    between atoms: C_6  and  N_7 
REMARK    2  A    between atoms: N_7  and  N_8 
REMARK    3  A    between atoms: C_9  and  C_10 
ROOT
HETATM    1  C   UNL     1      41.895  -9.858   7.213  1.00  0.00     0.024 A 
HETATM    2  C   UNL     1      40.546  -9.740   7.502  1.00  0.00     0.138 A 
HETATM    3 CL   UNL     1      39.295 -10.058   6.365  1.00  0.00    -0.061 Cl
HETATM    4  N   UNL     1      40.060  -9.362   8.710  1.00  0.00    -0.235 NA
HETATM    5  C   UNL     1      40.937  -9.084   9.690  1.00  0.00     0.071 A 
HETATM    6  C   UNL     1      42.333  -9.175   9.494  1.00  0.00    -0.004 A 
HETATM    7  C   UNL     1      42.800  -9.567   8.235  1.00  0.00     0.030 A 
HETATM    8  C   UNL     1      40.474  -8.700  10.942  1.00  0.00     0.072 A 
HETATM    9  C   UNL     1      41.356  -8.413  11.984  1.00  0.00     0.104 A 
HETATM   10  C   UNL     1      42.732  -8.478  11.776  1.00  0.00     0.103 A 
HETATM   11  O   UNL     1      43.659  -8.179  12.739  1.00  0.00    -0.346 OA
HETATM   12  C   UNL     1      43.064  -7.473  13.835  1.00  0.00     0.202 C 
HETATM   13  C   UNL     1      41.759  -8.131  14.250  1.00  0.00     0.202 C 
HETATM   14  O   UNL     1      40.798  -8.064  13.188  1.00  0.00    -0.346 OA
HETATM   15  C   UNL     1      43.223  -8.873  10.537  1.00  0.00     0.053 A 
ENDROOT
BRANCH   1  16
HETATM   16  C   UNL     1      42.397 -10.274   5.890  1.00  0.00     0.154 C 
HETATM   17  N   UNL     1      42.365 -11.522   5.543  1.00  0.00    -0.172 NA
BRANCH  17  18
HETATM   18  N   UNL     1      42.850 -11.803   4.303  1.00  0.00    -0.108 N 
HETATM   19  H   UNL     1      43.152 -11.064   3.669  1.00  0.00     0.208 HD
BRANCH  18  20
HETATM   20  C   UNL     1      42.951 -13.062   3.829  1.00  0.00     0.721 A 
HETATM   21  N   UNL     1      43.107 -13.471   2.593  1.00  0.00    -0.061 NA
HETATM   22  C   UNL     1      43.149 -14.846   2.672  1.00  0.00     0.103 A 
HETATM   23  C   UNL     1      43.015 -15.277   3.988  1.00  0.00     0.078 A 
HETATM   24  C   UNL     1      43.298 -15.801   1.656  1.00  0.00     0.034 A 
HETATM   25  C   UNL     1      43.021 -16.620   4.367  1.00  0.00     0.032 A 
HETATM   26  N   UNL     1      42.891 -14.116   4.700  1.00  0.00    -0.186 N 
HETATM   27  C   UNL     1      43.171 -17.558   3.339  1.00  0.00     0.002 A 
HETATM   28  C   UNL     1      43.308 -17.158   2.006  1.00  0.00     0.002 A 
HETATM   29  H   UNL     1      42.774 -14.003   5.694  1.00  0.00     0.184 HD
ENDBRANCH  18  20
ENDBRANCH  17  18
ENDBRANCH   1  16
TORSDOF 3
ENDMDL
