MODEL 1
REMARK VINA RESULT:      -9.5      0.000      0.000
REMARK  9 active torsions:
REMARK  status: ('A' for Active; 'I' for Inactive)
REMARK    1  A    between atoms: C_2  and  C_3 
REMARK    2  A    between atoms: C_3  and  C_4 
REMARK    3  A    between atoms: C_3  and  C_39 
REMARK    4  A    between atoms: C_6  and  C_7 
REMARK    5  A    between atoms: C_14  and  C_15 
REMARK    6  A    between atoms: C_18  and  C_19 
REMARK    7  A    between atoms: C_19  and  N_20 
REMARK       I    between atoms: N_20  and  C_21 
REMARK       I    between atoms: C_21  and  N_22 
REMARK    8  A    between atoms: N_22  and  C_23 
REMARK    9  A    between atoms: C_25  and  C_26 
ROOT
HETATM    1  C   UNL     1      41.939 -15.025   1.879  1.00  0.00     0.068 C 
HETATM    2  C   UNL     1      41.245 -16.305   2.423  1.00  0.00     0.001 C 
HETATM    3  C   UNL     1      40.583 -16.005   3.789  1.00  0.00     0.040 C 
HETATM    4  C   UNL     1      41.648 -15.650   4.844  1.00  0.00     0.206 C 
HETATM    5  N   UNL     1      42.964 -15.488   4.090  1.00  0.00    -0.065 N 
HETATM    6  H   UNL     1      43.665 -15.105   4.762  1.00  0.00     0.280 HD
HETATM    7  C   UNL     1      42.888 -14.472   2.958  1.00  0.00     0.246 C 
HETATM    8  C   UNL     1      42.345 -17.369   2.651  1.00  0.00     0.033 C 
HETATM    9  C   UNL     1      43.440 -16.820   3.574  1.00  0.00     0.236 C 
ENDROOT
BRANCH   1  10
HETATM   10  C   UNL     1      40.952 -14.000   1.363  1.00  0.00     0.045 A 
HETATM   11  N   UNL     1      40.519 -13.047   2.216  1.00  0.00    -0.233 NA
HETATM   12  C   UNL     1      39.610 -12.166   1.740  1.00  0.00     0.160 A 
HETATM   13  N   UNL     1      39.095 -12.210   0.499  1.00  0.00    -0.233 NA
HETATM   14  C   UNL     1      39.536 -13.173  -0.332  1.00  0.00     0.043 A 
HETATM   15  C   UNL     1      40.479 -14.100   0.066  1.00  0.00     0.055 A 
BRANCH  12  16
HETATM   16  C   UNL     1      39.137 -11.093   2.633  1.00  0.00     0.014 A 
HETATM   17  C   UNL     1      38.574  -9.913   2.121  1.00  0.00     0.034 A 
HETATM   18  C   UNL     1      38.135  -8.930   2.994  1.00  0.00     0.117 A 
HETATM   19  N   UNL     1      38.212  -9.034   4.335  1.00  0.00    -0.273 NA
HETATM   20  C   UNL     1      38.766 -10.159   4.823  1.00  0.00     0.117 A 
HETATM   21  C   UNL     1      39.234 -11.195   4.029  1.00  0.00     0.034 A 
ENDBRANCH  12  16
BRANCH  14  22
HETATM   22  C   UNL     1      38.929 -13.241  -1.724  1.00  0.00     0.037 C 
BRANCH  22  23
HETATM   23  C   UNL     1      39.160 -14.619  -2.382  1.00  0.00     0.006 C 
HETATM   24  C   UNL     1      38.225 -14.891  -3.553  1.00  0.00     0.006 C 
ENDBRANCH  22  23
BRANCH  22  25
HETATM   25  C   UNL     1      39.504 -12.128  -2.626  1.00  0.00     0.006 C 
HETATM   26  C   UNL     1      40.937 -12.391  -3.073  1.00  0.00     0.006 C 
ENDBRANCH  22  25
ENDBRANCH  14  22
ENDBRANCH   1  10
BRANCH   4  27
HETATM   27  C   UNL     1      41.268 -14.425   5.719  1.00  0.00     0.157 C 
BRANCH  27  28
HETATM   28  N   UNL     1      42.293 -13.958   6.658  1.00  0.00    -0.341 N 
HETATM   29  C   UNL     1      42.888 -12.725   6.529  1.00  0.00     0.320 C 
HETATM   30  N   UNL     1      43.630 -12.378   7.627  1.00  0.00    -0.309 N 
HETATM   31  O   UNL     1      42.758 -12.073   5.499  1.00  0.00    -0.247 OA
HETATM   32  H   UNL     1      43.862 -13.114   8.279  1.00  0.00     0.170 HD
HETATM   33  H   UNL     1      42.158 -14.252   7.618  1.00  0.00     0.164 HD
BRANCH  30  34
HETATM   34  C   UNL     1      44.247 -11.126   7.853  1.00  0.00     0.037 A 
HETATM   35  C   UNL     1      43.545  -9.976   8.228  1.00  0.00     0.044 A 
HETATM   36  C   UNL     1      44.208  -8.758   8.446  1.00  0.00     0.011 A 
HETATM   37  C   UNL     1      45.596  -8.693   8.291  1.00  0.00     0.015 A 
HETATM   38  C   UNL     1      46.306  -9.839   7.931  1.00  0.00     0.003 A 
HETATM   39  C   UNL     1      45.637 -11.049   7.716  1.00  0.00     0.029 A 
BRANCH  36  40
HETATM   40  C   UNL     1      43.386  -7.573   8.832  1.00  0.00     0.155 C 
HETATM   41  C   UNL     1      43.053  -7.353  10.284  1.00  0.00     0.096 C 
HETATM   42  O   UNL     1      43.003  -6.790   7.964  1.00  0.00    -0.293 OA
ENDBRANCH  36  40
ENDBRANCH  30  34
ENDBRANCH  27  28
ENDBRANCH   4  27
TORSDOF 9
ENDMDL
MODEL 2
REMARK VINA RESULT:      -9.3      1.471      3.818
REMARK  9 active torsions:
REMARK  status: ('A' for Active; 'I' for Inactive)
REMARK    1  A    between atoms: C_2  and  C_3 
REMARK    2  A    between atoms: C_3  and  C_4 
REMARK    3  A    between atoms: C_3  and  C_39 
REMARK    4  A    between atoms: C_6  and  C_7 
REMARK    5  A    between atoms: C_14  and  C_15 
REMARK    6  A    between atoms: C_18  and  C_19 
REMARK    7  A    between atoms: C_19  and  N_20 
REMARK       I    between atoms: N_20  and  C_21 
REMARK       I    between atoms: C_21  and  N_22 
REMARK    8  A    between atoms: N_22  and  C_23 
REMARK    9  A    between atoms: C_25  and  C_26 
ROOT
HETATM    1  C   UNL     1      42.406 -15.193   1.931  1.00  0.00     0.068 C 
HETATM    2  C   UNL     1      41.473 -16.370   2.332  1.00  0.00     0.001 C 
HETATM    3  C   UNL     1      40.654 -15.990   3.588  1.00  0.00     0.040 C 
HETATM    4  C   UNL     1      41.581 -15.786   4.801  1.00  0.00     0.206 C 
HETATM    5  N   UNL     1      43.007 -15.800   4.261  1.00  0.00    -0.065 N 
HETATM    6  H   UNL     1      43.640 -15.519   5.040  1.00  0.00     0.280 HD
HETATM    7  C   UNL     1      43.242 -14.778   3.156  1.00  0.00     0.246 C 
HETATM    8  C   UNL     1      42.373 -17.573   2.698  1.00  0.00     0.033 C 
HETATM    9  C   UNL     1      43.376 -17.182   3.790  1.00  0.00     0.236 C 
ENDROOT
BRANCH   1  10
HETATM   10  C   UNL     1      41.655 -14.042   1.297  1.00  0.00     0.045 A 
HETATM   11  N   UNL     1      40.796 -14.319   0.293  1.00  0.00    -0.233 NA
HETATM   12  C   UNL     1      40.165 -13.269  -0.281  1.00  0.00     0.160 A 
HETATM   13  N   UNL     1      40.371 -11.986   0.063  1.00  0.00    -0.233 NA
HETATM   14  C   UNL     1      41.237 -11.733   1.063  1.00  0.00     0.043 A 
HETATM   15  C   UNL     1      41.908 -12.747   1.716  1.00  0.00     0.055 A 
BRANCH  12  16
HETATM   16  C   UNL     1      39.197 -13.535  -1.361  1.00  0.00     0.014 A 
HETATM   17  C   UNL     1      39.316 -14.666  -2.183  1.00  0.00     0.034 A 
HETATM   18  C   UNL     1      38.382 -14.886  -3.183  1.00  0.00     0.117 A 
HETATM   19  N   UNL     1      37.341 -14.066  -3.424  1.00  0.00    -0.273 NA
HETATM   20  C   UNL     1      37.238 -12.973  -2.645  1.00  0.00     0.117 A 
HETATM   21  C   UNL     1      38.124 -12.671  -1.622  1.00  0.00     0.034 A 
ENDBRANCH  12  16
BRANCH  14  22
HETATM   22  C   UNL     1      41.493 -10.280   1.428  1.00  0.00     0.037 C 
BRANCH  22  23
HETATM   23  C   UNL     1      40.522  -9.786   2.523  1.00  0.00     0.006 C 
HETATM   24  C   UNL     1      41.230  -9.295   3.779  1.00  0.00     0.006 C 
ENDBRANCH  22  23
BRANCH  22  25
HETATM   25  C   UNL     1      41.382  -9.375   0.183  1.00  0.00     0.006 C 
HETATM   26  C   UNL     1      40.225  -8.384   0.257  1.00  0.00     0.006 C 
ENDBRANCH  22  25
ENDBRANCH  14  22
ENDBRANCH   1  10
BRANCH   4  27
HETATM   27  C   UNL     1      41.236 -14.525   5.638  1.00  0.00     0.157 C 
BRANCH  27  28
HETATM   28  N   UNL     1      42.274 -14.062   6.567  1.00  0.00    -0.341 N 
HETATM   29  C   UNL     1      42.859 -12.824   6.442  1.00  0.00     0.320 C 
HETATM   30  N   UNL     1      43.617 -12.484   7.531  1.00  0.00    -0.309 N 
HETATM   31  O   UNL     1      42.709 -12.162   5.421  1.00  0.00    -0.247 OA
HETATM   32  H   UNL     1      43.863 -13.225   8.171  1.00  0.00     0.170 HD
HETATM   33  H   UNL     1      42.156 -14.367   7.526  1.00  0.00     0.164 HD
BRANCH  30  34
HETATM   34  C   UNL     1      44.229 -11.230   7.761  1.00  0.00     0.037 A 
HETATM   35  C   UNL     1      43.520 -10.076   8.106  1.00  0.00     0.044 A 
HETATM   36  C   UNL     1      44.179  -8.857   8.329  1.00  0.00     0.011 A 
HETATM   37  C   UNL     1      45.570  -8.795   8.211  1.00  0.00     0.015 A 
HETATM   38  C   UNL     1      46.288  -9.946   7.881  1.00  0.00     0.003 A 
HETATM   39  C   UNL     1      45.622 -11.157   7.661  1.00  0.00     0.029 A 
BRANCH  36  40
HETATM   40  C   UNL     1      43.349  -7.667   8.680  1.00  0.00     0.155 C 
HETATM   41  C   UNL     1      43.145  -7.318  10.131  1.00  0.00     0.096 C 
HETATM   42  O   UNL     1      42.854  -6.984   7.785  1.00  0.00    -0.293 OA
ENDBRANCH  36  40
ENDBRANCH  30  34
ENDBRANCH  27  28
ENDBRANCH   4  27
TORSDOF 9
ENDMDL
MODEL 3
REMARK VINA RESULT:      -9.0      2.166      6.793
REMARK  9 active torsions:
REMARK  status: ('A' for Active; 'I' for Inactive)
REMARK    1  A    between atoms: C_2  and  C_3 
REMARK    2  A    between atoms: C_3  and  C_4 
REMARK    3  A    between atoms: C_3  and  C_39 
REMARK    4  A    between atoms: C_6  and  C_7 
REMARK    5  A    between atoms: C_14  and  C_15 
REMARK    6  A    between atoms: C_18  and  C_19 
REMARK    7  A    between atoms: C_19  and  N_20 
REMARK       I    between atoms: N_20  and  C_21 
REMARK       I    between atoms: C_21  and  N_22 
REMARK    8  A    between atoms: N_22  and  C_23 
REMARK    9  A    between atoms: C_25  and  C_26 
ROOT
HETATM    1  C   UNL     1      41.216 -14.589   1.573  1.00  0.00     0.068 C 
HETATM    2  C   UNL     1      41.737 -13.167   1.222  1.00  0.00     0.001 C 
HETATM    3  C   UNL     1      41.384 -12.180   2.360  1.00  0.00     0.040 C 
HETATM    4  C   UNL     1      39.856 -12.024   2.489  1.00  0.00     0.206 C 
HETATM    5  N   UNL     1      39.237 -13.093   1.596  1.00  0.00    -0.065 N 
HETATM    6  H   UNL     1      38.210 -13.099   1.781  1.00  0.00     0.280 HD
HETATM    7  C   UNL     1      39.718 -14.500   1.919  1.00  0.00     0.246 C 
HETATM    8  C   UNL     1      41.000 -12.703  -0.056  1.00  0.00     0.033 C 
HETATM    9  C   UNL     1      39.482 -12.770   0.145  1.00  0.00     0.236 C 
ENDROOT
BRANCH   1  10
HETATM   10  C   UNL     1      42.043 -15.267   2.643  1.00  0.00     0.045 A 
HETATM   11  N   UNL     1      42.334 -16.576   2.489  1.00  0.00    -0.233 NA
HETATM   12  C   UNL     1      43.044 -17.167   3.477  1.00  0.00     0.160 A 
HETATM   13  N   UNL     1      43.435 -16.543   4.602  1.00  0.00    -0.233 NA
HETATM   14  C   UNL     1      43.127 -15.239   4.737  1.00  0.00     0.043 A 
HETATM   15  C   UNL     1      42.424 -14.553   3.767  1.00  0.00     0.055 A 
BRANCH  12  16
HETATM   16  C   UNL     1      43.406 -18.588   3.329  1.00  0.00     0.014 A 
HETATM   17  C   UNL     1      43.252 -19.256   2.104  1.00  0.00     0.034 A 
HETATM   18  C   UNL     1      43.611 -20.591   2.003  1.00  0.00     0.117 A 
HETATM   19  N   UNL     1      44.111 -21.309   3.027  1.00  0.00    -0.273 NA
HETATM   20  C   UNL     1      44.243 -20.671   4.205  1.00  0.00     0.117 A 
HETATM   21  C   UNL     1      43.911 -19.340   4.401  1.00  0.00     0.034 A 
ENDBRANCH  12  16
BRANCH  14  22
HETATM   22  C   UNL     1      43.542 -14.543   6.023  1.00  0.00     0.037 C 
BRANCH  22  23
HETATM   23  C   UNL     1      42.728 -15.048   7.235  1.00  0.00     0.006 C 
HETATM   24  C   UNL     1      41.288 -15.403   6.886  1.00  0.00     0.006 C 
ENDBRANCH  22  23
BRANCH  22  25
HETATM   25  C   UNL     1      43.388 -13.012   5.892  1.00  0.00     0.006 C 
HETATM   26  C   UNL     1      44.305 -12.230   6.825  1.00  0.00     0.006 C 
ENDBRANCH  22  25
ENDBRANCH  14  22
ENDBRANCH   1  10
BRANCH   4  27
HETATM   27  C   UNL     1      39.353 -12.059   3.958  1.00  0.00     0.157 C 
BRANCH  27  28
HETATM   28  N   UNL     1      39.553 -10.834   4.739  1.00  0.00    -0.341 N 
HETATM   29  C   UNL     1      40.083 -10.861   6.007  1.00  0.00     0.320 C 
HETATM   30  N   UNL     1      40.414  -9.614   6.470  1.00  0.00    -0.309 N 
HETATM   31  O   UNL     1      40.187 -11.918   6.619  1.00  0.00    -0.247 OA
HETATM   32  H   UNL     1      40.032  -8.822   5.973  1.00  0.00     0.170 HD
HETATM   33  H   UNL     1      39.821 -10.020   4.198  1.00  0.00     0.164 HD
BRANCH  30  34
HETATM   34  C   UNL     1      41.099  -9.327   7.673  1.00  0.00     0.037 A 
HETATM   35  C   UNL     1      42.481  -9.131   7.746  1.00  0.00     0.044 A 
HETATM   36  C   UNL     1      43.111  -8.842   8.967  1.00  0.00     0.011 A 
HETATM   37  C   UNL     1      42.343  -8.742  10.130  1.00  0.00     0.015 A 
HETATM   38  C   UNL     1      40.960  -8.923  10.064  1.00  0.00     0.003 A 
HETATM   39  C   UNL     1      40.341  -9.210   8.843  1.00  0.00     0.029 A 
BRANCH  36  40
HETATM   40  C   UNL     1      44.593  -8.658   8.964  1.00  0.00     0.155 C 
HETATM   41  C   UNL     1      45.461  -9.697   9.623  1.00  0.00     0.096 C 
HETATM   42  O   UNL     1      45.083  -7.671   8.416  1.00  0.00    -0.293 OA
ENDBRANCH  36  40
ENDBRANCH  30  34
ENDBRANCH  27  28
ENDBRANCH   4  27
TORSDOF 9
ENDMDL
MODEL 4
REMARK VINA RESULT:      -8.8      2.528      8.497
REMARK  9 active torsions:
REMARK  status: ('A' for Active; 'I' for Inactive)
REMARK    1  A    between atoms: C_2  and  C_3 
REMARK    2  A    between atoms: C_3  and  C_4 
REMARK    3  A    between atoms: C_3  and  C_39 
REMARK    4  A    between atoms: C_6  and  C_7 
REMARK    5  A    between atoms: C_14  and  C_15 
REMARK    6  A    between atoms: C_18  and  C_19 
REMARK    7  A    between atoms: C_19  and  N_20 
REMARK       I    between atoms: N_20  and  C_21 
REMARK       I    between atoms: C_21  and  N_22 
REMARK    8  A    between atoms: N_22  and  C_23 
REMARK    9  A    between atoms: C_25  and  C_26 
ROOT
HETATM    1  C   UNL     1      43.144 -14.786   6.768  1.00  0.00     0.068 C 
HETATM    2  C   UNL     1      43.997 -15.429   5.638  1.00  0.00     0.001 C 
HETATM    3  C   UNL     1      43.161 -15.536   4.341  1.00  0.00     0.040 C 
HETATM    4  C   UNL     1      41.972 -16.496   4.538  1.00  0.00     0.206 C 
HETATM    5  N   UNL     1      41.914 -16.811   6.030  1.00  0.00    -0.065 N 
HETATM    6  H   UNL     1      41.033 -17.340   6.204  1.00  0.00     0.280 HD
HETATM    7  C   UNL     1      41.824 -15.567   6.903  1.00  0.00     0.246 C 
HETATM    8  C   UNL     1      44.361 -16.863   6.090  1.00  0.00     0.033 C 
HETATM    9  C   UNL     1      43.094 -17.656   6.433  1.00  0.00     0.236 C 
ENDROOT
BRANCH   1  10
HETATM   10  C   UNL     1      42.946 -13.298   6.575  1.00  0.00     0.045 A 
HETATM   11  N   UNL     1      42.134 -12.888   5.578  1.00  0.00    -0.233 NA
HETATM   12  C   UNL     1      42.003 -11.553   5.404  1.00  0.00     0.160 A 
HETATM   13  N   UNL     1      42.655 -10.630   6.131  1.00  0.00    -0.233 NA
HETATM   14  C   UNL     1      43.466 -11.062   7.116  1.00  0.00     0.043 A 
HETATM   15  C   UNL     1      43.641 -12.407   7.375  1.00  0.00     0.055 A 
BRANCH  12  16
HETATM   16  C   UNL     1      41.100 -11.067   4.344  1.00  0.00     0.014 A 
HETATM   17  C   UNL     1      39.731 -11.378   4.355  1.00  0.00     0.034 A 
HETATM   18  C   UNL     1      38.913 -10.897   3.345  1.00  0.00     0.117 A 
HETATM   19  N   UNL     1      39.354 -10.131   2.328  1.00  0.00    -0.273 NA
HETATM   20  C   UNL     1      40.670  -9.847   2.312  1.00  0.00     0.117 A 
HETATM   21  C   UNL     1      41.564 -10.284   3.277  1.00  0.00     0.034 A 
ENDBRANCH  12  16
BRANCH  14  22
HETATM   22  C   UNL     1      44.228 -10.019   7.916  1.00  0.00     0.037 C 
BRANCH  22  23
HETATM   23  C   UNL     1      45.683 -10.459   8.191  1.00  0.00     0.006 C 
HETATM   24  C   UNL     1      46.713  -9.403   7.811  1.00  0.00     0.006 C 
ENDBRANCH  22  23
BRANCH  22  25
HETATM   25  C   UNL     1      43.511  -9.721   9.250  1.00  0.00     0.006 C 
HETATM   26  C   UNL     1      44.378  -9.988  10.475  1.00  0.00     0.006 C 
ENDBRANCH  22  25
ENDBRANCH  14  22
ENDBRANCH   1  10
BRANCH   4  27
HETATM   27  C   UNL     1      40.638 -15.956   3.956  1.00  0.00     0.157 C 
BRANCH  27  28
HETATM   28  N   UNL     1      40.715 -14.677   3.242  1.00  0.00    -0.341 N 
HETATM   29  C   UNL     1      40.746 -14.613   1.869  1.00  0.00     0.320 C 
HETATM   30  N   UNL     1      40.574 -13.339   1.394  1.00  0.00    -0.309 N 
HETATM   31  O   UNL     1      40.948 -15.620   1.201  1.00  0.00    -0.247 OA
HETATM   32  H   UNL     1      40.684 -12.582   2.054  1.00  0.00     0.170 HD
HETATM   33  H   UNL     1      40.213 -13.913   3.678  1.00  0.00     0.164 HD
BRANCH  30  34
HETATM   34  C   UNL     1      40.423 -12.969   0.038  1.00  0.00     0.037 A 
HETATM   35  C   UNL     1      39.446 -13.509  -0.805  1.00  0.00     0.044 A 
HETATM   36  C   UNL     1      39.336 -13.102  -2.144  1.00  0.00     0.011 A 
HETATM   37  C   UNL     1      40.213 -12.135  -2.644  1.00  0.00     0.015 A 
HETATM   38  C   UNL     1      41.182 -11.581  -1.805  1.00  0.00     0.003 A 
HETATM   39  C   UNL     1      41.284 -11.993  -0.472  1.00  0.00     0.029 A 
BRANCH  36  40
HETATM   40  C   UNL     1      38.275 -13.734  -2.983  1.00  0.00     0.155 C 
HETATM   41  C   UNL     1      36.865 -13.212  -2.897  1.00  0.00     0.096 C 
HETATM   42  O   UNL     1      38.567 -14.661  -3.736  1.00  0.00    -0.293 OA
ENDBRANCH  36  40
ENDBRANCH  30  34
ENDBRANCH  27  28
ENDBRANCH   4  27
TORSDOF 9
ENDMDL
MODEL 5
REMARK VINA RESULT:      -8.8      2.588      6.988
REMARK  9 active torsions:
REMARK  status: ('A' for Active; 'I' for Inactive)
REMARK    1  A    between atoms: C_2  and  C_3 
REMARK    2  A    between atoms: C_3  and  C_4 
REMARK    3  A    between atoms: C_3  and  C_39 
REMARK    4  A    between atoms: C_6  and  C_7 
REMARK    5  A    between atoms: C_14  and  C_15 
REMARK    6  A    between atoms: C_18  and  C_19 
REMARK    7  A    between atoms: C_19  and  N_20 
REMARK       I    between atoms: N_20  and  C_21 
REMARK       I    between atoms: C_21  and  N_22 
REMARK    8  A    between atoms: N_22  and  C_23 
REMARK    9  A    between atoms: C_25  and  C_26 
ROOT
HETATM    1  C   UNL     1      41.239 -14.501   1.522  1.00  0.00     0.068 C 
HETATM    2  C   UNL     1      41.693 -13.040   1.242  1.00  0.00     0.001 C 
HETATM    3  C   UNL     1      41.221 -12.113   2.387  1.00  0.00     0.040 C 
HETATM    4  C   UNL     1      39.682 -12.050   2.436  1.00  0.00     0.206 C 
HETATM    5  N   UNL     1      39.175 -13.124   1.480  1.00  0.00    -0.065 N 
HETATM    6  H   UNL     1      38.143 -13.196   1.608  1.00  0.00     0.280 HD
HETATM    7  C   UNL     1      39.723 -14.511   1.788  1.00  0.00     0.246 C 
HETATM    8  C   UNL     1      40.998 -12.579  -0.061  1.00  0.00     0.033 C 
HETATM    9  C   UNL     1      39.477 -12.741   0.055  1.00  0.00     0.236 C 
ENDROOT
BRANCH   1  10
HETATM   10  C   UNL     1      42.048 -15.164   2.616  1.00  0.00     0.045 A 
HETATM   11  N   UNL     1      42.334 -16.477   2.489  1.00  0.00    -0.233 NA
HETATM   12  C   UNL     1      43.027 -17.053   3.498  1.00  0.00     0.160 A 
HETATM   13  N   UNL     1      43.405 -16.411   4.616  1.00  0.00    -0.233 NA
HETATM   14  C   UNL     1      43.102 -15.103   4.724  1.00  0.00     0.043 A 
HETATM   15  C   UNL     1      42.416 -14.432   3.732  1.00  0.00     0.055 A 
BRANCH  12  16
HETATM   16  C   UNL     1      43.384 -18.479   3.380  1.00  0.00     0.014 A 
HETATM   17  C   UNL     1      43.881 -19.199   4.478  1.00  0.00     0.034 A 
HETATM   18  C   UNL     1      44.199 -20.539   4.330  1.00  0.00     0.117 A 
HETATM   19  N   UNL     1      44.059 -21.216   3.173  1.00  0.00    -0.273 NA
HETATM   20  C   UNL     1      43.597 -20.520   2.118  1.00  0.00     0.117 A 
HETATM   21  C   UNL     1      43.254 -19.178   2.171  1.00  0.00     0.034 A 
ENDBRANCH  12  16
BRANCH  14  22
HETATM   22  C   UNL     1      43.502 -14.387   6.003  1.00  0.00     0.037 C 
BRANCH  22  23
HETATM   23  C   UNL     1      42.568 -14.750   7.178  1.00  0.00     0.006 C 
HETATM   24  C   UNL     1      43.153 -15.806   8.108  1.00  0.00     0.006 C 
ENDBRANCH  22  23
BRANCH  22  25
HETATM   25  C   UNL     1      43.509 -12.857   5.795  1.00  0.00     0.006 C 
HETATM   26  C   UNL     1      44.533 -12.133   6.661  1.00  0.00     0.006 C 
ENDBRANCH  22  25
ENDBRANCH  14  22
ENDBRANCH   1  10
BRANCH   4  27
HETATM   27  C   UNL     1      39.104 -12.162   3.873  1.00  0.00     0.157 C 
BRANCH  27  28
HETATM   28  N   UNL     1      39.261 -10.980   4.726  1.00  0.00    -0.341 N 
HETATM   29  C   UNL     1      39.698 -11.075   6.027  1.00  0.00     0.320 C 
HETATM   30  N   UNL     1      40.008  -9.858   6.573  1.00  0.00    -0.309 N 
HETATM   31  O   UNL     1      39.745 -12.162   6.591  1.00  0.00    -0.247 OA
HETATM   32  H   UNL     1      39.673  -9.037   6.090  1.00  0.00     0.170 HD
HETATM   33  H   UNL     1      39.577 -10.145   4.247  1.00  0.00     0.164 HD
BRANCH  30  34
HETATM   34  C   UNL     1      40.607  -9.639   7.835  1.00  0.00     0.037 A 
HETATM   35  C   UNL     1      39.880  -9.494   9.020  1.00  0.00     0.044 A 
HETATM   36  C   UNL     1      40.526  -9.284  10.248  1.00  0.00     0.011 A 
HETATM   37  C   UNL     1      41.922  -9.225  10.291  1.00  0.00     0.015 A 
HETATM   38  C   UNL     1      42.656  -9.383   9.114  1.00  0.00     0.003 A 
HETATM   39  C   UNL     1      42.004  -9.592   7.894  1.00  0.00     0.029 A 
BRANCH  36  40
HETATM   40  C   UNL     1      39.678  -9.126  11.467  1.00  0.00     0.155 C 
HETATM   41  C   UNL     1      39.682 -10.214  12.508  1.00  0.00     0.096 C 
HETATM   42  O   UNL     1      39.000  -8.110  11.609  1.00  0.00    -0.293 OA
ENDBRANCH  36  40
ENDBRANCH  30  34
ENDBRANCH  27  28
ENDBRANCH   4  27
TORSDOF 9
ENDMDL
MODEL 6
REMARK VINA RESULT:      -8.7      2.173      6.738
REMARK  9 active torsions:
REMARK  status: ('A' for Active; 'I' for Inactive)
REMARK    1  A    between atoms: C_2  and  C_3 
REMARK    2  A    between atoms: C_3  and  C_4 
REMARK    3  A    between atoms: C_3  and  C_39 
REMARK    4  A    between atoms: C_6  and  C_7 
REMARK    5  A    between atoms: C_14  and  C_15 
REMARK    6  A    between atoms: C_18  and  C_19 
REMARK    7  A    between atoms: C_19  and  N_20 
REMARK       I    between atoms: N_20  and  C_21 
REMARK       I    between atoms: C_21  and  N_22 
REMARK    8  A    between atoms: N_22  and  C_23 
REMARK    9  A    between atoms: C_25  and  C_26 
ROOT
HETATM    1  C   UNL     1      40.566 -14.923   1.513  1.00  0.00     0.068 C 
HETATM    2  C   UNL     1      41.407 -13.953   0.636  1.00  0.00     0.001 C 
HETATM    3  C   UNL     1      41.727 -12.666   1.433  1.00  0.00     0.040 C 
HETATM    4  C   UNL     1      40.435 -11.892   1.757  1.00  0.00     0.206 C 
HETATM    5  N   UNL     1      39.276 -12.808   1.377  1.00  0.00    -0.065 N 
HETATM    6  H   UNL     1      38.399 -12.363   1.723  1.00  0.00     0.280 HD
HETATM    7  C   UNL     1      39.339 -14.169   2.057  1.00  0.00     0.246 C 
HETATM    8  C   UNL     1      40.540 -13.556  -0.581  1.00  0.00     0.033 C 
HETATM    9  C   UNL     1      39.202 -12.966  -0.119  1.00  0.00     0.236 C 
ENDROOT
BRANCH   1  10
HETATM   10  C   UNL     1      41.388 -15.596   2.592  1.00  0.00     0.045 A 
HETATM   11  N   UNL     1      41.868 -16.834   2.348  1.00  0.00    -0.233 NA
HETATM   12  C   UNL     1      42.567 -17.427   3.342  1.00  0.00     0.160 A 
HETATM   13  N   UNL     1      42.774 -16.876   4.551  1.00  0.00    -0.233 NA
HETATM   14  C   UNL     1      42.280 -15.644   4.774  1.00  0.00     0.043 A 
HETATM   15  C   UNL     1      41.572 -14.959   3.807  1.00  0.00     0.055 A 
BRANCH  12  16
HETATM   16  C   UNL     1      43.133 -18.767   3.101  1.00  0.00     0.014 A 
HETATM   17  C   UNL     1      43.742 -19.497   4.133  1.00  0.00     0.034 A 
HETATM   18  C   UNL     1      44.256 -20.757   3.868  1.00  0.00     0.117 A 
HETATM   19  N   UNL     1      44.209 -21.342   2.656  1.00  0.00    -0.273 NA
HETATM   20  C   UNL     1      43.639 -20.633   1.664  1.00  0.00     0.117 A 
HETATM   21  C   UNL     1      43.099 -19.368   1.834  1.00  0.00     0.034 A 
ENDBRANCH  12  16
BRANCH  14  22
HETATM   22  C   UNL     1      42.486 -15.037   6.152  1.00  0.00     0.037 C 
BRANCH  22  23
HETATM   23  C   UNL     1      43.952 -15.167   6.620  1.00  0.00     0.006 C 
HETATM   24  C   UNL     1      44.219 -16.439   7.415  1.00  0.00     0.006 C 
ENDBRANCH  22  23
BRANCH  22  25
HETATM   25  C   UNL     1      41.547 -15.694   7.186  1.00  0.00     0.006 C 
HETATM   26  C   UNL     1      40.084 -15.699   6.757  1.00  0.00     0.006 C 
ENDBRANCH  22  25
ENDBRANCH  14  22
ENDBRANCH   1  10
BRANCH   4  27
HETATM   27  C   UNL     1      40.375 -11.373   3.219  1.00  0.00     0.157 C 
BRANCH  27  28
HETATM   28  N   UNL     1      41.366 -11.932   4.144  1.00  0.00    -0.341 N 
HETATM   29  C   UNL     1      42.307 -11.145   4.763  1.00  0.00     0.320 C 
HETATM   30  N   UNL     1      42.975 -11.802   5.762  1.00  0.00    -0.309 N 
HETATM   31  O   UNL     1      42.505  -9.995   4.387  1.00  0.00    -0.247 OA
HETATM   32  H   UNL     1      42.897 -12.809   5.784  1.00  0.00     0.170 HD
HETATM   33  H   UNL     1      41.032 -12.700   4.716  1.00  0.00     0.164 HD
BRANCH  30  34
HETATM   34  C   UNL     1      43.899 -11.227   6.666  1.00  0.00     0.037 A 
HETATM   35  C   UNL     1      43.525 -10.622   7.869  1.00  0.00     0.044 A 
HETATM   36  C   UNL     1      44.484 -10.071   8.734  1.00  0.00     0.011 A 
HETATM   37  C   UNL     1      45.837 -10.133   8.390  1.00  0.00     0.015 A 
HETATM   38  C   UNL     1      46.220 -10.749   7.197  1.00  0.00     0.003 A 
HETATM   39  C   UNL     1      45.257 -11.296   6.342  1.00  0.00     0.029 A 
BRANCH  36  40
HETATM   40  C   UNL     1      44.005  -9.430   9.994  1.00  0.00     0.155 C 
HETATM   41  C   UNL     1      43.846 -10.274  11.231  1.00  0.00     0.096 C 
HETATM   42  O   UNL     1      43.758  -8.225  10.009  1.00  0.00    -0.293 OA
ENDBRANCH  36  40
ENDBRANCH  30  34
ENDBRANCH  27  28
ENDBRANCH   4  27
TORSDOF 9
ENDMDL
MODEL 7
REMARK VINA RESULT:      -8.6      1.877      2.144
REMARK  9 active torsions:
REMARK  status: ('A' for Active; 'I' for Inactive)
REMARK    1  A    between atoms: C_2  and  C_3 
REMARK    2  A    between atoms: C_3  and  C_4 
REMARK    3  A    between atoms: C_3  and  C_39 
REMARK    4  A    between atoms: C_6  and  C_7 
REMARK    5  A    between atoms: C_14  and  C_15 
REMARK    6  A    between atoms: C_18  and  C_19 
REMARK    7  A    between atoms: C_19  and  N_20 
REMARK       I    between atoms: N_20  and  C_21 
REMARK       I    between atoms: C_21  and  N_22 
REMARK    8  A    between atoms: N_22  and  C_23 
REMARK    9  A    between atoms: C_25  and  C_26 
ROOT
HETATM    1  C   UNL     1      42.618 -15.105   2.458  1.00  0.00     0.068 C 
HETATM    2  C   UNL     1      41.728 -16.366   2.272  1.00  0.00     0.001 C 
HETATM    3  C   UNL     1      40.800 -16.542   3.498  1.00  0.00     0.040 C 
HETATM    4  C   UNL     1      41.625 -16.820   4.769  1.00  0.00     0.206 C 
HETATM    5  N   UNL     1      43.084 -16.582   4.396  1.00  0.00    -0.065 N 
HETATM    6  H   UNL     1      43.642 -16.622   5.277  1.00  0.00     0.280 HD
HETATM    7  C   UNL     1      43.338 -15.198   3.816  1.00  0.00     0.246 C 
HETATM    8  C   UNL     1      42.667 -17.593   2.207  1.00  0.00     0.033 C 
HETATM    9  C   UNL     1      43.564 -17.650   3.449  1.00  0.00     0.236 C 
ENDROOT
BRANCH   1  10
HETATM   10  C   UNL     1      41.850 -13.815   2.270  1.00  0.00     0.045 A 
HETATM   11  N   UNL     1      41.735 -12.983   3.327  1.00  0.00    -0.233 NA
HETATM   12  C   UNL     1      41.013 -11.854   3.143  1.00  0.00     0.160 A 
HETATM   13  N   UNL     1      40.383 -11.540   1.998  1.00  0.00    -0.233 NA
HETATM   14  C   UNL     1      40.505 -12.388   0.959  1.00  0.00     0.043 A 
HETATM   15  C   UNL     1      41.241 -13.552   1.055  1.00  0.00     0.055 A 
BRANCH  12  16
HETATM   16  C   UNL     1      40.891 -10.906   4.266  1.00  0.00     0.014 A 
HETATM   17  C   UNL     1      41.826  -9.876   4.455  1.00  0.00     0.034 A 
HETATM   18  C   UNL     1      41.674  -9.001   5.518  1.00  0.00     0.117 A 
HETATM   19  N   UNL     1      40.662  -9.073   6.405  1.00  0.00    -0.273 NA
HETATM   20  C   UNL     1      39.776 -10.071   6.231  1.00  0.00     0.117 A 
HETATM   21  C   UNL     1      39.847 -10.993   5.199  1.00  0.00     0.034 A 
ENDBRANCH  12  16
BRANCH  14  22
HETATM   22  C   UNL     1      39.766 -12.048  -0.324  1.00  0.00     0.037 C 
BRANCH  22  23
HETATM   23  C   UNL     1      39.603 -13.285  -1.235  1.00  0.00     0.006 C 
HETATM   24  C   UNL     1      38.221 -13.387  -1.868  1.00  0.00     0.006 C 
ENDBRANCH  22  23
BRANCH  22  25
HETATM   25  C   UNL     1      40.494 -10.925  -1.094  1.00  0.00     0.006 C 
HETATM   26  C   UNL     1      41.376 -11.441  -2.225  1.00  0.00     0.006 C 
ENDBRANCH  22  25
ENDBRANCH  14  22
ENDBRANCH   1  10
BRANCH   4  27
HETATM   27  C   UNL     1      41.149 -16.010   6.005  1.00  0.00     0.157 C 
BRANCH  27  28
HETATM   28  N   UNL     1      41.451 -14.575   5.992  1.00  0.00    -0.341 N 
HETATM   29  C   UNL     1      42.459 -14.038   6.758  1.00  0.00     0.320 C 
HETATM   30  N   UNL     1      42.741 -12.739   6.428  1.00  0.00    -0.309 N 
HETATM   31  O   UNL     1      42.982 -14.695   7.651  1.00  0.00    -0.247 OA
HETATM   32  H   UNL     1      42.061 -12.248   5.864  1.00  0.00     0.170 HD
HETATM   33  H   UNL     1      41.330 -14.120   5.094  1.00  0.00     0.164 HD
BRANCH  30  34
HETATM   34  C   UNL     1      43.808 -11.963   6.937  1.00  0.00     0.037 A 
HETATM   35  C   UNL     1      43.803 -11.386   8.210  1.00  0.00     0.044 A 
HETATM   36  C   UNL     1      44.892 -10.628   8.669  1.00  0.00     0.011 A 
HETATM   37  C   UNL     1      46.005 -10.452   7.842  1.00  0.00     0.015 A 
HETATM   38  C   UNL     1      46.024 -11.037   6.575  1.00  0.00     0.003 A 
HETATM   39  C   UNL     1      44.934 -11.790   6.126  1.00  0.00     0.029 A 
BRANCH  36  40
HETATM   40  C   UNL     1      44.805 -10.034  10.036  1.00  0.00     0.155 C 
HETATM   41  C   UNL     1      44.152  -8.689  10.211  1.00  0.00     0.096 C 
HETATM   42  O   UNL     1      45.257 -10.653  10.999  1.00  0.00    -0.293 OA
ENDBRANCH  36  40
ENDBRANCH  30  34
ENDBRANCH  27  28
ENDBRANCH   4  27
TORSDOF 9
ENDMDL
MODEL 8
REMARK VINA RESULT:      -8.6      2.715      7.825
REMARK  9 active torsions:
REMARK  status: ('A' for Active; 'I' for Inactive)
REMARK    1  A    between atoms: C_2  and  C_3 
REMARK    2  A    between atoms: C_3  and  C_4 
REMARK    3  A    between atoms: C_3  and  C_39 
REMARK    4  A    between atoms: C_6  and  C_7 
REMARK    5  A    between atoms: C_14  and  C_15 
REMARK    6  A    between atoms: C_18  and  C_19 
REMARK    7  A    between atoms: C_19  and  N_20 
REMARK       I    between atoms: N_20  and  C_21 
REMARK       I    between atoms: C_21  and  N_22 
REMARK    8  A    between atoms: N_22  and  C_23 
REMARK    9  A    between atoms: C_25  and  C_26 
ROOT
HETATM    1  C   UNL     1      42.936 -15.007   6.662  1.00  0.00     0.068 C 
HETATM    2  C   UNL     1      44.092 -15.519   5.757  1.00  0.00     0.001 C 
HETATM    3  C   UNL     1      43.583 -15.710   4.309  1.00  0.00     0.040 C 
HETATM    4  C   UNL     1      42.512 -16.816   4.250  1.00  0.00     0.206 C 
HETATM    5  N   UNL     1      42.167 -17.159   5.696  1.00  0.00    -0.065 N 
HETATM    6  H   UNL     1      41.343 -17.798   5.678  1.00  0.00     0.280 HD
HETATM    7  C   UNL     1      41.729 -15.952   6.512  1.00  0.00     0.246 C 
HETATM    8  C   UNL     1      44.526 -16.903   6.296  1.00  0.00     0.033 C 
HETATM    9  C   UNL     1      43.326 -17.855   6.360  1.00  0.00     0.236 C 
ENDROOT
BRANCH   1  10
HETATM   10  C   UNL     1      42.598 -13.553   6.412  1.00  0.00     0.045 A 
HETATM   11  N   UNL     1      43.380 -12.611   6.980  1.00  0.00    -0.233 NA
HETATM   12  C   UNL     1      43.035 -11.320   6.770  1.00  0.00     0.160 A 
HETATM   13  N   UNL     1      41.955 -10.932   6.072  1.00  0.00    -0.233 NA
HETATM   14  C   UNL     1      41.185 -11.889   5.520  1.00  0.00     0.043 A 
HETATM   15  C   UNL     1      41.477 -13.231   5.667  1.00  0.00     0.055 A 
BRANCH  12  16
HETATM   16  C   UNL     1      43.884 -10.263   7.350  1.00  0.00     0.014 A 
HETATM   17  C   UNL     1      43.326  -9.087   7.876  1.00  0.00     0.034 A 
HETATM   18  C   UNL     1      44.156  -8.119   8.419  1.00  0.00     0.117 A 
HETATM   19  N   UNL     1      45.497  -8.235   8.478  1.00  0.00    -0.273 NA
HETATM   20  C   UNL     1      46.031  -9.356   7.959  1.00  0.00     0.117 A 
HETATM   21  C   UNL     1      45.281 -10.377   7.396  1.00  0.00     0.034 A 
ENDBRANCH  12  16
BRANCH  14  22
HETATM   22  C   UNL     1      39.946 -11.450   4.758  1.00  0.00     0.037 C 
BRANCH  22  23
HETATM   23  C   UNL     1      40.015 -11.858   3.270  1.00  0.00     0.006 C 
HETATM   24  C   UNL     1      41.202 -11.250   2.534  1.00  0.00     0.006 C 
ENDBRANCH  22  23
BRANCH  22  25
HETATM   25  C   UNL     1      39.745  -9.924   4.873  1.00  0.00     0.006 C 
HETATM   26  C   UNL     1      38.401  -9.534   5.478  1.00  0.00     0.006 C 
ENDBRANCH  22  25
ENDBRANCH  14  22
ENDBRANCH   1  10
BRANCH   4  27
HETATM   27  C   UNL     1      41.282 -16.440   3.381  1.00  0.00     0.157 C 
BRANCH  27  28
HETATM   28  N   UNL     1      41.539 -15.538   2.254  1.00  0.00    -0.341 N 
HETATM   29  C   UNL     1      40.590 -15.291   1.290  1.00  0.00     0.320 C 
HETATM   30  N   UNL     1      40.927 -14.248   0.469  1.00  0.00    -0.309 N 
HETATM   31  O   UNL     1      39.588 -15.992   1.206  1.00  0.00    -0.247 OA
HETATM   32  H   UNL     1      41.888 -13.939   0.486  1.00  0.00     0.170 HD
HETATM   33  H   UNL     1      42.122 -14.738   2.471  1.00  0.00     0.164 HD
BRANCH  30  34
HETATM   34  C   UNL     1      40.102 -13.669  -0.524  1.00  0.00     0.037 A 
HETATM   35  C   UNL     1      39.221 -12.613  -0.276  1.00  0.00     0.044 A 
HETATM   36  C   UNL     1      38.429 -12.071  -1.300  1.00  0.00     0.011 A 
HETATM   37  C   UNL     1      38.526 -12.592  -2.593  1.00  0.00     0.015 A 
HETATM   38  C   UNL     1      39.413 -13.637  -2.853  1.00  0.00     0.003 A 
HETATM   39  C   UNL     1      40.199 -14.171  -1.826  1.00  0.00     0.029 A 
BRANCH  36  40
HETATM   40  C   UNL     1      37.503 -10.952  -0.952  1.00  0.00     0.155 C 
HETATM   41  C   UNL     1      37.054 -10.790   0.477  1.00  0.00     0.096 C 
HETATM   42  O   UNL     1      37.131 -10.175  -1.829  1.00  0.00    -0.293 OA
ENDBRANCH  36  40
ENDBRANCH  30  34
ENDBRANCH  27  28
ENDBRANCH   4  27
TORSDOF 9
ENDMDL
MODEL 9
REMARK VINA RESULT:      -8.4      3.253      8.994
REMARK  9 active torsions:
REMARK  status: ('A' for Active; 'I' for Inactive)
REMARK    1  A    between atoms: C_2  and  C_3 
REMARK    2  A    between atoms: C_3  and  C_4 
REMARK    3  A    between atoms: C_3  and  C_39 
REMARK    4  A    between atoms: C_6  and  C_7 
REMARK    5  A    between atoms: C_14  and  C_15 
REMARK    6  A    between atoms: C_18  and  C_19 
REMARK    7  A    between atoms: C_19  and  N_20 
REMARK       I    between atoms: N_20  and  C_21 
REMARK       I    between atoms: C_21  and  N_22 
REMARK    8  A    between atoms: N_22  and  C_23 
REMARK    9  A    between atoms: C_25  and  C_26 
ROOT
HETATM    1  C   UNL     1      40.618  -8.420   6.232  1.00  0.00     0.068 C 
HETATM    2  C   UNL     1      39.284  -9.171   5.963  1.00  0.00     0.001 C 
HETATM    3  C   UNL     1      39.559 -10.462   5.155  1.00  0.00     0.040 C 
HETATM    4  C   UNL     1      40.114 -10.121   3.758  1.00  0.00     0.206 C 
HETATM    5  N   UNL     1      40.418  -8.627   3.768  1.00  0.00    -0.065 N 
HETATM    6  H   UNL     1      40.928  -8.405   2.886  1.00  0.00     0.280 HD
HETATM    7  C   UNL     1      41.352  -8.210   4.895  1.00  0.00     0.246 C 
HETATM    8  C   UNL     1      38.397  -8.248   5.096  1.00  0.00     0.033 C 
HETATM    9  C   UNL     1      39.139  -7.833   3.820  1.00  0.00     0.236 C 
ENDROOT
BRANCH   1  10
HETATM   10  C   UNL     1      41.467  -9.098   7.286  1.00  0.00     0.045 A 
HETATM   11  N   UNL     1      41.189  -8.850   8.584  1.00  0.00    -0.233 NA
HETATM   12  C   UNL     1      41.986  -9.439   9.504  1.00  0.00     0.160 A 
HETATM   13  N   UNL     1      43.043 -10.212   9.203  1.00  0.00    -0.233 NA
HETATM   14  C   UNL     1      43.306 -10.440   7.902  1.00  0.00     0.043 A 
HETATM   15  C   UNL     1      42.531  -9.895   6.898  1.00  0.00     0.055 A 
BRANCH  12  16
HETATM   16  C   UNL     1      41.693  -9.216  10.932  1.00  0.00     0.014 A 
HETATM   17  C   UNL     1      42.527  -8.416  11.731  1.00  0.00     0.034 A 
HETATM   18  C   UNL     1      42.215  -8.225  13.067  1.00  0.00     0.117 A 
HETATM   19  N   UNL     1      41.137  -8.768  13.667  1.00  0.00    -0.273 NA
HETATM   20  C   UNL     1      40.348  -9.547  12.904  1.00  0.00     0.117 A 
HETATM   21  C   UNL     1      40.581  -9.796  11.560  1.00  0.00     0.034 A 
ENDBRANCH  12  16
BRANCH  14  22
HETATM   22  C   UNL     1      44.520 -11.288   7.562  1.00  0.00     0.037 C 
BRANCH  22  23
HETATM   23  C   UNL     1      45.727 -10.417   7.147  1.00  0.00     0.006 C 
HETATM   24  C   UNL     1      46.054  -9.322   8.154  1.00  0.00     0.006 C 
ENDBRANCH  22  23
BRANCH  22  25
HETATM   25  C   UNL     1      44.189 -12.293   6.438  1.00  0.00     0.006 C 
HETATM   26  C   UNL     1      43.571 -13.589   6.949  1.00  0.00     0.006 C 
ENDBRANCH  22  25
ENDBRANCH  14  22
ENDBRANCH   1  10
BRANCH   4  27
HETATM   27  C   UNL     1      41.318 -11.007   3.338  1.00  0.00     0.157 C 
BRANCH  27  28
HETATM   28  N   UNL     1      41.027 -12.426   3.111  1.00  0.00    -0.341 N 
HETATM   29  C   UNL     1      42.011 -13.385   3.158  1.00  0.00     0.320 C 
HETATM   30  N   UNL     1      41.510 -14.660   3.162  1.00  0.00    -0.309 N 
HETATM   31  O   UNL     1      43.195 -13.066   3.157  1.00  0.00    -0.247 OA
HETATM   32  H   UNL     1      40.543 -14.776   2.895  1.00  0.00     0.170 HD
HETATM   33  H   UNL     1      40.130 -12.741   3.460  1.00  0.00     0.164 HD
BRANCH  30  34
HETATM   34  C   UNL     1      42.256 -15.848   3.342  1.00  0.00     0.037 A 
HETATM   35  C   UNL     1      42.552 -16.391   4.595  1.00  0.00     0.044 A 
HETATM   36  C   UNL     1      43.292 -17.578   4.717  1.00  0.00     0.011 A 
HETATM   37  C   UNL     1      43.736 -18.233   3.565  1.00  0.00     0.015 A 
HETATM   38  C   UNL     1      43.432 -17.705   2.308  1.00  0.00     0.003 A 
HETATM   39  C   UNL     1      42.694 -16.522   2.197  1.00  0.00     0.029 A 
BRANCH  36  40
HETATM   40  C   UNL     1      43.578 -18.087   6.091  1.00  0.00     0.155 C 
HETATM   41  C   UNL     1      43.519 -19.569   6.351  1.00  0.00     0.096 C 
HETATM   42  O   UNL     1      43.868 -17.294   6.986  1.00  0.00    -0.293 OA
ENDBRANCH  36  40
ENDBRANCH  30  34
ENDBRANCH  27  28
ENDBRANCH   4  27
TORSDOF 9
ENDMDL
MODEL 10
REMARK VINA RESULT:      -8.3      3.238      9.317
REMARK  9 active torsions:
REMARK  status: ('A' for Active; 'I' for Inactive)
REMARK    1  A    between atoms: C_2  and  C_3 
REMARK    2  A    between atoms: C_3  and  C_4 
REMARK    3  A    between atoms: C_3  and  C_39 
REMARK    4  A    between atoms: C_6  and  C_7 
REMARK    5  A    between atoms: C_14  and  C_15 
REMARK    6  A    between atoms: C_18  and  C_19 
REMARK    7  A    between atoms: C_19  and  N_20 
REMARK       I    between atoms: N_20  and  C_21 
REMARK       I    between atoms: C_21  and  N_22 
REMARK    8  A    between atoms: N_22  and  C_23 
REMARK    9  A    between atoms: C_25  and  C_26 
ROOT
HETATM    1  C   UNL     1      41.191  -8.362   5.117  1.00  0.00     0.068 C 
HETATM    2  C   UNL     1      39.660  -8.091   5.088  1.00  0.00     0.001 C 
HETATM    3  C   UNL     1      38.902  -9.280   5.726  1.00  0.00     0.040 C 
HETATM    4  C   UNL     1      39.096 -10.560   4.890  1.00  0.00     0.206 C 
HETATM    5  N   UNL     1      40.172 -10.241   3.857  1.00  0.00    -0.065 N 
HETATM    6  H   UNL     1      40.421 -11.134   3.379  1.00  0.00     0.280 HD
HETATM    7  C   UNL     1      41.467  -9.734   4.475  1.00  0.00     0.246 C 
HETATM    8  C   UNL     1      39.233  -7.995   3.605  1.00  0.00     0.033 C 
HETATM    9  C   UNL     1      39.649  -9.259   2.843  1.00  0.00     0.236 C 
ENDROOT
BRANCH   1  10
HETATM   10  C   UNL     1      41.784  -8.214   6.501  1.00  0.00     0.045 A 
HETATM   11  N   UNL     1      41.650  -7.025   7.127  1.00  0.00    -0.233 NA
HETATM   12  C   UNL     1      42.221  -6.907   8.348  1.00  0.00     0.160 A 
HETATM   13  N   UNL     1      42.933  -7.879   8.944  1.00  0.00    -0.233 NA
HETATM   14  C   UNL     1      43.060  -9.054   8.298  1.00  0.00     0.043 A 
HETATM   15  C   UNL     1      42.491  -9.266   7.058  1.00  0.00     0.055 A 
BRANCH  12  16
HETATM   16  C   UNL     1      42.069  -5.634   9.075  1.00  0.00     0.014 A 
HETATM   17  C   UNL     1      42.671  -5.433  10.327  1.00  0.00     0.034 A 
HETATM   18  C   UNL     1      42.511  -4.219  10.976  1.00  0.00     0.117 A 
HETATM   19  N   UNL     1      41.800  -3.192  10.472  1.00  0.00    -0.273 NA
HETATM   20  C   UNL     1      41.211  -3.392   9.279  1.00  0.00     0.117 A 
HETATM   21  C   UNL     1      41.314  -4.571   8.557  1.00  0.00     0.034 A 
ENDBRANCH  12  16
BRANCH  14  22
HETATM   22  C   UNL     1      43.892 -10.140   8.959  1.00  0.00     0.037 C 
BRANCH  22  23
HETATM   23  C   UNL     1      44.295  -9.754  10.400  1.00  0.00     0.006 C 
HETATM   24  C   UNL     1      43.846 -10.771  11.442  1.00  0.00     0.006 C 
ENDBRANCH  22  23
BRANCH  22  25
HETATM   25  C   UNL     1      45.157 -10.442   8.127  1.00  0.00     0.006 C 
HETATM   26  C   UNL     1      46.166  -9.300   8.123  1.00  0.00     0.006 C 
ENDBRANCH  22  25
ENDBRANCH  14  22
ENDBRANCH   1  10
BRANCH   4  27
HETATM   27  C   UNL     1      39.398 -11.818   5.748  1.00  0.00     0.157 C 
BRANCH  27  28
HETATM   28  N   UNL     1      39.395 -13.101   5.036  1.00  0.00    -0.341 N 
HETATM   29  C   UNL     1      40.557 -13.684   4.588  1.00  0.00     0.320 C 
HETATM   30  N   UNL     1      40.375 -14.976   4.171  1.00  0.00    -0.309 N 
HETATM   31  O   UNL     1      41.604 -13.047   4.556  1.00  0.00    -0.247 OA
HETATM   32  H   UNL     1      39.425 -15.278   4.007  1.00  0.00     0.170 HD
HETATM   33  H   UNL     1      38.698 -13.764   5.352  1.00  0.00     0.164 HD
BRANCH  30  34
HETATM   34  C   UNL     1      41.393 -15.879   3.786  1.00  0.00     0.037 A 
HETATM   35  C   UNL     1      42.097 -16.678   4.691  1.00  0.00     0.044 A 
HETATM   36  C   UNL     1      43.096 -17.563   4.255  1.00  0.00     0.011 A 
HETATM   37  C   UNL     1      43.389 -17.652   2.891  1.00  0.00     0.015 A 
HETATM   38  C   UNL     1      42.681 -16.867   1.979  1.00  0.00     0.003 A 
HETATM   39  C   UNL     1      41.687 -15.988   2.423  1.00  0.00     0.029 A 
BRANCH  36  40
HETATM   40  C   UNL     1      43.811 -18.374   5.284  1.00  0.00     0.155 C 
HETATM   41  C   UNL     1      44.322 -19.742   4.915  1.00  0.00     0.096 C 
HETATM   42  O   UNL     1      43.983 -17.912   6.412  1.00  0.00    -0.293 OA
ENDBRANCH  36  40
ENDBRANCH  30  34
ENDBRANCH  27  28
ENDBRANCH   4  27
TORSDOF 9
ENDMDL
