MODEL 1
REMARK VINA RESULT:      -8.5      0.000      0.000
REMARK  7 active torsions:
REMARK  status: ('A' for Active; 'I' for Inactive)
REMARK    1  A    between atoms: O_2  and  C_3 
REMARK    2  A    between atoms: C_6  and  C_7 
REMARK    3  A    between atoms: C_7  and  C_8 
REMARK    4  A    between atoms: C_7  and  C_14 
REMARK    5  A    between atoms: C_14  and  C_15 
REMARK       I    between atoms: C_15  and  N_16 
REMARK    6  A    between atoms: N_16  and  C_17 
REMARK    7  A    between atoms: C_17  and  C_18 
ROOT
HETATM    1  C   UNL     1      43.445 -16.789   4.297  1.00  0.00     0.060 C 
ENDROOT
BRANCH   1   2
HETATM    2  C   UNL     1      42.482 -16.050   3.353  1.00  0.00    -0.049 A 
HETATM    3  C   UNL     1      41.102 -16.302   3.318  1.00  0.00     0.010 A 
HETATM    4  C   UNL     1      40.263 -15.617   2.431  1.00  0.00     0.037 A 
HETATM    5  C   UNL     1      40.776 -14.671   1.546  1.00  0.00     0.068 A 
HETATM    6  C   UNL     1      42.146 -14.430   1.542  1.00  0.00     0.037 A 
HETATM    7  C   UNL     1      42.987 -15.117   2.428  1.00  0.00     0.010 A 
BRANCH   5   8
HETATM    8  O   UNL     1      39.848 -14.072   0.740  1.00  0.00    -0.356 OA
HETATM    9  C   UNL     1      39.809 -14.495  -0.617  1.00  0.00     0.210 C 
ENDBRANCH   5   8
ENDBRANCH   1   2
BRANCH   1  10
HETATM   10  C   UNL     1      43.648 -18.273   3.983  1.00  0.00    -0.049 A 
HETATM   11  C   UNL     1      43.499 -18.780   2.681  1.00  0.00     0.008 A 
HETATM   12  C   UNL     1      43.674 -20.140   2.422  1.00  0.00     0.001 A 
HETATM   13  C   UNL     1      43.998 -21.013   3.458  1.00  0.00     0.000 A 
HETATM   14  C   UNL     1      44.150 -20.525   4.755  1.00  0.00     0.001 A 
HETATM   15  C   UNL     1      43.978 -19.165   5.017  1.00  0.00     0.008 A 
ENDBRANCH   1  10
BRANCH   1  16
HETATM   16  C   UNL     1      43.073 -16.582   5.785  1.00  0.00     0.116 C 
BRANCH  16  17
HETATM   17  C   UNL     1      42.684 -15.161   6.142  1.00  0.00     0.218 C 
HETATM   18  N   UNL     1      43.537 -14.188   5.695  1.00  0.00    -0.355 N 
HETATM   19  H   UNL     1      44.464 -14.409   5.351  1.00  0.00     0.162 HD
HETATM   20  O   UNL     1      41.633 -14.904   6.726  1.00  0.00    -0.274 OA
BRANCH  18  21
HETATM   21  C   UNL     1      43.375 -12.810   6.094  1.00  0.00     0.184 C 
BRANCH  21  22
HETATM   22  C   UNL     1      42.835 -12.032   4.935  1.00  0.00     0.080 A 
HETATM   23  N   UNL     1      43.614 -11.163   4.242  1.00  0.00    -0.177 NA
HETATM   24  N   UNL     1      42.794 -10.656   3.285  1.00  0.00    -0.281 N 
HETATM   25  H   UNL     1      43.166  -9.970   2.635  1.00  0.00     0.189 HD
HETATM   26  C   UNL     1      41.558 -11.182   3.365  1.00  0.00     0.036 A 
HETATM   27  C   UNL     1      41.543 -12.061   4.402  1.00  0.00    -0.006 A 
HETATM   28  C   UNL     1      40.294 -11.045   2.631  1.00  0.00     0.059 C 
HETATM   29  C   UNL     1      40.225 -12.695   4.563  1.00  0.00     0.043 C 
HETATM   30  C   UNL     1      39.335 -11.842   3.586  1.00  0.00     0.011 C 
ENDBRANCH  21  22
ENDBRANCH  18  21
ENDBRANCH  16  17
ENDBRANCH   1  16
TORSDOF 7
ENDMDL
MODEL 2
REMARK VINA RESULT:      -8.4      1.333      2.011
REMARK  7 active torsions:
REMARK  status: ('A' for Active; 'I' for Inactive)
REMARK    1  A    between atoms: O_2  and  C_3 
REMARK    2  A    between atoms: C_6  and  C_7 
REMARK    3  A    between atoms: C_7  and  C_8 
REMARK    4  A    between atoms: C_7  and  C_14 
REMARK    5  A    between atoms: C_14  and  C_15 
REMARK       I    between atoms: C_15  and  N_16 
REMARK    6  A    between atoms: N_16  and  C_17 
REMARK    7  A    between atoms: C_17  and  C_18 
ROOT
HETATM    1  C   UNL     1      43.189 -17.020   4.409  1.00  0.00     0.060 C 
ENDROOT
BRANCH   1   2
HETATM    2  C   UNL     1      42.542 -16.195   3.285  1.00  0.00    -0.049 A 
HETATM    3  C   UNL     1      43.248 -15.245   2.531  1.00  0.00     0.010 A 
HETATM    4  C   UNL     1      42.616 -14.503   1.527  1.00  0.00     0.037 A 
HETATM    5  C   UNL     1      41.261 -14.676   1.253  1.00  0.00     0.068 A 
HETATM    6  C   UNL     1      40.535 -15.589   2.011  1.00  0.00     0.037 A 
HETATM    7  C   UNL     1      41.167 -16.331   3.019  1.00  0.00     0.010 A 
BRANCH   5   8
HETATM    8  O   UNL     1      40.771 -13.894   0.245  1.00  0.00    -0.356 OA
HETATM    9  C   UNL     1      39.829 -14.495  -0.634  1.00  0.00     0.210 C 
ENDBRANCH   5   8
ENDBRANCH   1   2
BRANCH   1  10
HETATM   10  C   UNL     1      43.530 -18.465   4.039  1.00  0.00    -0.049 A 
HETATM   11  C   UNL     1      43.469 -18.922   2.711  1.00  0.00     0.008 A 
HETATM   12  C   UNL     1      43.768 -20.249   2.400  1.00  0.00     0.001 A 
HETATM   13  C   UNL     1      44.132 -21.138   3.409  1.00  0.00     0.000 A 
HETATM   14  C   UNL     1      44.198 -20.701   4.730  1.00  0.00     0.001 A 
HETATM   15  C   UNL     1      43.901 -19.373   5.044  1.00  0.00     0.008 A 
ENDBRANCH   1  10
BRANCH   1  16
HETATM   16  C   UNL     1      42.368 -16.961   5.719  1.00  0.00     0.116 C 
BRANCH  16  17
HETATM   17  C   UNL     1      42.089 -15.559   6.223  1.00  0.00     0.218 C 
HETATM   18  N   UNL     1      40.800 -15.125   6.068  1.00  0.00    -0.355 N 
HETATM   19  H   UNL     1      40.142 -15.610   5.469  1.00  0.00     0.162 HD
HETATM   20  O   UNL     1      42.948 -14.893   6.797  1.00  0.00    -0.274 OA
BRANCH  18  21
HETATM   21  C   UNL     1      40.429 -13.760   6.359  1.00  0.00     0.184 C 
BRANCH  21  22
HETATM   22  C   UNL     1      40.544 -12.951   5.106  1.00  0.00     0.080 A 
HETATM   23  N   UNL     1      39.463 -12.698   4.325  1.00  0.00    -0.177 NA
HETATM   24  N   UNL     1      39.947 -11.951   3.299  1.00  0.00    -0.281 N 
HETATM   25  H   UNL     1      39.306 -11.640   2.576  1.00  0.00     0.189 HD
HETATM   26  C   UNL     1      41.269 -11.737   3.427  1.00  0.00     0.036 A 
HETATM   27  C   UNL     1      41.687 -12.358   4.562  1.00  0.00    -0.006 A 
HETATM   28  C   UNL     1      42.308 -11.025   2.674  1.00  0.00     0.059 C 
HETATM   29  C   UNL     1      43.129 -12.171   4.789  1.00  0.00     0.043 C 
HETATM   30  C   UNL     1      43.590 -11.533   3.427  1.00  0.00     0.011 C 
ENDBRANCH  21  22
ENDBRANCH  18  21
ENDBRANCH  16  17
ENDBRANCH   1  16
TORSDOF 7
ENDMDL
MODEL 3
REMARK VINA RESULT:      -7.8      1.871      3.998
REMARK  7 active torsions:
REMARK  status: ('A' for Active; 'I' for Inactive)
REMARK    1  A    between atoms: O_2  and  C_3 
REMARK    2  A    between atoms: C_6  and  C_7 
REMARK    3  A    between atoms: C_7  and  C_8 
REMARK    4  A    between atoms: C_7  and  C_14 
REMARK    5  A    between atoms: C_14  and  C_15 
REMARK       I    between atoms: C_15  and  N_16 
REMARK    6  A    between atoms: N_16  and  C_17 
REMARK    7  A    between atoms: C_17  and  C_18 
ROOT
HETATM    1  C   UNL     1      41.839 -16.027   3.096  1.00  0.00     0.060 C 
ENDROOT
BRANCH   1   2
HETATM    2  C   UNL     1      41.965 -14.772   3.975  1.00  0.00    -0.049 A 
HETATM    3  C   UNL     1      41.090 -14.491   5.037  1.00  0.00     0.010 A 
HETATM    4  C   UNL     1      41.231 -13.328   5.802  1.00  0.00     0.037 A 
HETATM    5  C   UNL     1      42.237 -12.406   5.525  1.00  0.00     0.068 A 
HETATM    6  C   UNL     1      43.094 -12.648   4.457  1.00  0.00     0.037 A 
HETATM    7  C   UNL     1      42.952 -13.812   3.688  1.00  0.00     0.010 A 
BRANCH   5   8
HETATM    8  O   UNL     1      42.266 -11.318   6.353  1.00  0.00    -0.356 OA
HETATM    9  C   UNL     1      43.533 -10.945   6.878  1.00  0.00     0.210 C 
ENDBRANCH   5   8
ENDBRANCH   1   2
BRANCH   1  10
HETATM   10  C   UNL     1      42.731 -17.200   3.508  1.00  0.00    -0.049 A 
HETATM   11  C   UNL     1      43.178 -17.359   4.831  1.00  0.00     0.008 A 
HETATM   12  C   UNL     1      44.004 -18.428   5.179  1.00  0.00     0.001 A 
HETATM   13  C   UNL     1      44.397 -19.352   4.213  1.00  0.00     0.000 A 
HETATM   14  C   UNL     1      43.962 -19.208   2.898  1.00  0.00     0.001 A 
HETATM   15  C   UNL     1      43.133 -18.141   2.546  1.00  0.00     0.008 A 
ENDBRANCH   1  10
BRANCH   1  16
HETATM   16  C   UNL     1      42.008 -15.701   1.592  1.00  0.00     0.116 C 
BRANCH  16  17
HETATM   17  C   UNL     1      41.047 -14.655   1.064  1.00  0.00     0.218 C 
HETATM   18  N   UNL     1      41.628 -13.587   0.437  1.00  0.00    -0.355 N 
HETATM   19  H   UNL     1      42.620 -13.398   0.515  1.00  0.00     0.162 HD
HETATM   20  O   UNL     1      39.828 -14.802   1.132  1.00  0.00    -0.274 OA
BRANCH  18  21
HETATM   21  C   UNL     1      40.847 -12.444   0.025  1.00  0.00     0.184 C 
BRANCH  21  22
HETATM   22  C   UNL     1      40.957 -11.380   1.071  1.00  0.00     0.080 A 
HETATM   23  N   UNL     1      41.903 -10.409   0.995  1.00  0.00    -0.177 NA
HETATM   24  N   UNL     1      41.697  -9.643   2.097  1.00  0.00    -0.281 N 
HETATM   25  H   UNL     1      42.300  -8.841   2.255  1.00  0.00     0.189 HD
HETATM   26  C   UNL     1      40.668 -10.103   2.832  1.00  0.00     0.036 A 
HETATM   27  C   UNL     1      40.172 -11.208   2.214  1.00  0.00    -0.006 A 
HETATM   28  C   UNL     1      39.988  -9.711   4.073  1.00  0.00     0.059 C 
HETATM   29  C   UNL     1      39.033 -11.780   2.948  1.00  0.00     0.043 C 
HETATM   30  C   UNL     1      39.077 -10.971   4.296  1.00  0.00     0.011 C 
ENDBRANCH  21  22
ENDBRANCH  18  21
ENDBRANCH  16  17
ENDBRANCH   1  16
TORSDOF 7
ENDMDL
MODEL 4
REMARK VINA RESULT:      -7.8      2.081      3.416
REMARK  7 active torsions:
REMARK  status: ('A' for Active; 'I' for Inactive)
REMARK    1  A    between atoms: O_2  and  C_3 
REMARK    2  A    between atoms: C_6  and  C_7 
REMARK    3  A    between atoms: C_7  and  C_8 
REMARK    4  A    between atoms: C_7  and  C_14 
REMARK    5  A    between atoms: C_14  and  C_15 
REMARK       I    between atoms: C_15  and  N_16 
REMARK    6  A    between atoms: N_16  and  C_17 
REMARK    7  A    between atoms: C_17  and  C_18 
ROOT
HETATM    1  C   UNL     1      42.684 -15.581   4.026  1.00  0.00     0.060 C 
ENDROOT
BRANCH   1   2
HETATM    2  C   UNL     1      41.814 -15.352   2.779  1.00  0.00    -0.049 A 
HETATM    3  C   UNL     1      40.605 -16.029   2.554  1.00  0.00     0.010 A 
HETATM    4  C   UNL     1      39.853 -15.802   1.396  1.00  0.00     0.037 A 
HETATM    5  C   UNL     1      40.288 -14.905   0.423  1.00  0.00     0.068 A 
HETATM    6  C   UNL     1      41.500 -14.248   0.611  1.00  0.00     0.037 A 
HETATM    7  C   UNL     1      42.255 -14.477   1.769  1.00  0.00     0.010 A 
BRANCH   5   8
HETATM    8  O   UNL     1      39.456 -14.773  -0.653  1.00  0.00    -0.356 OA
HETATM    9  C   UNL     1      39.230 -13.454  -1.131  1.00  0.00     0.210 C 
ENDBRANCH   5   8
ENDBRANCH   1   2
BRANCH   1  10
HETATM   10  C   UNL     1      43.205 -17.009   4.200  1.00  0.00    -0.049 A 
HETATM   11  C   UNL     1      43.308 -17.609   5.467  1.00  0.00     0.008 A 
HETATM   12  C   UNL     1      43.802 -18.907   5.602  1.00  0.00     0.001 A 
HETATM   13  C   UNL     1      44.202 -19.623   4.476  1.00  0.00     0.000 A 
HETATM   14  C   UNL     1      44.107 -19.042   3.213  1.00  0.00     0.001 A 
HETATM   15  C   UNL     1      43.611 -17.745   3.074  1.00  0.00     0.008 A 
ENDBRANCH   1  10
BRANCH   1  16
HETATM   16  C   UNL     1      41.991 -15.082   5.317  1.00  0.00     0.116 C 
BRANCH  16  17
HETATM   17  C   UNL     1      41.624 -13.611   5.304  1.00  0.00     0.218 C 
HETATM   18  N   UNL     1      42.624 -12.761   4.916  1.00  0.00    -0.355 N 
HETATM   19  H   UNL     1      43.589 -13.063   4.860  1.00  0.00     0.162 HD
HETATM   20  O   UNL     1      40.483 -13.225   5.551  1.00  0.00    -0.274 OA
BRANCH  18  21
HETATM   21  C   UNL     1      42.465 -11.328   5.006  1.00  0.00     0.184 C 
BRANCH  21  22
HETATM   22  C   UNL     1      42.934 -10.873   6.352  1.00  0.00     0.080 A 
HETATM   23  N   UNL     1      42.069 -10.373   7.271  1.00  0.00    -0.177 NA
HETATM   24  N   UNL     1      42.845 -10.072   8.345  1.00  0.00    -0.281 N 
HETATM   25  H   UNL     1      42.406  -9.675   9.170  1.00  0.00     0.189 HD
HETATM   26  C   UNL     1      44.137 -10.373   8.118  1.00  0.00     0.036 A 
HETATM   27  C   UNL     1      44.236 -10.882   6.862  1.00  0.00    -0.006 A 
HETATM   28  C   UNL     1      45.395 -10.290   8.870  1.00  0.00     0.059 C 
HETATM   29  C   UNL     1      45.621 -11.248   6.527  1.00  0.00     0.043 C 
HETATM   30  C   UNL     1      46.420 -10.618   7.726  1.00  0.00     0.011 C 
ENDBRANCH  21  22
ENDBRANCH  18  21
ENDBRANCH  16  17
ENDBRANCH   1  16
TORSDOF 7
ENDMDL
MODEL 5
REMARK VINA RESULT:      -7.7      2.220      6.061
REMARK  7 active torsions:
REMARK  status: ('A' for Active; 'I' for Inactive)
REMARK    1  A    between atoms: O_2  and  C_3 
REMARK    2  A    between atoms: C_6  and  C_7 
REMARK    3  A    between atoms: C_7  and  C_8 
REMARK    4  A    between atoms: C_7  and  C_14 
REMARK    5  A    between atoms: C_14  and  C_15 
REMARK       I    between atoms: C_15  and  N_16 
REMARK    6  A    between atoms: N_16  and  C_17 
REMARK    7  A    between atoms: C_17  and  C_18 
ROOT
HETATM    1  C   UNL     1      40.067 -13.642   1.075  1.00  0.00     0.060 C 
ENDROOT
BRANCH   1   2
HETATM    2  C   UNL     1      41.052 -14.757   1.462  1.00  0.00    -0.049 A 
HETATM    3  C   UNL     1      40.669 -15.902   2.177  1.00  0.00     0.010 A 
HETATM    4  C   UNL     1      41.602 -16.886   2.523  1.00  0.00     0.037 A 
HETATM    5  C   UNL     1      42.946 -16.752   2.179  1.00  0.00     0.068 A 
HETATM    6  C   UNL     1      43.353 -15.609   1.498  1.00  0.00     0.037 A 
HETATM    7  C   UNL     1      42.419 -14.622   1.153  1.00  0.00     0.010 A 
BRANCH   5   8
HETATM    8  O   UNL     1      43.748 -17.786   2.572  1.00  0.00    -0.356 OA
HETATM    9  C   UNL     1      43.256 -19.101   2.347  1.00  0.00     0.210 C 
ENDBRANCH   5   8
ENDBRANCH   1   2
BRANCH   1  10
HETATM   10  C   UNL     1      39.732 -13.561  -0.416  1.00  0.00    -0.049 A 
HETATM   11  C   UNL     1      39.683 -12.332  -1.097  1.00  0.00     0.008 A 
HETATM   12  C   UNL     1      39.359 -12.281  -2.453  1.00  0.00     0.001 A 
HETATM   13  C   UNL     1      39.078 -13.455  -3.149  1.00  0.00     0.000 A 
HETATM   14  C   UNL     1      39.123 -14.681  -2.488  1.00  0.00     0.001 A 
HETATM   15  C   UNL     1      39.449 -14.736  -1.132  1.00  0.00     0.008 A 
ENDBRANCH   1  10
BRANCH   1  16
HETATM   16  C   UNL     1      40.507 -12.263   1.621  1.00  0.00     0.116 C 
BRANCH  16  17
HETATM   17  C   UNL     1      40.977 -12.280   3.062  1.00  0.00     0.218 C 
HETATM   18  N   UNL     1      40.053 -12.709   3.976  1.00  0.00    -0.355 N 
HETATM   19  H   UNL     1      39.071 -12.795   3.742  1.00  0.00     0.162 HD
HETATM   20  O   UNL     1      42.134 -11.998   3.370  1.00  0.00    -0.274 OA
BRANCH  18  21
HETATM   21  C   UNL     1      40.311 -12.630   5.395  1.00  0.00     0.184 C 
BRANCH  21  22
HETATM   22  C   UNL     1      40.604 -14.003   5.911  1.00  0.00     0.080 A 
HETATM   23  N   UNL     1      39.688 -14.698   6.634  1.00  0.00    -0.177 NA
HETATM   24  N   UNL     1      40.300 -15.876   6.921  1.00  0.00    -0.281 N 
HETATM   25  H   UNL     1      39.796 -16.568   7.467  1.00  0.00     0.189 HD
HETATM   26  C   UNL     1      41.540 -15.927   6.401  1.00  0.00     0.036 A 
HETATM   27  C   UNL     1      41.772 -14.754   5.753  1.00  0.00    -0.006 A 
HETATM   28  C   UNL     1      42.639 -16.899   6.365  1.00  0.00     0.059 C 
HETATM   29  C   UNL     1      43.110 -14.721   5.143  1.00  0.00     0.043 C 
HETATM   30  C   UNL     1      43.780 -16.002   5.763  1.00  0.00     0.011 C 
ENDBRANCH  21  22
ENDBRANCH  18  21
ENDBRANCH  16  17
ENDBRANCH   1  16
TORSDOF 7
ENDMDL
MODEL 6
REMARK VINA RESULT:      -7.5      3.088      6.216
REMARK  7 active torsions:
REMARK  status: ('A' for Active; 'I' for Inactive)
REMARK    1  A    between atoms: O_2  and  C_3 
REMARK    2  A    between atoms: C_6  and  C_7 
REMARK    3  A    between atoms: C_7  and  C_8 
REMARK    4  A    between atoms: C_7  and  C_14 
REMARK    5  A    between atoms: C_14  and  C_15 
REMARK       I    between atoms: C_15  and  N_16 
REMARK    6  A    between atoms: N_16  and  C_17 
REMARK    7  A    between atoms: C_17  and  C_18 
ROOT
HETATM    1  C   UNL     1      42.265 -15.134   2.725  1.00  0.00     0.060 C 
ENDROOT
BRANCH   1   2
HETATM    2  C   UNL     1      42.947 -16.425   3.209  1.00  0.00    -0.049 A 
HETATM    3  C   UNL     1      43.057 -17.576   2.413  1.00  0.00     0.010 A 
HETATM    4  C   UNL     1      43.671 -18.736   2.899  1.00  0.00     0.037 A 
HETATM    5  C   UNL     1      44.182 -18.787   4.194  1.00  0.00     0.068 A 
HETATM    6  C   UNL     1      44.054 -17.668   5.010  1.00  0.00     0.037 A 
HETATM    7  C   UNL     1      43.436 -16.507   4.525  1.00  0.00     0.010 A 
BRANCH   5   8
HETATM    8  O   UNL     1      44.761 -19.977   4.539  1.00  0.00    -0.356 OA
HETATM    9  C   UNL     1      43.989 -20.855   5.347  1.00  0.00     0.210 C 
ENDBRANCH   5   8
ENDBRANCH   1   2
BRANCH   1  10
HETATM   10  C   UNL     1      42.674 -13.865   3.475  1.00  0.00    -0.049 A 
HETATM   11  C   UNL     1      43.448 -12.863   2.865  1.00  0.00     0.008 A 
HETATM   12  C   UNL     1      43.823 -11.721   3.574  1.00  0.00     0.001 A 
HETATM   13  C   UNL     1      43.431 -11.563   4.902  1.00  0.00     0.000 A 
HETATM   14  C   UNL     1      42.664 -12.547   5.521  1.00  0.00     0.001 A 
HETATM   15  C   UNL     1      42.285 -13.690   4.813  1.00  0.00     0.008 A 
ENDBRANCH   1  10
BRANCH   1  16
HETATM   16  C   UNL     1      40.725 -15.276   2.671  1.00  0.00     0.116 C 
BRANCH  16  17
HETATM   17  C   UNL     1      40.160 -15.463   1.277  1.00  0.00     0.218 C 
HETATM   18  N   UNL     1      40.440 -14.458   0.391  1.00  0.00    -0.355 N 
HETATM   19  H   UNL     1      40.800 -13.562   0.697  1.00  0.00     0.162 HD
HETATM   20  O   UNL     1      39.560 -16.486   0.952  1.00  0.00    -0.274 OA
BRANCH  18  21
HETATM   21  C   UNL     1      39.838 -14.429  -0.922  1.00  0.00     0.184 C 
BRANCH  21  22
HETATM   22  C   UNL     1      40.399 -13.270  -1.685  1.00  0.00     0.080 A 
HETATM   23  N   UNL     1      40.658 -13.358  -3.014  1.00  0.00    -0.177 NA
HETATM   24  N   UNL     1      41.148 -12.136  -3.350  1.00  0.00    -0.281 N 
HETATM   25  H   UNL     1      41.418 -11.965  -4.314  1.00  0.00     0.189 HD
HETATM   26  C   UNL     1      41.191 -11.313  -2.286  1.00  0.00     0.036 A 
HETATM   27  C   UNL     1      40.725 -11.997  -1.207  1.00  0.00    -0.006 A 
HETATM   28  C   UNL     1      41.594  -9.926  -2.030  1.00  0.00     0.059 C 
HETATM   29  C   UNL     1      40.729 -11.170   0.009  1.00  0.00     0.043 C 
HETATM   30  C   UNL     1      41.543  -9.909  -0.461  1.00  0.00     0.011 C 
ENDBRANCH  21  22
ENDBRANCH  18  21
ENDBRANCH  16  17
ENDBRANCH   1  16
TORSDOF 7
ENDMDL
MODEL 7
REMARK VINA RESULT:      -7.5      1.961      5.800
REMARK  7 active torsions:
REMARK  status: ('A' for Active; 'I' for Inactive)
REMARK    1  A    between atoms: O_2  and  C_3 
REMARK    2  A    between atoms: C_6  and  C_7 
REMARK    3  A    between atoms: C_7  and  C_8 
REMARK    4  A    between atoms: C_7  and  C_14 
REMARK    5  A    between atoms: C_14  and  C_15 
REMARK       I    between atoms: C_15  and  N_16 
REMARK    6  A    between atoms: N_16  and  C_17 
REMARK    7  A    between atoms: C_17  and  C_18 
ROOT
HETATM    1  C   UNL     1      40.423 -13.291   1.145  1.00  0.00     0.060 C 
ENDROOT
BRANCH   1   2
HETATM    2  C   UNL     1      41.206 -14.553   1.542  1.00  0.00    -0.049 A 
HETATM    3  C   UNL     1      40.588 -15.716   2.027  1.00  0.00     0.010 A 
HETATM    4  C   UNL     1      41.340 -16.838   2.393  1.00  0.00     0.037 A 
HETATM    5  C   UNL     1      42.730 -16.830   2.298  1.00  0.00     0.068 A 
HETATM    6  C   UNL     1      43.366 -15.676   1.850  1.00  0.00     0.037 A 
HETATM    7  C   UNL     1      42.612 -14.552   1.486  1.00  0.00     0.010 A 
BRANCH   5   8
HETATM    8  O   UNL     1      43.341 -17.991   2.681  1.00  0.00    -0.356 OA
HETATM    9  C   UNL     1      43.965 -17.997   3.958  1.00  0.00     0.210 C 
ENDBRANCH   5   8
ENDBRANCH   1   2
BRANCH   1  10
HETATM   10  C   UNL     1      39.604 -13.414  -0.142  1.00  0.00    -0.049 A 
HETATM   11  C   UNL     1      39.743 -14.515  -1.004  1.00  0.00     0.008 A 
HETATM   12  C   UNL     1      38.997 -14.597  -2.181  1.00  0.00     0.001 A 
HETATM   13  C   UNL     1      38.104 -13.582  -2.514  1.00  0.00     0.000 A 
HETATM   14  C   UNL     1      37.954 -12.483  -1.669  1.00  0.00     0.001 A 
HETATM   15  C   UNL     1      38.698 -12.400  -0.491  1.00  0.00     0.008 A 
ENDBRANCH   1  10
BRANCH   1  16
HETATM   16  C   UNL     1      41.326 -12.034   1.111  1.00  0.00     0.116 C 
BRANCH  16  17
HETATM   17  C   UNL     1      41.357 -11.249   2.407  1.00  0.00     0.218 C 
HETATM   18  N   UNL     1      42.582 -11.161   3.011  1.00  0.00    -0.355 N 
HETATM   19  H   UNL     1      43.355 -11.755   2.737  1.00  0.00     0.162 HD
HETATM   20  O   UNL     1      40.361 -10.671   2.839  1.00  0.00    -0.274 OA
BRANCH  18  21
HETATM   21  C   UNL     1      42.729 -10.579   4.324  1.00  0.00     0.184 C 
BRANCH  21  22
HETATM   22  C   UNL     1      43.302 -11.607   5.248  1.00  0.00     0.080 A 
HETATM   23  N   UNL     1      44.400 -11.347   6.002  1.00  0.00    -0.177 NA
HETATM   24  N   UNL     1      44.619 -12.493   6.697  1.00  0.00    -0.281 N 
HETATM   25  H   UNL     1      45.405 -12.534   7.338  1.00  0.00     0.189 HD
HETATM   26  C   UNL     1      43.701 -13.432   6.400  1.00  0.00     0.036 A 
HETATM   27  C   UNL     1      42.847 -12.908   5.481  1.00  0.00    -0.006 A 
HETATM   28  C   UNL     1      43.416 -14.810   6.818  1.00  0.00     0.059 C 
HETATM   29  C   UNL     1      41.799 -13.867   5.100  1.00  0.00     0.043 C 
HETATM   30  C   UNL     1      42.318 -15.195   5.763  1.00  0.00     0.011 C 
ENDBRANCH  21  22
ENDBRANCH  18  21
ENDBRANCH  16  17
ENDBRANCH   1  16
TORSDOF 7
ENDMDL
MODEL 8
REMARK VINA RESULT:      -7.4      2.617      6.406
REMARK  7 active torsions:
REMARK  status: ('A' for Active; 'I' for Inactive)
REMARK    1  A    between atoms: O_2  and  C_3 
REMARK    2  A    between atoms: C_6  and  C_7 
REMARK    3  A    between atoms: C_7  and  C_8 
REMARK    4  A    between atoms: C_7  and  C_14 
REMARK    5  A    between atoms: C_14  and  C_15 
REMARK       I    between atoms: C_15  and  N_16 
REMARK    6  A    between atoms: N_16  and  C_17 
REMARK    7  A    between atoms: C_17  and  C_18 
ROOT
HETATM    1  C   UNL     1      41.138 -14.144   1.240  1.00  0.00     0.060 C 
ENDROOT
BRANCH   1   2
HETATM    2  C   UNL     1      41.034 -13.330   2.540  1.00  0.00    -0.049 A 
HETATM    3  C   UNL     1      39.986 -13.490   3.460  1.00  0.00     0.010 A 
HETATM    4  C   UNL     1      39.921 -12.716   4.624  1.00  0.00     0.037 A 
HETATM    5  C   UNL     1      40.890 -11.753   4.899  1.00  0.00     0.068 A 
HETATM    6  C   UNL     1      41.919 -11.556   3.985  1.00  0.00     0.037 A 
HETATM    7  C   UNL     1      41.983 -12.329   2.817  1.00  0.00     0.010 A 
BRANCH   5   8
HETATM    8  O   UNL     1      40.711 -11.073   6.072  1.00  0.00    -0.356 OA
HETATM    9  C   UNL     1      39.437 -11.190   6.693  1.00  0.00     0.210 C 
ENDBRANCH   5   8
ENDBRANCH   1   2
BRANCH   1  10
HETATM   10  C   UNL     1      40.113 -13.781   0.164  1.00  0.00    -0.049 A 
HETATM   11  C   UNL     1      39.766 -14.680  -0.860  1.00  0.00     0.008 A 
HETATM   12  C   UNL     1      38.840 -14.321  -1.840  1.00  0.00     0.001 A 
HETATM   13  C   UNL     1      38.248 -13.060  -1.814  1.00  0.00     0.000 A 
HETATM   14  C   UNL     1      38.581 -12.158  -0.806  1.00  0.00     0.001 A 
HETATM   15  C   UNL     1      39.506 -12.515   0.178  1.00  0.00     0.008 A 
ENDBRANCH   1  10
BRANCH   1  16
HETATM   16  C   UNL     1      41.147 -15.668   1.507  1.00  0.00     0.116 C 
BRANCH  16  17
HETATM   17  C   UNL     1      42.471 -16.210   2.009  1.00  0.00     0.218 C 
HETATM   18  N   UNL     1      42.383 -17.275   2.864  1.00  0.00    -0.355 N 
HETATM   19  H   UNL     1      41.508 -17.538   3.301  1.00  0.00     0.162 HD
HETATM   20  O   UNL     1      43.546 -15.765   1.610  1.00  0.00    -0.274 OA
BRANCH  18  21
HETATM   21  C   UNL     1      43.551 -17.791   3.538  1.00  0.00     0.184 C 
BRANCH  21  22
HETATM   22  C   UNL     1      43.421 -17.524   5.005  1.00  0.00     0.080 A 
HETATM   23  N   UNL     1      43.482 -18.529   5.915  1.00  0.00    -0.177 NA
HETATM   24  N   UNL     1      43.326 -17.914   7.116  1.00  0.00    -0.281 N 
HETATM   25  H   UNL     1      43.337 -18.479   7.960  1.00  0.00     0.189 HD
HETATM   26  C   UNL     1      43.178 -16.584   6.973  1.00  0.00     0.036 A 
HETATM   27  C   UNL     1      43.230 -16.296   5.645  1.00  0.00    -0.006 A 
HETATM   28  C   UNL     1      42.990 -15.433   7.864  1.00  0.00     0.059 C 
HETATM   29  C   UNL     1      43.083 -14.855   5.391  1.00  0.00     0.043 C 
HETATM   30  C   UNL     1      42.658 -14.319   6.808  1.00  0.00     0.011 C 
ENDBRANCH  21  22
ENDBRANCH  18  21
ENDBRANCH  16  17
ENDBRANCH   1  16
TORSDOF 7
ENDMDL
MODEL 9
REMARK VINA RESULT:      -7.3      2.148      2.645
REMARK  7 active torsions:
REMARK  status: ('A' for Active; 'I' for Inactive)
REMARK    1  A    between atoms: O_2  and  C_3 
REMARK    2  A    between atoms: C_6  and  C_7 
REMARK    3  A    between atoms: C_7  and  C_8 
REMARK    4  A    between atoms: C_7  and  C_14 
REMARK    5  A    between atoms: C_14  and  C_15 
REMARK       I    between atoms: C_15  and  N_16 
REMARK    6  A    between atoms: N_16  and  C_17 
REMARK    7  A    between atoms: C_17  and  C_18 
ROOT
HETATM    1  C   UNL     1      42.976 -15.697   4.225  1.00  0.00     0.060 C 
ENDROOT
BRANCH   1   2
HETATM    2  C   UNL     1      42.046 -15.154   3.128  1.00  0.00    -0.049 A 
HETATM    3  C   UNL     1      40.734 -15.617   2.940  1.00  0.00     0.010 A 
HETATM    4  C   UNL     1      39.926 -15.106   1.917  1.00  0.00     0.037 A 
HETATM    5  C   UNL     1      40.405 -14.130   1.046  1.00  0.00     0.068 A 
HETATM    6  C   UNL     1      41.713 -13.681   1.195  1.00  0.00     0.037 A 
HETATM    7  C   UNL     1      42.524 -14.194   2.217  1.00  0.00     0.010 A 
BRANCH   5   8
HETATM    8  O   UNL     1      39.512 -13.715   0.098  1.00  0.00    -0.356 OA
HETATM    9  C   UNL     1      39.665 -14.255  -1.208  1.00  0.00     0.210 C 
ENDBRANCH   5   8
ENDBRANCH   1   2
BRANCH   1  10
HETATM   10  C   UNL     1      43.362 -17.170   4.078  1.00  0.00    -0.049 A 
HETATM   11  C   UNL     1      43.399 -17.802   2.823  1.00  0.00     0.008 A 
HETATM   12  C   UNL     1      43.738 -19.152   2.715  1.00  0.00     0.001 A 
HETATM   13  C   UNL     1      44.043 -19.889   3.857  1.00  0.00     0.000 A 
HETATM   14  C   UNL     1      44.010 -19.277   5.108  1.00  0.00     0.001 A 
HETATM   15  C   UNL     1      43.674 -17.926   5.219  1.00  0.00     0.008 A 
ENDBRANCH   1  10
BRANCH   1  16
HETATM   16  C   UNL     1      42.433 -15.404   5.644  1.00  0.00     0.116 C 
BRANCH  16  17
HETATM   17  C   UNL     1      43.341 -14.539   6.497  1.00  0.00     0.218 C 
HETATM   18  N   UNL     1      43.615 -13.297   5.989  1.00  0.00    -0.355 N 
HETATM   19  H   UNL     1      43.414 -13.059   5.026  1.00  0.00     0.162 HD
HETATM   20  O   UNL     1      43.736 -14.906   7.602  1.00  0.00    -0.274 OA
BRANCH  18  21
HETATM   21  C   UNL     1      44.585 -12.430   6.616  1.00  0.00     0.184 C 
BRANCH  21  22
HETATM   22  C   UNL     1      43.862 -11.420   7.451  1.00  0.00     0.080 A 
HETATM   23  N   UNL     1      44.080 -11.320   8.787  1.00  0.00    -0.177 NA
HETATM   24  N   UNL     1      43.263 -10.314   9.194  1.00  0.00    -0.281 N 
HETATM   25  H   UNL     1      43.255 -10.058  10.176  1.00  0.00     0.189 HD
HETATM   26  C   UNL     1      42.565  -9.800   8.164  1.00  0.00     0.036 A 
HETATM   27  C   UNL     1      42.916 -10.477   7.039  1.00  0.00    -0.006 A 
HETATM   28  C   UNL     1      41.573  -8.734   7.979  1.00  0.00     0.059 C 
HETATM   29  C   UNL     1      42.204  -9.975   5.854  1.00  0.00     0.043 C 
HETATM   30  C   UNL     1      41.132  -9.022   6.500  1.00  0.00     0.011 C 
ENDBRANCH  21  22
ENDBRANCH  18  21
ENDBRANCH  16  17
ENDBRANCH   1  16
TORSDOF 7
ENDMDL
MODEL 10
REMARK VINA RESULT:      -7.3      2.648      5.746
REMARK  7 active torsions:
REMARK  status: ('A' for Active; 'I' for Inactive)
REMARK    1  A    between atoms: O_2  and  C_3 
REMARK    2  A    between atoms: C_6  and  C_7 
REMARK    3  A    between atoms: C_7  and  C_8 
REMARK    4  A    between atoms: C_7  and  C_14 
REMARK    5  A    between atoms: C_14  and  C_15 
REMARK       I    between atoms: C_15  and  N_16 
REMARK    6  A    between atoms: N_16  and  C_17 
REMARK    7  A    between atoms: C_17  and  C_18 
ROOT
HETATM    1  C   UNL     1      42.421 -15.286   2.744  1.00  0.00     0.060 C 
ENDROOT
BRANCH   1   2
HETATM    2  C   UNL     1      42.964 -16.659   3.171  1.00  0.00    -0.049 A 
HETATM    3  C   UNL     1      43.499 -16.908   4.444  1.00  0.00     0.010 A 
HETATM    4  C   UNL     1      43.999 -18.170   4.785  1.00  0.00     0.037 A 
HETATM    5  C   UNL     1      43.992 -19.216   3.865  1.00  0.00     0.068 A 
HETATM    6  C   UNL     1      43.496 -18.982   2.587  1.00  0.00     0.037 A 
HETATM    7  C   UNL     1      42.998 -17.717   2.244  1.00  0.00     0.010 A 
BRANCH   5   8
HETATM    8  O   UNL     1      44.503 -20.396   4.330  1.00  0.00    -0.356 OA
HETATM    9  C   UNL     1      43.944 -20.908   5.532  1.00  0.00     0.210 C 
ENDBRANCH   5   8
ENDBRANCH   1   2
BRANCH   1  10
HETATM   10  C   UNL     1      42.052 -14.348   3.896  1.00  0.00    -0.049 A 
HETATM   11  C   UNL     1      42.929 -13.343   4.340  1.00  0.00     0.008 A 
HETATM   12  C   UNL     1      42.577 -12.510   5.403  1.00  0.00     0.001 A 
HETATM   13  C   UNL     1      41.347 -12.669   6.038  1.00  0.00     0.000 A 
HETATM   14  C   UNL     1      40.467 -13.660   5.609  1.00  0.00     0.001 A 
HETATM   15  C   UNL     1      40.815 -14.493   4.544  1.00  0.00     0.008 A 
ENDBRANCH   1  10
BRANCH   1  16
HETATM   16  C   UNL     1      41.255 -15.411   1.734  1.00  0.00     0.116 C 
BRANCH  16  17
HETATM   17  C   UNL     1      40.924 -14.129   0.996  1.00  0.00     0.218 C 
HETATM   18  N   UNL     1      39.589 -13.863   0.851  1.00  0.00    -0.355 N 
HETATM   19  H   UNL     1      38.883 -14.569   1.022  1.00  0.00     0.162 HD
HETATM   20  O   UNL     1      41.800 -13.350   0.624  1.00  0.00    -0.274 OA
BRANCH  18  21
HETATM   21  C   UNL     1      39.129 -12.762   0.038  1.00  0.00     0.184 C 
BRANCH  21  22
HETATM   22  C   UNL     1      38.517 -11.726   0.927  1.00  0.00     0.080 A 
HETATM   23  N   UNL     1      37.257 -11.268   0.716  1.00  0.00    -0.177 NA
HETATM   24  N   UNL     1      37.054 -10.356   1.702  1.00  0.00    -0.281 N 
HETATM   25  H   UNL     1      36.162  -9.872   1.745  1.00  0.00     0.189 HD
HETATM   26  C   UNL     1      38.131 -10.245   2.501  1.00  0.00     0.036 A 
HETATM   27  C   UNL     1      39.084 -11.099   2.040  1.00  0.00    -0.006 A 
HETATM   28  C   UNL     1      38.497  -9.468   3.691  1.00  0.00     0.059 C 
HETATM   29  C   UNL     1      40.304 -11.051   2.861  1.00  0.00     0.043 C 
HETATM   30  C   UNL     1      40.030  -9.801   3.775  1.00  0.00     0.011 C 
ENDBRANCH  21  22
ENDBRANCH  18  21
ENDBRANCH  16  17
ENDBRANCH   1  16
TORSDOF 7
ENDMDL
