MODEL 1
REMARK VINA RESULT:      -7.9      0.000      0.000
REMARK  5 active torsions:
REMARK  status: ('A' for Active; 'I' for Inactive)
REMARK    1  A    between atoms: C_2  and  O_3 
REMARK    2  A    between atoms: C_4  and  C_5 
REMARK    3  A    between atoms: C_5  and  O_6 
REMARK    4  A    between atoms: C_9  and  C_10 
REMARK    5  A    between atoms: C_22  and  O_23 
ROOT
HETATM    1  C   UNL     1      41.499 -13.274   1.648  1.00  0.00     0.047 C 
HETATM    2  C   UNL     1      42.015 -12.408   2.809  1.00  0.00     0.073 C 
HETATM    3  C   UNL     1      43.209 -13.100   3.550  1.00  0.00     0.133 C 
HETATM    4  C   UNL     1      42.860 -14.248   4.547  1.00  0.00     0.074 C 
HETATM    5  C   UNL     1      41.504 -14.074   5.139  1.00  0.00     0.030 A 
HETATM    6  C   UNL     1      40.617 -13.088   4.762  1.00  0.00     0.042 A 
HETATM    7  N   UNL     1      39.515 -13.221   5.558  1.00  0.00    -0.279 N 
HETATM    8  H   UNL     1      38.667 -12.660   5.568  1.00  0.00     0.189 HD
HETATM    9  N   UNL     1      39.633 -14.226   6.451  1.00  0.00    -0.149 NA
HETATM   10  C   UNL     1      40.843 -14.704   6.195  1.00  0.00     0.190 A 
HETATM   11  C   UNL     1      40.835 -12.032   3.748  1.00  0.00     0.097 C 
ENDROOT
BRANCH   4  12
HETATM   12  C   UNL     1      42.964 -15.636   3.919  1.00  0.00    -0.048 A 
HETATM   13  C   UNL     1      43.739 -16.598   4.597  1.00  0.00     0.009 A 
HETATM   14  C   UNL     1      43.896 -17.891   4.090  1.00  0.00     0.019 A 
HETATM   15  C   UNL     1      43.285 -18.241   2.890  1.00  0.00     0.011 A 
HETATM   16 BR   UNL     1      43.492 -19.987   2.202  1.00  0.00    -0.051 Br
HETATM   17  C   UNL     1      42.519 -17.309   2.198  1.00  0.00     0.019 A 
HETATM   18  C   UNL     1      42.360 -16.017   2.710  1.00  0.00     0.009 A 
ENDBRANCH   4  12
BRANCH   3  19
HETATM   19  C   UNL     1      44.058 -12.061   4.258  1.00  0.00     0.266 C 
HETATM   20  O   UNL     1      44.787 -11.283   3.652  1.00  0.00    -0.265 OA
BRANCH  19  21
HETATM   21  O   UNL     1      43.907 -12.087   5.607  1.00  0.00    -0.326 OA
HETATM   22  C   UNL     1      45.019 -11.569   6.338  1.00  0.00     0.213 C 
ENDBRANCH  19  21
ENDBRANCH   3  19
BRANCH   2  23
HETATM   23  O   UNL     1      42.462 -11.187   2.187  1.00  0.00    -0.389 OA
HETATM   24  H   UNL     1      42.046 -10.433   2.642  1.00  0.00     0.210 HD
ENDBRANCH   2  23
BRANCH  10  25
HETATM   25  O   UNL     1      41.243 -15.696   6.981  1.00  0.00    -0.343 OA
HETATM   26  H   UNL     1      40.753 -16.473   6.662  1.00  0.00     0.219 HD
ENDBRANCH  10  25
TORSDOF 5
ENDMDL
MODEL 2
REMARK VINA RESULT:      -7.1      2.500      4.357
REMARK  5 active torsions:
REMARK  status: ('A' for Active; 'I' for Inactive)
REMARK    1  A    between atoms: C_2  and  O_3 
REMARK    2  A    between atoms: C_4  and  C_5 
REMARK    3  A    between atoms: C_5  and  O_6 
REMARK    4  A    between atoms: C_9  and  C_10 
REMARK    5  A    between atoms: C_22  and  O_23 
ROOT
HETATM    1  C   UNL     1      39.117 -13.630   3.048  1.00  0.00     0.047 C 
HETATM    2  C   UNL     1      39.504 -12.535   2.041  1.00  0.00     0.073 C 
HETATM    3  C   UNL     1      40.701 -12.988   1.139  1.00  0.00     0.133 C 
HETATM    4  C   UNL     1      42.128 -12.931   1.766  1.00  0.00     0.074 C 
HETATM    5  C   UNL     1      42.231 -11.877   2.814  1.00  0.00     0.030 A 
HETATM    6  C   UNL     1      41.164 -11.126   3.262  1.00  0.00     0.042 A 
HETATM    7  N   UNL     1      41.659 -10.240   4.176  1.00  0.00    -0.279 N 
HETATM    8  H   UNL     1      41.162  -9.526   4.701  1.00  0.00     0.189 HD
HETATM    9  N   UNL     1      42.994 -10.351   4.342  1.00  0.00    -0.149 NA
HETATM   10  C   UNL     1      43.314 -11.322   3.497  1.00  0.00     0.190 A 
HETATM   11  C   UNL     1      39.762 -11.199   2.792  1.00  0.00     0.097 C 
ENDROOT
BRANCH   4  12
HETATM   12  C   UNL     1      42.578 -14.268   2.348  1.00  0.00    -0.048 A 
HETATM   13  C   UNL     1      42.883 -15.302   1.440  1.00  0.00     0.009 A 
HETATM   14  C   UNL     1      43.294 -16.562   1.885  1.00  0.00     0.019 A 
HETATM   15  C   UNL     1      43.401 -16.810   3.250  1.00  0.00     0.011 A 
HETATM   16 BR   UNL     1      43.960 -18.509   3.857  1.00  0.00    -0.051 Br
HETATM   17  C   UNL     1      43.102 -15.810   4.169  1.00  0.00     0.019 A 
HETATM   18  C   UNL     1      42.694 -14.549   3.719  1.00  0.00     0.009 A 
ENDBRANCH   4  12
BRANCH   3  19
HETATM   19  C   UNL     1      40.695 -12.214  -0.166  1.00  0.00     0.266 C 
HETATM   20  O   UNL     1      41.297 -11.154  -0.305  1.00  0.00    -0.265 OA
BRANCH  19  21
HETATM   21  O   UNL     1      39.974 -12.826  -1.140  1.00  0.00    -0.326 OA
HETATM   22  C   UNL     1      40.030 -14.253  -1.112  1.00  0.00     0.213 C 
ENDBRANCH  19  21
ENDBRANCH   3  19
BRANCH   2  23
HETATM   23  O   UNL     1      38.324 -12.343   1.236  1.00  0.00    -0.389 OA
HETATM   24  H   UNL     1      38.470 -12.751   0.363  1.00  0.00     0.210 HD
ENDBRANCH   2  23
BRANCH  10  25
HETATM   25  O   UNL     1      44.608 -11.611   3.423  1.00  0.00    -0.343 OA
HETATM   26  H   UNL     1      45.053 -10.842   3.816  1.00  0.00     0.219 HD
ENDBRANCH  10  25
TORSDOF 5
ENDMDL
MODEL 3
REMARK VINA RESULT:      -7.1      2.816      4.113
REMARK  5 active torsions:
REMARK  status: ('A' for Active; 'I' for Inactive)
REMARK    1  A    between atoms: C_2  and  O_3 
REMARK    2  A    between atoms: C_4  and  C_5 
REMARK    3  A    between atoms: C_5  and  O_6 
REMARK    4  A    between atoms: C_9  and  C_10 
REMARK    5  A    between atoms: C_22  and  O_23 
ROOT
HETATM    1  C   UNL     1      43.420 -12.102   3.046  1.00  0.00     0.047 C 
HETATM    2  C   UNL     1      41.971 -11.592   3.111  1.00  0.00     0.073 C 
HETATM    3  C   UNL     1      40.986 -12.727   3.547  1.00  0.00     0.133 C 
HETATM    4  C   UNL     1      40.579 -13.773   2.464  1.00  0.00     0.074 C 
HETATM    5  C   UNL     1      40.625 -13.197   1.092  1.00  0.00     0.030 A 
HETATM    6  C   UNL     1      41.088 -11.931   0.801  1.00  0.00     0.042 A 
HETATM    7  N   UNL     1      40.926 -11.748  -0.543  1.00  0.00    -0.279 N 
HETATM    8  H   UNL     1      41.147 -10.931  -1.105  1.00  0.00     0.189 HD
HETATM    9  N   UNL     1      40.365 -12.815  -1.152  1.00  0.00    -0.149 NA
HETATM   10  C   UNL     1      40.173 -13.658  -0.146  1.00  0.00     0.190 A 
HETATM   11  C   UNL     1      41.590 -10.922   1.761  1.00  0.00     0.097 C 
ENDROOT
BRANCH   4  12
HETATM   12  C   UNL     1      41.430 -15.041   2.510  1.00  0.00    -0.048 A 
HETATM   13  C   UNL     1      41.168 -15.962   3.544  1.00  0.00     0.009 A 
HETATM   14  C   UNL     1      41.904 -17.144   3.666  1.00  0.00     0.019 A 
HETATM   15  C   UNL     1      42.922 -17.420   2.759  1.00  0.00     0.011 A 
HETATM   16 BR   UNL     1      43.918 -19.017   2.919  1.00  0.00    -0.051 Br
HETATM   17  C   UNL     1      43.206 -16.526   1.732  1.00  0.00     0.019 A 
HETATM   18  C   UNL     1      42.464 -15.346   1.610  1.00  0.00     0.009 A 
ENDBRANCH   4  12
BRANCH   3  19
HETATM   19  C   UNL     1      39.734 -12.127   4.159  1.00  0.00     0.266 C 
HETATM   20  O   UNL     1      39.128 -11.195   3.638  1.00  0.00    -0.265 OA
BRANCH  19  21
HETATM   21  O   UNL     1      39.366 -12.737   5.314  1.00  0.00    -0.326 OA
HETATM   22  C   UNL     1      40.448 -13.296   6.061  1.00  0.00     0.213 C 
ENDBRANCH  19  21
ENDBRANCH   3  19
BRANCH   2  23
HETATM   23  O   UNL     1      41.994 -10.548   4.105  1.00  0.00    -0.389 OA
HETATM   24  H   UNL     1      41.108 -10.477   4.505  1.00  0.00     0.210 HD
ENDBRANCH   2  23
BRANCH  10  25
HETATM   25  O   UNL     1      39.577 -14.801  -0.464  1.00  0.00    -0.343 OA
HETATM   26  H   UNL     1      38.637 -14.571  -0.550  1.00  0.00     0.219 HD
ENDBRANCH  10  25
TORSDOF 5
ENDMDL
MODEL 4
REMARK VINA RESULT:      -7.1      8.526     10.398
REMARK  5 active torsions:
REMARK  status: ('A' for Active; 'I' for Inactive)
REMARK    1  A    between atoms: C_2  and  O_3 
REMARK    2  A    between atoms: C_4  and  C_5 
REMARK    3  A    between atoms: C_5  and  O_6 
REMARK    4  A    between atoms: C_9  and  C_10 
REMARK    5  A    between atoms: C_22  and  O_23 
ROOT
HETATM    1  C   UNL     1      42.801  -6.179   9.991  1.00  0.00     0.047 C 
HETATM    2  C   UNL     1      42.234  -7.350   9.173  1.00  0.00     0.073 C 
HETATM    3  C   UNL     1      41.251  -8.219  10.026  1.00  0.00     0.133 C 
HETATM    4  C   UNL     1      41.883  -9.221  11.040  1.00  0.00     0.074 C 
HETATM    5  C   UNL     1      43.228  -9.682  10.599  1.00  0.00     0.030 A 
HETATM    6  C   UNL     1      43.888  -9.191   9.492  1.00  0.00     0.042 A 
HETATM    7  N   UNL     1      45.057  -9.889   9.385  1.00  0.00    -0.279 N 
HETATM    8  H   UNL     1      45.787  -9.803   8.683  1.00  0.00     0.189 HD
HETATM    9  N   UNL     1      45.197 -10.825  10.348  1.00  0.00    -0.149 NA
HETATM   10  C   UNL     1      44.077 -10.696  11.046  1.00  0.00     0.190 A 
HETATM   11  C   UNL     1      43.399  -8.164   8.544  1.00  0.00     0.097 C 
ENDROOT
BRANCH   4  12
HETATM   12  C   UNL     1      41.981  -8.656  12.455  1.00  0.00    -0.048 A 
HETATM   13  C   UNL     1      40.937  -8.963  13.352  1.00  0.00     0.009 A 
HETATM   14  C   UNL     1      40.941  -8.480  14.664  1.00  0.00     0.019 A 
HETATM   15  C   UNL     1      41.988  -7.675  15.099  1.00  0.00     0.011 A 
HETATM   16 BR   UNL     1      42.000  -7.022  16.871  1.00  0.00    -0.051 Br
HETATM   17  C   UNL     1      43.029  -7.351  14.234  1.00  0.00     0.019 A 
HETATM   18  C   UNL     1      43.024  -7.839  12.923  1.00  0.00     0.009 A 
ENDBRANCH   4  12
BRANCH   3  19
HETATM   19  C   UNL     1      40.288  -8.963   9.120  1.00  0.00     0.266 C 
HETATM   20  O   UNL     1      40.663  -9.586   8.131  1.00  0.00    -0.265 OA
BRANCH  19  21
HETATM   21  O   UNL     1      38.998  -8.871   9.531  1.00  0.00    -0.326 OA
HETATM   22  C   UNL     1      38.680  -7.664  10.225  1.00  0.00     0.213 C 
ENDBRANCH  19  21
ENDBRANCH   3  19
BRANCH   2  23
HETATM   23  O   UNL     1      41.524  -6.726   8.084  1.00  0.00    -0.389 OA
HETATM   24  H   UNL     1      41.978  -5.897   7.847  1.00  0.00     0.210 HD
ENDBRANCH   2  23
BRANCH  10  25
HETATM   25  O   UNL     1      43.930 -11.550  12.052  1.00  0.00    -0.343 OA
HETATM   26  H   UNL     1      44.693 -11.381  12.630  1.00  0.00     0.219 HD
ENDBRANCH  10  25
TORSDOF 5
ENDMDL
MODEL 5
REMARK VINA RESULT:      -7.0      3.280      5.296
REMARK  5 active torsions:
REMARK  status: ('A' for Active; 'I' for Inactive)
REMARK    1  A    between atoms: C_2  and  O_3 
REMARK    2  A    between atoms: C_4  and  C_5 
REMARK    3  A    between atoms: C_5  and  O_6 
REMARK    4  A    between atoms: C_9  and  C_10 
REMARK    5  A    between atoms: C_22  and  O_23 
ROOT
HETATM    1  C   UNL     1      44.361 -16.491   5.531  1.00  0.00     0.047 C 
HETATM    2  C   UNL     1      43.282 -16.483   4.435  1.00  0.00     0.073 C 
HETATM    3  C   UNL     1      43.135 -15.064   3.790  1.00  0.00     0.133 C 
HETATM    4  C   UNL     1      42.337 -13.994   4.596  1.00  0.00     0.074 C 
HETATM    5  C   UNL     1      41.309 -14.616   5.477  1.00  0.00     0.030 A 
HETATM    6  C   UNL     1      41.163 -15.976   5.652  1.00  0.00     0.042 A 
HETATM    7  N   UNL     1      40.093 -16.156   6.482  1.00  0.00    -0.279 N 
HETATM    8  H   UNL     1      39.690 -17.026   6.819  1.00  0.00     0.189 HD
HETATM    9  N   UNL     1      39.516 -14.993   6.850  1.00  0.00    -0.149 NA
HETATM   10  C   UNL     1      40.248 -14.088   6.214  1.00  0.00     0.190 A 
HETATM   11  C   UNL     1      41.951 -17.049   5.005  1.00  0.00     0.097 C 
ENDROOT
BRANCH   4  12
HETATM   12  C   UNL     1      43.235 -13.084   5.431  1.00  0.00    -0.048 A 
HETATM   13  C   UNL     1      43.959 -12.084   4.750  1.00  0.00     0.009 A 
HETATM   14  C   UNL     1      44.812 -11.213   5.434  1.00  0.00     0.019 A 
HETATM   15  C   UNL     1      44.959 -11.332   6.812  1.00  0.00     0.011 A 
HETATM   16 BR   UNL     1      46.108 -10.155   7.741  1.00  0.00    -0.051 Br
HETATM   17  C   UNL     1      44.262 -12.313   7.508  1.00  0.00     0.019 A 
HETATM   18  C   UNL     1      43.406 -13.181   6.822  1.00  0.00     0.009 A 
ENDBRANCH   4  12
BRANCH   3  19
HETATM   19  C   UNL     1      42.548 -15.182   2.395  1.00  0.00     0.266 C 
HETATM   20  O   UNL     1      43.175 -15.662   1.456  1.00  0.00    -0.265 OA
BRANCH  19  21
HETATM   21  O   UNL     1      41.275 -14.717   2.317  1.00  0.00    -0.326 OA
HETATM   22  C   UNL     1      40.312 -15.689   1.906  1.00  0.00     0.213 C 
ENDBRANCH  19  21
ENDBRANCH   3  19
BRANCH   2  23
HETATM   23  O   UNL     1      43.752 -17.426   3.452  1.00  0.00    -0.389 OA
HETATM   24  H   UNL     1      43.003 -17.690   2.887  1.00  0.00     0.210 HD
ENDBRANCH   2  23
BRANCH  10  25
HETATM   25  O   UNL     1      39.860 -12.828   6.368  1.00  0.00    -0.343 OA
HETATM   26  H   UNL     1      40.651 -12.365   6.690  1.00  0.00     0.219 HD
ENDBRANCH  10  25
TORSDOF 5
ENDMDL
MODEL 6
REMARK VINA RESULT:      -7.0      3.742      5.398
REMARK  5 active torsions:
REMARK  status: ('A' for Active; 'I' for Inactive)
REMARK    1  A    between atoms: C_2  and  O_3 
REMARK    2  A    between atoms: C_4  and  C_5 
REMARK    3  A    between atoms: C_5  and  O_6 
REMARK    4  A    between atoms: C_9  and  C_10 
REMARK    5  A    between atoms: C_22  and  O_23 
ROOT
HETATM    1  C   UNL     1      43.752 -14.158   2.164  1.00  0.00     0.047 C 
HETATM    2  C   UNL     1      42.547 -15.112   2.159  1.00  0.00     0.073 C 
HETATM    3  C   UNL     1      41.476 -14.684   3.217  1.00  0.00     0.133 C 
HETATM    4  C   UNL     1      41.764 -15.040   4.708  1.00  0.00     0.074 C 
HETATM    5  C   UNL     1      42.613 -16.258   4.832  1.00  0.00     0.030 A 
HETATM    6  C   UNL     1      43.177 -16.919   3.761  1.00  0.00     0.042 A 
HETATM    7  N   UNL     1      43.834 -18.005   4.267  1.00  0.00    -0.279 N 
HETATM    8  H   UNL     1      44.354 -18.721   3.769  1.00  0.00     0.189 HD
HETATM    9  N   UNL     1      43.720 -18.107   5.608  1.00  0.00    -0.149 NA
HETATM   10  C   UNL     1      42.963 -17.062   5.918  1.00  0.00     0.190 A 
HETATM   11  C   UNL     1      43.037 -16.577   2.328  1.00  0.00     0.097 C 
ENDROOT
BRANCH   4  12
HETATM   12  C   UNL     1      42.409 -13.893   5.482  1.00  0.00    -0.048 A 
HETATM   13  C   UNL     1      41.665 -12.704   5.620  1.00  0.00     0.009 A 
HETATM   14  C   UNL     1      42.181 -11.600   6.306  1.00  0.00     0.019 A 
HETATM   15  C   UNL     1      43.455 -11.666   6.858  1.00  0.00     0.011 A 
HETATM   16 BR   UNL     1      44.156 -10.179   7.788  1.00  0.00    -0.051 Br
HETATM   17  C   UNL     1      44.214 -12.825   6.732  1.00  0.00     0.019 A 
HETATM   18  C   UNL     1      43.693 -13.929   6.049  1.00  0.00     0.009 A 
ENDBRANCH   4  12
BRANCH   3  19
HETATM   19  C   UNL     1      40.111 -15.221   2.828  1.00  0.00     0.266 C 
HETATM   20  O   UNL     1      39.718 -16.331   3.174  1.00  0.00    -0.265 OA
BRANCH  19  21
HETATM   21  O   UNL     1      39.391 -14.345   2.082  1.00  0.00    -0.326 OA
HETATM   22  C   UNL     1      39.332 -13.021   2.615  1.00  0.00     0.213 C 
ENDBRANCH  19  21
ENDBRANCH   3  19
BRANCH   2  23
HETATM   23  O   UNL     1      41.999 -15.004   0.830  1.00  0.00    -0.389 OA
HETATM   24  H   UNL     1      42.516 -14.346   0.330  1.00  0.00     0.210 HD
ENDBRANCH   2  23
BRANCH  10  25
HETATM   25  O   UNL     1      42.649 -16.946   7.202  1.00  0.00    -0.343 OA
HETATM   26  H   UNL     1      43.232 -17.578   7.655  1.00  0.00     0.219 HD
ENDBRANCH  10  25
TORSDOF 5
ENDMDL
MODEL 7
REMARK VINA RESULT:      -6.6     16.652     18.845
REMARK  5 active torsions:
REMARK  status: ('A' for Active; 'I' for Inactive)
REMARK    1  A    between atoms: C_2  and  O_3 
REMARK    2  A    between atoms: C_4  and  C_5 
REMARK    3  A    between atoms: C_5  and  O_6 
REMARK    4  A    between atoms: C_9  and  C_10 
REMARK    5  A    between atoms: C_22  and  O_23 
ROOT
HETATM    1  C   UNL     1      48.010 -32.663   1.097  1.00  0.00     0.047 C 
HETATM    2  C   UNL     1      49.264 -32.074   1.764  1.00  0.00     0.073 C 
HETATM    3  C   UNL     1      49.364 -30.530   1.527  1.00  0.00     0.133 C 
HETATM    4  C   UNL     1      49.872 -30.055   0.131  1.00  0.00     0.074 C 
HETATM    5  C   UNL     1      50.783 -31.051  -0.497  1.00  0.00     0.030 A 
HETATM    6  C   UNL     1      51.050 -32.296   0.034  1.00  0.00     0.042 A 
HETATM    7  N   UNL     1      51.961 -32.892  -0.790  1.00  0.00    -0.279 N 
HETATM    8  H   UNL     1      52.393 -33.808  -0.704  1.00  0.00     0.189 HD
HETATM    9  N   UNL     1      52.324 -32.104  -1.825  1.00  0.00    -0.149 NA
HETATM   10  C   UNL     1      51.622 -30.999  -1.611  1.00  0.00     0.190 A 
HETATM   11  C   UNL     1      50.523 -32.858   1.298  1.00  0.00     0.097 C 
ENDROOT
BRANCH   4  12
HETATM   12  C   UNL     1      48.737 -29.727  -0.836  1.00  0.00    -0.048 A 
HETATM   13  C   UNL     1      48.132 -28.459  -0.723  1.00  0.00     0.009 A 
HETATM   14  C   UNL     1      47.080 -28.079  -1.562  1.00  0.00     0.019 A 
HETATM   15  C   UNL     1      46.611 -28.966  -2.525  1.00  0.00     0.011 A 
HETATM   16 BR   UNL     1      45.192 -28.457  -3.662  1.00  0.00    -0.051 Br
HETATM   17  C   UNL     1      47.185 -30.226  -2.655  1.00  0.00     0.019 A 
HETATM   18  C   UNL     1      48.240 -30.602  -1.817  1.00  0.00     0.009 A 
ENDBRANCH   4  12
BRANCH   3  19
HETATM   19  C   UNL     1      50.208 -29.888   2.613  1.00  0.00     0.266 C 
HETATM   20  O   UNL     1      51.432 -29.828   2.546  1.00  0.00    -0.265 OA
BRANCH  19  21
HETATM   21  O   UNL     1      49.465 -29.390   3.633  1.00  0.00    -0.326 OA
HETATM   22  C   UNL     1      48.229 -28.797   3.233  1.00  0.00     0.213 C 
ENDBRANCH  19  21
ENDBRANCH   3  19
BRANCH   2  23
HETATM   23  O   UNL     1      49.095 -32.349   3.169  1.00  0.00    -0.389 OA
HETATM   24  H   UNL     1      49.912 -32.757   3.509  1.00  0.00     0.210 HD
ENDBRANCH   2  23
BRANCH  10  25
HETATM   25  O   UNL     1      51.829 -30.015  -2.477  1.00  0.00    -0.343 OA
HETATM   26  H   UNL     1      52.239 -29.307  -1.952  1.00  0.00     0.219 HD
ENDBRANCH  10  25
TORSDOF 5
ENDMDL
MODEL 8
REMARK VINA RESULT:      -6.4      8.062     10.378
REMARK  5 active torsions:
REMARK  status: ('A' for Active; 'I' for Inactive)
REMARK    1  A    between atoms: C_2  and  O_3 
REMARK    2  A    between atoms: C_4  and  C_5 
REMARK    3  A    between atoms: C_5  and  O_6 
REMARK    4  A    between atoms: C_9  and  C_10 
REMARK    5  A    between atoms: C_22  and  O_23 
ROOT
HETATM    1  C   UNL     1      39.818  -8.710  11.779  1.00  0.00     0.047 C 
HETATM    2  C   UNL     1      40.898  -8.444  12.840  1.00  0.00     0.073 C 
HETATM    3  C   UNL     1      41.931  -7.375  12.347  1.00  0.00     0.133 C 
HETATM    4  C   UNL     1      43.022  -7.850  11.340  1.00  0.00     0.074 C 
HETATM    5  C   UNL     1      43.341  -9.295  11.507  1.00  0.00     0.030 A 
HETATM    6  C   UNL     1      42.667 -10.140  12.364  1.00  0.00     0.042 A 
HETATM    7  N   UNL     1      43.275 -11.360  12.277  1.00  0.00    -0.279 N 
HETATM    8  H   UNL     1      43.053 -12.218  12.775  1.00  0.00     0.189 HD
HETATM    9  N   UNL     1      44.323 -11.363  11.426  1.00  0.00    -0.149 NA
HETATM   10  C   UNL     1      44.355 -10.108  10.998  1.00  0.00     0.190 A 
HETATM   11  C   UNL     1      41.551  -9.787  13.271  1.00  0.00     0.097 C 
ENDROOT
BRANCH   4  12
HETATM   12  C   UNL     1      42.649  -7.579   9.884  1.00  0.00    -0.048 A 
HETATM   13  C   UNL     1      42.565  -6.234   9.474  1.00  0.00     0.009 A 
HETATM   14  C   UNL     1      42.221  -5.894   8.162  1.00  0.00     0.019 A 
HETATM   15  C   UNL     1      41.948  -6.898   7.240  1.00  0.00     0.011 A 
HETATM   16 BR   UNL     1      41.485  -6.445   5.465  1.00  0.00    -0.051 Br
HETATM   17  C   UNL     1      42.017  -8.235   7.618  1.00  0.00     0.019 A 
HETATM   18  C   UNL     1      42.366  -8.571   8.930  1.00  0.00     0.009 A 
ENDBRANCH   4  12
BRANCH   3  19
HETATM   19  C   UNL     1      42.600  -6.709  13.535  1.00  0.00     0.266 C 
HETATM   20  O   UNL     1      43.604  -7.170  14.069  1.00  0.00    -0.265 OA
BRANCH  19  21
HETATM   21  O   UNL     1      41.980  -5.563  13.916  1.00  0.00    -0.326 OA
HETATM   22  C   UNL     1      41.749  -4.633  12.858  1.00  0.00     0.213 C 
ENDBRANCH  19  21
ENDBRANCH   3  19
BRANCH   2  23
HETATM   23  O   UNL     1      40.176  -7.944  13.982  1.00  0.00    -0.389 OA
HETATM   24  H   UNL     1      40.622  -8.248  14.793  1.00  0.00     0.210 HD
ENDBRANCH   2  23
BRANCH  10  25
HETATM   25  O   UNL     1      45.344  -9.815  10.162  1.00  0.00    -0.343 OA
HETATM   26  H   UNL     1      44.955  -9.918   9.277  1.00  0.00     0.219 HD
ENDBRANCH  10  25
TORSDOF 5
ENDMDL
MODEL 9
REMARK VINA RESULT:      -6.4     15.639     17.258
REMARK  5 active torsions:
REMARK  status: ('A' for Active; 'I' for Inactive)
REMARK    1  A    between atoms: C_2  and  O_3 
REMARK    2  A    between atoms: C_4  and  C_5 
REMARK    3  A    between atoms: C_5  and  O_6 
REMARK    4  A    between atoms: C_9  and  C_10 
REMARK    5  A    between atoms: C_22  and  O_23 
ROOT
HETATM    1  C   UNL     1      47.448 -28.105  -0.069  1.00  0.00     0.047 C 
HETATM    2  C   UNL     1      47.582 -29.128   1.071  1.00  0.00     0.073 C 
HETATM    3  C   UNL     1      47.270 -30.579   0.575  1.00  0.00     0.133 C 
HETATM    4  C   UNL     1      45.769 -30.963   0.393  1.00  0.00     0.074 C 
HETATM    5  C   UNL     1      44.884 -30.192   1.310  1.00  0.00     0.030 A 
HETATM    6  C   UNL     1      45.323 -29.175   2.132  1.00  0.00     0.042 A 
HETATM    7  N   UNL     1      44.241 -28.752   2.850  1.00  0.00    -0.279 N 
HETATM    8  H   UNL     1      44.194 -28.026   3.559  1.00  0.00     0.189 HD
HETATM    9  N   UNL     1      43.118 -29.444   2.562  1.00  0.00    -0.149 NA
HETATM   10  C   UNL     1      43.538 -30.316   1.654  1.00  0.00     0.190 A 
HETATM   11  C   UNL     1      46.711 -28.683   2.279  1.00  0.00     0.097 C 
ENDROOT
BRANCH   4  12
HETATM   12  C   UNL     1      45.280 -30.795  -1.044  1.00  0.00    -0.048 A 
HETATM   13  C   UNL     1      45.637 -31.792  -1.973  1.00  0.00     0.009 A 
HETATM   14  C   UNL     1      45.240 -31.713  -3.311  1.00  0.00     0.019 A 
HETATM   15  C   UNL     1      44.483 -30.629  -3.743  1.00  0.00     0.011 A 
HETATM   16 BR   UNL     1      43.942 -30.519  -5.549  1.00  0.00    -0.051 Br
HETATM   17  C   UNL     1      44.121 -29.627  -2.849  1.00  0.00     0.019 A 
HETATM   18  C   UNL     1      44.517 -29.711  -1.510  1.00  0.00     0.009 A 
ENDBRANCH   4  12
BRANCH   3  19
HETATM   19  C   UNL     1      47.942 -31.597   1.478  1.00  0.00     0.266 C 
HETATM   20  O   UNL     1      47.385 -32.072   2.463  1.00  0.00    -0.265 OA
BRANCH  19  21
HETATM   21  O   UNL     1      49.195 -31.920   1.068  1.00  0.00    -0.326 OA
HETATM   22  C   UNL     1      49.321 -32.142  -0.337  1.00  0.00     0.213 C 
ENDBRANCH  19  21
ENDBRANCH   3  19
BRANCH   2  23
HETATM   23  O   UNL     1      48.958 -29.034   1.489  1.00  0.00    -0.389 OA
HETATM   24  H   UNL     1      49.149 -28.110   1.733  1.00  0.00     0.210 HD
ENDBRANCH   2  23
BRANCH  10  25
HETATM   25  O   UNL     1      42.622 -31.173   1.221  1.00  0.00    -0.343 OA
HETATM   26  H   UNL     1      42.496 -30.944   0.285  1.00  0.00     0.219 HD
ENDBRANCH  10  25
TORSDOF 5
ENDMDL
MODEL 10
REMARK VINA RESULT:      -6.4     15.293     17.358
REMARK  5 active torsions:
REMARK  status: ('A' for Active; 'I' for Inactive)
REMARK    1  A    between atoms: C_2  and  O_3 
REMARK    2  A    between atoms: C_4  and  C_5 
REMARK    3  A    between atoms: C_5  and  O_6 
REMARK    4  A    between atoms: C_9  and  C_10 
REMARK    5  A    between atoms: C_22  and  O_23 
ROOT
HETATM    1  C   UNL     1      45.537 -32.185  -0.885  1.00  0.00     0.047 C 
HETATM    2  C   UNL     1      44.965 -30.812  -1.269  1.00  0.00     0.073 C 
HETATM    3  C   UNL     1      46.056 -29.902  -1.926  1.00  0.00     0.133 C 
HETATM    4  C   UNL     1      47.082 -29.218  -0.972  1.00  0.00     0.074 C 
HETATM    5  C   UNL     1      46.507 -28.979   0.381  1.00  0.00     0.030 A 
HETATM    6  C   UNL     1      45.262 -29.418   0.780  1.00  0.00     0.042 A 
HETATM    7  N   UNL     1      45.070 -28.965   2.054  1.00  0.00    -0.279 N 
HETATM    8  H   UNL     1      44.262 -29.089   2.658  1.00  0.00     0.189 HD
HETATM    9  N   UNL     1      46.111 -28.237   2.512  1.00  0.00    -0.149 NA
HETATM   10  C   UNL     1      46.946 -28.240   1.481  1.00  0.00     0.190 A 
HETATM   11  C   UNL     1      44.277 -30.166  -0.034  1.00  0.00     0.097 C 
ENDROOT
BRANCH   4  12
HETATM   12  C   UNL     1      48.385 -30.002  -0.836  1.00  0.00    -0.048 A 
HETATM   13  C   UNL     1      49.333 -29.872  -1.871  1.00  0.00     0.009 A 
HETATM   14  C   UNL     1      50.549 -30.561  -1.833  1.00  0.00     0.019 A 
HETATM   15  C   UNL     1      50.834 -31.397  -0.759  1.00  0.00     0.011 A 
HETATM   16 BR   UNL     1      52.477 -32.327  -0.701  1.00  0.00    -0.051 Br
HETATM   17  C   UNL     1      49.915 -31.548   0.274  1.00  0.00     0.019 A 
HETATM   18  C   UNL     1      48.701 -30.855   0.235  1.00  0.00     0.009 A 
ENDBRANCH   4  12
BRANCH   3  19
HETATM   19  C   UNL     1      45.402 -28.847  -2.799  1.00  0.00     0.266 C 
HETATM   20  O   UNL     1      44.729 -27.933  -2.334  1.00  0.00    -0.265 OA
BRANCH  19  21
HETATM   21  O   UNL     1      45.657 -29.023  -4.120  1.00  0.00    -0.326 OA
HETATM   22  C   UNL     1      44.593 -29.630  -4.855  1.00  0.00     0.213 C 
ENDBRANCH  19  21
ENDBRANCH   3  19
BRANCH   2  23
HETATM   23  O   UNL     1      43.924 -31.103  -2.224  1.00  0.00    -0.389 OA
HETATM   24  H   UNL     1      44.130 -31.947  -2.665  1.00  0.00     0.210 HD
ENDBRANCH   2  23
BRANCH  10  25
HETATM   25  O   UNL     1      48.061 -27.539   1.648  1.00  0.00    -0.343 OA
HETATM   26  H   UNL     1      48.195 -27.087   0.798  1.00  0.00     0.219 HD
ENDBRANCH  10  25
TORSDOF 5
ENDMDL
