MODEL 1
REMARK VINA RESULT:      -7.3      0.000      0.000
REMARK  6 active torsions:
REMARK  status: ('A' for Active; 'I' for Inactive)
REMARK    1  A    between atoms: C_2  and  S_3 
REMARK    2  A    between atoms: C_2  and  C_11 
REMARK    3  A    between atoms: S_3  and  C_4 
REMARK    4  A    between atoms: C_4  and  C_5 
REMARK       I    between atoms: C_11  and  N_12 
REMARK    5  A    between atoms: N_12  and  C_13 
REMARK    6  A    between atoms: C_15  and  C_16 
ROOT
HETATM    1  C   UNL     1      39.830 -12.611   4.924  1.00  0.00     0.235 C 
HETATM    2  N   UNL     1      39.320 -13.504   4.027  1.00  0.00    -0.326 N 
HETATM    3  O   UNL     1      39.297 -12.601   6.042  1.00  0.00    -0.272 OA
HETATM    4  H   UNL     1      38.510 -13.959   4.436  1.00  0.00     0.169 HD
ENDROOT
BRANCH   2   5
HETATM    5  C   UNL     1      39.620 -13.887   2.708  1.00  0.00     0.035 A 
HETATM    6  C   UNL     1      39.941 -13.029   1.658  1.00  0.00     0.042 A 
HETATM    7  C   UNL     1      40.215 -13.521   0.367  1.00  0.00    -0.021 A 
HETATM    8  C   UNL     1      40.170 -14.899   0.138  1.00  0.00     0.012 A 
HETATM    9  C   UNL     1      39.878 -15.772   1.182  1.00  0.00     0.003 A 
HETATM   10  C   UNL     1      39.613 -15.268   2.457  1.00  0.00     0.029 A 
BRANCH   7  11
HETATM   11  C   UNL     1      40.539 -12.615  -0.722  1.00  0.00     0.010 A 
HETATM   12  C   UNL     1      40.527 -12.809  -2.123  1.00  0.00     0.152 A 
HETATM   13  N   UNL     1      40.909 -11.723  -2.800  1.00  0.00    -0.187 NA
HETATM   14  N   UNL     1      41.171 -10.827  -1.834  1.00  0.00    -0.289 N 
HETATM   15  H   UNL     1      41.490  -9.903  -2.107  1.00  0.00     0.188 HD
HETATM   16  C   UNL     1      40.968 -11.312  -0.574  1.00  0.00     0.123 A 
ENDBRANCH   7  11
ENDBRANCH   2   5
BRANCH   1  17
HETATM   17  C   UNL     1      40.961 -11.640   4.598  1.00  0.00     0.135 C 
HETATM   18  C   UNL     1      40.771 -10.309   5.329  1.00  0.00     0.031 C 
BRANCH  17  19
HETATM   19  S   UNL     1      42.595 -12.381   5.012  1.00  0.00    -0.150 SA
BRANCH  19  20
HETATM   20  C   UNL     1      43.241 -12.775   3.349  1.00  0.00     0.113 C 
BRANCH  20  21
HETATM   21  C   UNL     1      43.187 -14.262   3.087  1.00  0.00    -0.049 A 
HETATM   22  C   UNL     1      42.872 -15.159   4.118  1.00  0.00     0.008 A 
HETATM   23  C   UNL     1      42.821 -16.532   3.873  1.00  0.00     0.001 A 
HETATM   24  C   UNL     1      43.085 -17.023   2.596  1.00  0.00     0.000 A 
HETATM   25  C   UNL     1      43.406 -16.143   1.564  1.00  0.00     0.001 A 
HETATM   26  C   UNL     1      43.461 -14.770   1.808  1.00  0.00     0.008 A 
ENDBRANCH  20  21
ENDBRANCH  19  20
ENDBRANCH  17  19
ENDBRANCH   1  17
TORSDOF 6
ENDMDL
MODEL 2
REMARK VINA RESULT:      -7.0      1.682      2.448
REMARK  6 active torsions:
REMARK  status: ('A' for Active; 'I' for Inactive)
REMARK    1  A    between atoms: C_2  and  S_3 
REMARK    2  A    between atoms: C_2  and  C_11 
REMARK    3  A    between atoms: S_3  and  C_4 
REMARK    4  A    between atoms: C_4  and  C_5 
REMARK       I    between atoms: C_11  and  N_12 
REMARK    5  A    between atoms: N_12  and  C_13 
REMARK    6  A    between atoms: C_15  and  C_16 
ROOT
HETATM    1  C   UNL     1      40.836 -13.837   5.168  1.00  0.00     0.235 C 
HETATM    2  N   UNL     1      39.954 -13.904   4.130  1.00  0.00    -0.326 N 
HETATM    3  O   UNL     1      40.343 -13.643   6.288  1.00  0.00    -0.272 OA
HETATM    4  H   UNL     1      39.022 -13.693   4.472  1.00  0.00     0.169 HD
ENDROOT
BRANCH   2   5
HETATM    5  C   UNL     1      40.044 -14.143   2.747  1.00  0.00     0.035 A 
HETATM    6  C   UNL     1      40.327 -13.192   1.767  1.00  0.00     0.042 A 
HETATM    7  C   UNL     1      40.382 -13.539   0.403  1.00  0.00    -0.021 A 
HETATM    8  C   UNL     1      40.157 -14.866   0.027  1.00  0.00     0.012 A 
HETATM    9  C   UNL     1      39.901 -15.833   0.995  1.00  0.00     0.003 A 
HETATM   10  C   UNL     1      39.854 -15.473   2.344  1.00  0.00     0.029 A 
BRANCH   7  11
HETATM   11  C   UNL     1      40.668 -12.536  -0.609  1.00  0.00     0.010 A 
HETATM   12  C   UNL     1      40.711 -12.630  -2.020  1.00  0.00     0.152 A 
HETATM   13  N   UNL     1      41.028 -11.474  -2.607  1.00  0.00    -0.187 NA
HETATM   14  N   UNL     1      41.193 -10.632  -1.573  1.00  0.00    -0.289 N 
HETATM   15  H   UNL     1      41.449  -9.670  -1.771  1.00  0.00     0.188 HD
HETATM   16  C   UNL     1      40.991 -11.219  -0.357  1.00  0.00     0.123 A 
ENDBRANCH   7  11
ENDBRANCH   2   5
BRANCH   1  17
HETATM   17  C   UNL     1      42.348 -13.951   4.999  1.00  0.00     0.135 C 
HETATM   18  C   UNL     1      43.082 -13.025   5.971  1.00  0.00     0.031 C 
BRANCH  17  19
HETATM   19  S   UNL     1      42.899 -15.694   5.223  1.00  0.00    -0.150 SA
BRANCH  19  20
HETATM   20  C   UNL     1      43.243 -16.186   3.497  1.00  0.00     0.113 C 
BRANCH  20  21
HETATM   21  C   UNL     1      43.425 -17.681   3.387  1.00  0.00    -0.049 A 
HETATM   22  C   UNL     1      43.039 -18.365   2.225  1.00  0.00     0.008 A 
HETATM   23  C   UNL     1      43.209 -19.748   2.126  1.00  0.00     0.001 A 
HETATM   24  C   UNL     1      43.766 -20.460   3.187  1.00  0.00     0.000 A 
HETATM   25  C   UNL     1      44.147 -19.793   4.349  1.00  0.00     0.001 A 
HETATM   26  C   UNL     1      43.975 -18.412   4.452  1.00  0.00     0.008 A 
ENDBRANCH  20  21
ENDBRANCH  19  20
ENDBRANCH  17  19
ENDBRANCH   1  17
TORSDOF 6
ENDMDL
MODEL 3
REMARK VINA RESULT:      -6.9      3.934      6.622
REMARK  6 active torsions:
REMARK  status: ('A' for Active; 'I' for Inactive)
REMARK    1  A    between atoms: C_2  and  S_3 
REMARK    2  A    between atoms: C_2  and  C_11 
REMARK    3  A    between atoms: S_3  and  C_4 
REMARK    4  A    between atoms: C_4  and  C_5 
REMARK       I    between atoms: C_11  and  N_12 
REMARK    5  A    between atoms: N_12  and  C_13 
REMARK    6  A    between atoms: C_15  and  C_16 
ROOT
HETATM    1  C   UNL     1      40.908 -14.175   5.902  1.00  0.00     0.235 C 
HETATM    2  N   UNL     1      40.793 -14.825   4.708  1.00  0.00    -0.326 N 
HETATM    3  O   UNL     1      39.846 -13.799   6.419  1.00  0.00    -0.272 OA
HETATM    4  H   UNL     1      39.822 -14.809   4.413  1.00  0.00     0.169 HD
ENDROOT
BRANCH   2   5
HETATM    5  C   UNL     1      41.681 -15.444   3.811  1.00  0.00     0.035 A 
HETATM    6  C   UNL     1      42.062 -16.785   3.829  1.00  0.00     0.042 A 
HETATM    7  C   UNL     1      42.971 -17.301   2.885  1.00  0.00    -0.021 A 
HETATM    8  C   UNL     1      43.494 -16.452   1.906  1.00  0.00     0.012 A 
HETATM    9  C   UNL     1      43.102 -15.117   1.856  1.00  0.00     0.003 A 
HETATM   10  C   UNL     1      42.197 -14.622   2.797  1.00  0.00     0.029 A 
BRANCH   7  11
HETATM   11  C   UNL     1      43.368 -18.698   2.921  1.00  0.00     0.010 A 
HETATM   12  C   UNL     1      43.205 -19.733   1.970  1.00  0.00     0.152 A 
HETATM   13  N   UNL     1      43.700 -20.902   2.385  1.00  0.00    -0.187 NA
HETATM   14  N   UNL     1      44.182 -20.622   3.608  1.00  0.00    -0.289 N 
HETATM   15  H   UNL     1      44.614 -21.371   4.139  1.00  0.00     0.188 HD
HETATM   16  C   UNL     1      44.006 -19.319   3.975  1.00  0.00     0.123 A 
ENDBRANCH   7  11
ENDBRANCH   2   5
BRANCH   1  17
HETATM   17  C   UNL     1      42.244 -13.875   6.575  1.00  0.00     0.135 C 
HETATM   18  C   UNL     1      43.112 -15.131   6.660  1.00  0.00     0.031 C 
BRANCH  17  19
HETATM   19  S   UNL     1      43.133 -12.529   5.685  1.00  0.00    -0.150 SA
BRANCH  19  20
HETATM   20  C   UNL     1      44.703 -12.461   6.616  1.00  0.00     0.113 C 
BRANCH  20  21
HETATM   21  C   UNL     1      44.879 -11.116   7.281  1.00  0.00    -0.049 A 
HETATM   22  C   UNL     1      46.160 -10.590   7.503  1.00  0.00     0.008 A 
HETATM   23  C   UNL     1      46.320  -9.346   8.117  1.00  0.00     0.001 A 
HETATM   24  C   UNL     1      45.202  -8.616   8.516  1.00  0.00     0.000 A 
HETATM   25  C   UNL     1      43.923  -9.131   8.307  1.00  0.00     0.001 A 
HETATM   26  C   UNL     1      43.762 -10.376   7.697  1.00  0.00     0.008 A 
ENDBRANCH  20  21
ENDBRANCH  19  20
ENDBRANCH  17  19
ENDBRANCH   1  17
TORSDOF 6
ENDMDL
MODEL 4
REMARK VINA RESULT:      -6.8      4.899      8.223
REMARK  6 active torsions:
REMARK  status: ('A' for Active; 'I' for Inactive)
REMARK    1  A    between atoms: C_2  and  S_3 
REMARK    2  A    between atoms: C_2  and  C_11 
REMARK    3  A    between atoms: S_3  and  C_4 
REMARK    4  A    between atoms: C_4  and  C_5 
REMARK       I    between atoms: C_11  and  N_12 
REMARK    5  A    between atoms: N_12  and  C_13 
REMARK    6  A    between atoms: C_15  and  C_16 
ROOT
HETATM    1  C   UNL     1      43.052 -13.926   5.812  1.00  0.00     0.235 C 
HETATM    2  N   UNL     1      43.424 -12.617   5.898  1.00  0.00    -0.326 N 
HETATM    3  O   UNL     1      42.417 -14.244   4.796  1.00  0.00    -0.272 OA
HETATM    4  H   UNL     1      43.025 -12.106   5.117  1.00  0.00     0.169 HD
ENDROOT
BRANCH   2   5
HETATM    5  C   UNL     1      44.163 -11.839   6.807  1.00  0.00     0.035 A 
HETATM    6  C   UNL     1      43.700 -11.335   8.021  1.00  0.00     0.042 A 
HETATM    7  C   UNL     1      44.525 -10.555   8.854  1.00  0.00    -0.021 A 
HETATM    8  C   UNL     1      45.838 -10.287   8.456  1.00  0.00     0.012 A 
HETATM    9  C   UNL     1      46.325 -10.807   7.259  1.00  0.00     0.003 A 
HETATM   10  C   UNL     1      45.495 -11.582   6.448  1.00  0.00     0.029 A 
BRANCH   7  11
HETATM   11  C   UNL     1      44.027 -10.027  10.113  1.00  0.00     0.010 A 
HETATM   12  C   UNL     1      43.855  -8.694  10.555  1.00  0.00     0.152 A 
HETATM   13  N   UNL     1      43.377  -8.618  11.799  1.00  0.00    -0.187 NA
HETATM   14  N   UNL     1      43.243  -9.905  12.163  1.00  0.00    -0.289 N 
HETATM   15  H   UNL     1      42.892 -10.109  13.093  1.00  0.00     0.188 HD
HETATM   16  C   UNL     1      43.621 -10.786  11.190  1.00  0.00     0.123 A 
ENDBRANCH   7  11
ENDBRANCH   2   5
BRANCH   1  17
HETATM   17  C   UNL     1      43.346 -14.961   6.894  1.00  0.00     0.135 C 
HETATM   18  C   UNL     1      42.086 -15.747   7.260  1.00  0.00     0.031 C 
BRANCH  17  19
HETATM   19  S   UNL     1      44.690 -16.100   6.358  1.00  0.00    -0.150 SA
BRANCH  19  20
HETATM   20  C   UNL     1      43.816 -17.704   6.344  1.00  0.00     0.113 C 
BRANCH  20  21
HETATM   21  C   UNL     1      43.688 -18.237   4.936  1.00  0.00    -0.049 A 
HETATM   22  C   UNL     1      44.020 -19.567   4.642  1.00  0.00     0.008 A 
HETATM   23  C   UNL     1      43.900 -20.058   3.340  1.00  0.00     0.001 A 
HETATM   24  C   UNL     1      43.448 -19.224   2.320  1.00  0.00     0.000 A 
HETATM   25  C   UNL     1      43.121 -17.897   2.597  1.00  0.00     0.001 A 
HETATM   26  C   UNL     1      43.244 -17.404   3.897  1.00  0.00     0.008 A 
ENDBRANCH  20  21
ENDBRANCH  19  20
ENDBRANCH  17  19
ENDBRANCH   1  17
TORSDOF 6
ENDMDL
MODEL 5
REMARK VINA RESULT:      -6.7      2.149      3.268
REMARK  6 active torsions:
REMARK  status: ('A' for Active; 'I' for Inactive)
REMARK    1  A    between atoms: C_2  and  S_3 
REMARK    2  A    between atoms: C_2  and  C_11 
REMARK    3  A    between atoms: S_3  and  C_4 
REMARK    4  A    between atoms: C_4  and  C_5 
REMARK       I    between atoms: C_11  and  N_12 
REMARK    5  A    between atoms: N_12  and  C_13 
REMARK    6  A    between atoms: C_15  and  C_16 
ROOT
HETATM    1  C   UNL     1      40.858 -14.315   4.694  1.00  0.00     0.235 C 
HETATM    2  N   UNL     1      39.771 -13.848   4.017  1.00  0.00    -0.326 N 
HETATM    3  O   UNL     1      40.619 -14.973   5.717  1.00  0.00    -0.272 OA
HETATM    4  H   UNL     1      38.931 -14.068   4.543  1.00  0.00     0.169 HD
ENDROOT
BRANCH   2   5
HETATM    5  C   UNL     1      39.560 -13.123   2.831  1.00  0.00     0.035 A 
HETATM    6  C   UNL     1      39.774 -13.590   1.535  1.00  0.00     0.042 A 
HETATM    7  C   UNL     1      39.539 -12.772   0.412  1.00  0.00    -0.021 A 
HETATM    8  C   UNL     1      39.075 -11.467   0.604  1.00  0.00     0.012 A 
HETATM    9  C   UNL     1      38.830 -10.995   1.890  1.00  0.00     0.003 A 
HETATM   10  C   UNL     1      39.063 -11.820   2.992  1.00  0.00     0.029 A 
BRANCH   7  11
HETATM   11  C   UNL     1      39.777 -13.268  -0.933  1.00  0.00     0.010 A 
HETATM   12  C   UNL     1      40.577 -12.756  -1.981  1.00  0.00     0.152 A 
HETATM   13  N   UNL     1      40.521 -13.501  -3.087  1.00  0.00    -0.187 NA
HETATM   14  N   UNL     1      39.681 -14.495  -2.754  1.00  0.00    -0.289 N 
HETATM   15  H   UNL     1      39.472 -15.203  -3.450  1.00  0.00     0.188 HD
HETATM   16  C   UNL     1      39.207 -14.399  -1.477  1.00  0.00     0.123 A 
ENDBRANCH   7  11
ENDBRANCH   2   5
BRANCH   1  17
HETATM   17  C   UNL     1      42.298 -14.035   4.275  1.00  0.00     0.135 C 
HETATM   18  C   UNL     1      43.198 -13.840   5.497  1.00  0.00     0.031 C 
BRANCH  17  19
HETATM   19  S   UNL     1      42.940 -15.390   3.206  1.00  0.00    -0.150 SA
BRANCH  19  20
HETATM   20  C   UNL     1      43.614 -16.543   4.453  1.00  0.00     0.113 C 
BRANCH  20  21
HETATM   21  C   UNL     1      43.640 -17.957   3.922  1.00  0.00    -0.049 A 
HETATM   22  C   UNL     1      43.224 -18.237   2.612  1.00  0.00     0.008 A 
HETATM   23  C   UNL     1      43.250 -19.545   2.124  1.00  0.00     0.001 A 
HETATM   24  C   UNL     1      43.690 -20.585   2.939  1.00  0.00     0.000 A 
HETATM   25  C   UNL     1      44.099 -20.322   4.245  1.00  0.00     0.001 A 
HETATM   26  C   UNL     1      44.071 -19.016   4.736  1.00  0.00     0.008 A 
ENDBRANCH  20  21
ENDBRANCH  19  20
ENDBRANCH  17  19
ENDBRANCH   1  17
TORSDOF 6
ENDMDL
MODEL 6
REMARK VINA RESULT:      -6.6      3.042      5.287
REMARK  6 active torsions:
REMARK  status: ('A' for Active; 'I' for Inactive)
REMARK    1  A    between atoms: C_2  and  S_3 
REMARK    2  A    between atoms: C_2  and  C_11 
REMARK    3  A    between atoms: S_3  and  C_4 
REMARK    4  A    between atoms: C_4  and  C_5 
REMARK       I    between atoms: C_11  and  N_12 
REMARK    5  A    between atoms: N_12  and  C_13 
REMARK    6  A    between atoms: C_15  and  C_16 
ROOT
HETATM    1  C   UNL     1      40.230 -13.108   4.432  1.00  0.00     0.235 C 
HETATM    2  N   UNL     1      40.394 -14.333   3.854  1.00  0.00    -0.326 N 
HETATM    3  O   UNL     1      39.117 -12.888   4.930  1.00  0.00    -0.272 OA
HETATM    4  H   UNL     1      39.509 -14.829   3.870  1.00  0.00     0.169 HD
ENDROOT
BRANCH   2   5
HETATM    5  C   UNL     1      41.451 -15.016   3.227  1.00  0.00     0.035 A 
HETATM    6  C   UNL     1      41.805 -16.348   3.437  1.00  0.00     0.042 A 
HETATM    7  C   UNL     1      42.894 -16.932   2.761  1.00  0.00    -0.021 A 
HETATM    8  C   UNL     1      43.630 -16.160   1.857  1.00  0.00     0.012 A 
HETATM    9  C   UNL     1      43.272 -14.837   1.615  1.00  0.00     0.003 A 
HETATM   10  C   UNL     1      42.187 -14.274   2.290  1.00  0.00     0.029 A 
BRANCH   7  11
HETATM   11  C   UNL     1      43.259 -18.319   2.996  1.00  0.00     0.010 A 
HETATM   12  C   UNL     1      43.914 -18.931   4.089  1.00  0.00     0.152 A 
HETATM   13  N   UNL     1      44.083 -20.246   3.923  1.00  0.00    -0.187 NA
HETATM   14  N   UNL     1      43.537 -20.482   2.718  1.00  0.00    -0.289 N 
HETATM   15  H   UNL     1      43.548 -21.432   2.361  1.00  0.00     0.188 HD
HETATM   16  C   UNL     1      43.033 -19.362   2.122  1.00  0.00     0.123 A 
ENDBRANCH   7  11
ENDBRANCH   2   5
BRANCH   1  17
HETATM   17  C   UNL     1      41.311 -12.032   4.451  1.00  0.00     0.135 C 
HETATM   18  C   UNL     1      40.739 -10.670   4.054  1.00  0.00     0.031 C 
BRANCH  17  19
HETATM   19  S   UNL     1      42.111 -11.943   6.108  1.00  0.00    -0.150 SA
BRANCH  19  20
HETATM   20  C   UNL     1      43.635 -12.908   5.823  1.00  0.00     0.113 C 
BRANCH  20  21
HETATM   21  C   UNL     1      43.463 -14.338   6.279  1.00  0.00    -0.049 A 
HETATM   22  C   UNL     1      44.513 -15.259   6.156  1.00  0.00     0.008 A 
HETATM   23  C   UNL     1      44.351 -16.580   6.579  1.00  0.00     0.001 A 
HETATM   24  C   UNL     1      43.139 -16.993   7.128  1.00  0.00     0.000 A 
HETATM   25  C   UNL     1      42.085 -16.089   7.249  1.00  0.00     0.001 A 
HETATM   26  C   UNL     1      42.244 -14.769   6.823  1.00  0.00     0.008 A 
ENDBRANCH  20  21
ENDBRANCH  19  20
ENDBRANCH  17  19
ENDBRANCH   1  17
TORSDOF 6
ENDMDL
MODEL 7
REMARK VINA RESULT:      -6.5      2.373      3.493
REMARK  6 active torsions:
REMARK  status: ('A' for Active; 'I' for Inactive)
REMARK    1  A    between atoms: C_2  and  S_3 
REMARK    2  A    between atoms: C_2  and  C_11 
REMARK    3  A    between atoms: S_3  and  C_4 
REMARK    4  A    between atoms: C_4  and  C_5 
REMARK       I    between atoms: C_11  and  N_12 
REMARK    5  A    between atoms: N_12  and  C_13 
REMARK    6  A    between atoms: C_15  and  C_16 
ROOT
HETATM    1  C   UNL     1      40.108 -14.840   1.708  1.00  0.00     0.235 C 
HETATM    2  N   UNL     1      39.752 -14.561   0.421  1.00  0.00    -0.326 N 
HETATM    3  O   UNL     1      39.517 -15.790   2.240  1.00  0.00    -0.272 OA
HETATM    4  H   UNL     1      38.979 -15.160   0.153  1.00  0.00     0.169 HD
ENDROOT
BRANCH   2   5
HETATM    5  C   UNL     1      40.165 -13.641  -0.559  1.00  0.00     0.035 A 
HETATM    6  C   UNL     1      40.582 -12.330  -0.330  1.00  0.00     0.042 A 
HETATM    7  C   UNL     1      40.966 -11.488  -1.392  1.00  0.00    -0.021 A 
HETATM    8  C   UNL     1      40.936 -11.980  -2.700  1.00  0.00     0.012 A 
HETATM    9  C   UNL     1      40.549 -13.296  -2.942  1.00  0.00     0.003 A 
HETATM   10  C   UNL     1      40.175 -14.119  -1.878  1.00  0.00     0.029 A 
BRANCH   7  11
HETATM   11  C   UNL     1      41.388 -10.120  -1.141  1.00  0.00     0.010 A 
HETATM   12  C   UNL     1      41.612  -9.042  -2.030  1.00  0.00     0.152 A 
HETATM   13  N   UNL     1      42.013  -7.931  -1.407  1.00  0.00    -0.187 NA
HETATM   14  N   UNL     1      42.051  -8.293  -0.113  1.00  0.00    -0.289 N 
HETATM   15  H   UNL     1      42.338  -7.603   0.572  1.00  0.00     0.188 HD
HETATM   16  C   UNL     1      41.688  -9.593   0.097  1.00  0.00     0.123 A 
ENDBRANCH   7  11
ENDBRANCH   2   5
BRANCH   1  17
HETATM   17  C   UNL     1      41.137 -14.033   2.494  1.00  0.00     0.135 C 
HETATM   18  C   UNL     1      40.796 -14.011   3.986  1.00  0.00     0.031 C 
BRANCH  17  19
HETATM   19  S   UNL     1      42.832 -14.701   2.225  1.00  0.00    -0.150 SA
BRANCH  19  20
HETATM   20  C   UNL     1      43.123 -15.586   3.796  1.00  0.00     0.113 C 
BRANCH  20  21
HETATM   21  C   UNL     1      43.358 -17.057   3.552  1.00  0.00    -0.049 A 
HETATM   22  C   UNL     1      44.082 -17.829   4.473  1.00  0.00     0.008 A 
HETATM   23  C   UNL     1      44.298 -19.189   4.245  1.00  0.00     0.001 A 
HETATM   24  C   UNL     1      43.794 -19.792   3.094  1.00  0.00     0.000 A 
HETATM   25  C   UNL     1      43.080 -19.035   2.167  1.00  0.00     0.001 A 
HETATM   26  C   UNL     1      42.866 -17.674   2.392  1.00  0.00     0.008 A 
ENDBRANCH  20  21
ENDBRANCH  19  20
ENDBRANCH  17  19
ENDBRANCH   1  17
TORSDOF 6
ENDMDL
MODEL 8
REMARK VINA RESULT:      -6.2     16.443     18.454
REMARK  6 active torsions:
REMARK  status: ('A' for Active; 'I' for Inactive)
REMARK    1  A    between atoms: C_2  and  S_3 
REMARK    2  A    between atoms: C_2  and  C_11 
REMARK    3  A    between atoms: S_3  and  C_4 
REMARK    4  A    between atoms: C_4  and  C_5 
REMARK       I    between atoms: C_11  and  N_12 
REMARK    5  A    between atoms: N_12  and  C_13 
REMARK    6  A    between atoms: C_15  and  C_16 
ROOT
HETATM    1  C   UNL     1      50.086 -30.007  -0.251  1.00  0.00     0.235 C 
HETATM    2  N   UNL     1      49.046 -29.317   0.299  1.00  0.00    -0.326 N 
HETATM    3  O   UNL     1      51.099 -30.114   0.454  1.00  0.00    -0.272 OA
HETATM    4  H   UNL     1      49.337 -28.933   1.192  1.00  0.00     0.169 HD
ENDROOT
BRANCH   2   5
HETATM    5  C   UNL     1      47.736 -28.991  -0.093  1.00  0.00     0.035 A 
HETATM    6  C   UNL     1      46.572 -29.268   0.624  1.00  0.00     0.042 A 
HETATM    7  C   UNL     1      45.304 -28.905   0.131  1.00  0.00    -0.021 A 
HETATM    8  C   UNL     1      45.212 -28.247  -1.099  1.00  0.00     0.012 A 
HETATM    9  C   UNL     1      46.366 -27.938  -1.814  1.00  0.00     0.003 A 
HETATM   10  C   UNL     1      47.616 -28.301  -1.309  1.00  0.00     0.029 A 
BRANCH   7  11
HETATM   11  C   UNL     1      44.098 -29.209   0.883  1.00  0.00     0.010 A 
HETATM   12  C   UNL     1      42.744 -29.264   0.479  1.00  0.00     0.152 A 
HETATM   13  N   UNL     1      41.916 -29.568   1.482  1.00  0.00    -0.187 NA
HETATM   14  N   UNL     1      42.737 -29.707   2.536  1.00  0.00    -0.289 N 
HETATM   15  H   UNL     1      42.331 -29.940   3.436  1.00  0.00     0.188 HD
HETATM   16  C   UNL     1      44.052 -29.500   2.231  1.00  0.00     0.123 A 
ENDBRANCH   7  11
ENDBRANCH   2   5
BRANCH   1  17
HETATM   17  C   UNL     1      50.059 -30.595  -1.658  1.00  0.00     0.135 C 
HETATM   18  C   UNL     1      51.476 -30.777  -2.206  1.00  0.00     0.031 C 
BRANCH  17  19
HETATM   19  S   UNL     1      49.144 -32.193  -1.679  1.00  0.00    -0.150 SA
BRANCH  19  20
HETATM   20  C   UNL     1      48.212 -32.053  -3.244  1.00  0.00     0.113 C 
BRANCH  20  21
HETATM   21  C   UNL     1      46.748 -31.792  -2.979  1.00  0.00    -0.049 A 
HETATM   22  C   UNL     1      46.136 -32.274  -1.812  1.00  0.00     0.008 A 
HETATM   23  C   UNL     1      44.782 -32.031  -1.569  1.00  0.00     0.001 A 
HETATM   24  C   UNL     1      44.027 -31.306  -2.489  1.00  0.00     0.000 A 
HETATM   25  C   UNL     1      44.622 -30.829  -3.656  1.00  0.00     0.001 A 
HETATM   26  C   UNL     1      45.974 -31.073  -3.902  1.00  0.00     0.008 A 
ENDBRANCH  20  21
ENDBRANCH  19  20
ENDBRANCH  17  19
ENDBRANCH   1  17
TORSDOF 6
ENDMDL
MODEL 9
REMARK VINA RESULT:      -6.2      3.088      5.088
REMARK  6 active torsions:
REMARK  status: ('A' for Active; 'I' for Inactive)
REMARK    1  A    between atoms: C_2  and  S_3 
REMARK    2  A    between atoms: C_2  and  C_11 
REMARK    3  A    between atoms: S_3  and  C_4 
REMARK    4  A    between atoms: C_4  and  C_5 
REMARK       I    between atoms: C_11  and  N_12 
REMARK    5  A    between atoms: N_12  and  C_13 
REMARK    6  A    between atoms: C_15  and  C_16 
ROOT
HETATM    1  C   UNL     1      41.585 -11.275   1.562  1.00  0.00     0.235 C 
HETATM    2  N   UNL     1      41.864 -12.521   1.082  1.00  0.00    -0.326 N 
HETATM    3  O   UNL     1      41.995 -10.326   0.879  1.00  0.00    -0.272 OA
HETATM    4  H   UNL     1      42.451 -12.436   0.258  1.00  0.00     0.169 HD
ENDROOT
BRANCH   2   5
HETATM    5  C   UNL     1      41.575 -13.839   1.477  1.00  0.00     0.035 A 
HETATM    6  C   UNL     1      42.455 -14.718   2.107  1.00  0.00     0.042 A 
HETATM    7  C   UNL     1      42.063 -16.026   2.451  1.00  0.00    -0.021 A 
HETATM    8  C   UNL     1      40.762 -16.448   2.161  1.00  0.00     0.012 A 
HETATM    9  C   UNL     1      39.863 -15.573   1.558  1.00  0.00     0.003 A 
HETATM   10  C   UNL     1      40.266 -14.278   1.227  1.00  0.00     0.029 A 
BRANCH   7  11
HETATM   11  C   UNL     1      42.993 -16.936   3.098  1.00  0.00     0.010 A 
HETATM   12  C   UNL     1      43.760 -16.793   4.278  1.00  0.00     0.152 A 
HETATM   13  N   UNL     1      44.517 -17.861   4.538  1.00  0.00    -0.187 NA
HETATM   14  N   UNL     1      44.241 -18.696   3.522  1.00  0.00    -0.289 N 
HETATM   15  H   UNL     1      44.710 -19.595   3.495  1.00  0.00     0.188 HD
HETATM   16  C   UNL     1      43.337 -18.188   2.633  1.00  0.00     0.123 A 
ENDBRANCH   7  11
ENDBRANCH   2   5
BRANCH   1  17
HETATM   17  C   UNL     1      40.851 -11.021   2.875  1.00  0.00     0.135 C 
HETATM   18  C   UNL     1      39.419 -11.557   2.817  1.00  0.00     0.031 C 
BRANCH  17  19
HETATM   19  S   UNL     1      41.767 -11.766   4.288  1.00  0.00    -0.150 SA
BRANCH  19  20
HETATM   20  C   UNL     1      40.574 -13.023   4.867  1.00  0.00     0.113 C 
BRANCH  20  21
HETATM   21  C   UNL     1      41.248 -14.035   5.763  1.00  0.00    -0.049 A 
HETATM   22  C   UNL     1      40.669 -15.293   5.982  1.00  0.00     0.008 A 
HETATM   23  C   UNL     1      41.294 -16.228   6.810  1.00  0.00     0.001 A 
HETATM   24  C   UNL     1      42.502 -15.914   7.428  1.00  0.00     0.000 A 
HETATM   25  C   UNL     1      43.085 -14.664   7.224  1.00  0.00     0.001 A 
HETATM   26  C   UNL     1      42.460 -13.727   6.399  1.00  0.00     0.008 A 
ENDBRANCH  20  21
ENDBRANCH  19  20
ENDBRANCH  17  19
ENDBRANCH   1  17
TORSDOF 6
ENDMDL
MODEL 10
REMARK VINA RESULT:      -6.0      2.935      5.814
REMARK  6 active torsions:
REMARK  status: ('A' for Active; 'I' for Inactive)
REMARK    1  A    between atoms: C_2  and  S_3 
REMARK    2  A    between atoms: C_2  and  C_11 
REMARK    3  A    between atoms: S_3  and  C_4 
REMARK    4  A    between atoms: C_4  and  C_5 
REMARK       I    between atoms: C_11  and  N_12 
REMARK    5  A    between atoms: N_12  and  C_13 
REMARK    6  A    between atoms: C_15  and  C_16 
ROOT
HETATM    1  C   UNL     1      41.155 -13.824   1.026  1.00  0.00     0.235 C 
HETATM    2  N   UNL     1      41.367 -12.578   1.539  1.00  0.00    -0.326 N 
HETATM    3  O   UNL     1      40.799 -13.870  -0.160  1.00  0.00    -0.272 OA
HETATM    4  H   UNL     1      41.106 -11.885   0.845  1.00  0.00     0.169 HD
ENDROOT
BRANCH   2   5
HETATM    5  C   UNL     1      41.802 -12.058   2.770  1.00  0.00     0.035 A 
HETATM    6  C   UNL     1      40.992 -11.486   3.751  1.00  0.00     0.042 A 
HETATM    7  C   UNL     1      41.537 -10.985   4.950  1.00  0.00    -0.021 A 
HETATM    8  C   UNL     1      42.916 -11.068   5.161  1.00  0.00     0.012 A 
HETATM    9  C   UNL     1      43.735 -11.661   4.204  1.00  0.00     0.003 A 
HETATM   10  C   UNL     1      43.179 -12.158   3.023  1.00  0.00     0.029 A 
BRANCH   7  11
HETATM   11  C   UNL     1      40.683 -10.382   5.959  1.00  0.00     0.010 A 
HETATM   12  C   UNL     1      39.275 -10.265   6.032  1.00  0.00     0.152 A 
HETATM   13  N   UNL     1      38.864  -9.622   7.128  1.00  0.00    -0.187 NA
HETATM   14  N   UNL     1      40.009  -9.321   7.763  1.00  0.00    -0.289 N 
HETATM   15  H   UNL     1      39.955  -8.815   8.641  1.00  0.00     0.188 HD
HETATM   16  C   UNL     1      41.125  -9.752   7.104  1.00  0.00     0.123 A 
ENDBRANCH   7  11
ENDBRANCH   2   5
BRANCH   1  17
HETATM   17  C   UNL     1      41.296 -15.107   1.840  1.00  0.00     0.135 C 
HETATM   18  C   UNL     1      40.192 -16.106   1.489  1.00  0.00     0.031 C 
BRANCH  17  19
HETATM   19  S   UNL     1      42.958 -15.859   1.585  1.00  0.00    -0.150 SA
BRANCH  19  20
HETATM   20  C   UNL     1      43.342 -16.458   3.268  1.00  0.00     0.113 C 
BRANCH  20  21
HETATM   21  C   UNL     1      43.491 -17.961   3.285  1.00  0.00    -0.049 A 
HETATM   22  C   UNL     1      44.061 -18.611   4.389  1.00  0.00     0.008 A 
HETATM   23  C   UNL     1      44.197 -20.001   4.403  1.00  0.00     0.001 A 
HETATM   24  C   UNL     1      43.766 -20.754   3.313  1.00  0.00     0.000 A 
HETATM   25  C   UNL     1      43.204 -20.121   2.207  1.00  0.00     0.001 A 
HETATM   26  C   UNL     1      43.070 -18.731   2.190  1.00  0.00     0.008 A 
ENDBRANCH  20  21
ENDBRANCH  19  20
ENDBRANCH  17  19
ENDBRANCH   1  17
TORSDOF 6
ENDMDL
