MODEL 1
REMARK VINA RESULT:      -8.9      0.000      0.000
REMARK  3 active torsions:
REMARK  status: ('A' for Active; 'I' for Inactive)
REMARK    1  A    between atoms: C_9  and  N_10 
REMARK       I    between atoms: N_10  and  C_11 
REMARK    2  A    between atoms: C_11  and  C_12 
REMARK    3  A    between atoms: N_14  and  C_15 
ROOT
HETATM    1  N   UNL     1      42.745 -13.844   4.214  1.00  0.00    -0.322 N 
HETATM    2  C   UNL     1      41.513 -13.261   4.434  1.00  0.00     0.276 C 
HETATM    3  O   UNL     1      40.405 -13.769   4.337  1.00  0.00    -0.266 OA
HETATM    4  H   UNL     1      43.544 -13.227   4.345  1.00  0.00     0.169 HD
ENDROOT
BRANCH   2   5
HETATM    5  C   UNL     1      41.620 -11.815   4.912  1.00  0.00     0.145 A 
HETATM    6  N   UNL     1      42.336 -11.570   5.963  1.00  0.00    -0.159 NA
HETATM    7  N   UNL     1      42.408 -10.249   6.407  1.00  0.00    -0.197 N 
HETATM    8  C   UNL     1      41.703  -9.204   5.787  1.00  0.00     0.268 A 
HETATM    9  O   UNL     1      41.680  -8.016   6.099  1.00  0.00    -0.266 OA
HETATM   10  C   UNL     1      40.904  -9.575   4.593  1.00  0.00     0.079 A 
HETATM   11  C   UNL     1      40.857 -10.826   4.142  1.00  0.00     0.044 A 
BRANCH   7  12
HETATM   12  C   UNL     1      43.281 -10.065   7.541  1.00  0.00     0.062 A 
HETATM   13  C   UNL     1      42.843  -9.527   8.763  1.00  0.00     0.035 A 
HETATM   14  C   UNL     1      43.722  -9.343   9.840  1.00  0.00     0.044 A 
HETATM   15  C   UNL     1      45.055  -9.695   9.707  1.00  0.00     0.116 A 
HETATM   16  F   UNL     1      45.894  -9.513  10.734  1.00  0.00    -0.206 F 
HETATM   17  C   UNL     1      45.526 -10.233   8.521  1.00  0.00     0.044 A 
HETATM   18  C   UNL     1      44.645 -10.420   7.450  1.00  0.00     0.035 A 
ENDBRANCH   7  12
ENDBRANCH   2   5
BRANCH   1  19
HETATM   19  C   UNL     1      42.999 -15.180   3.851  1.00  0.00     0.035 A 
HETATM   20  C   UNL     1      43.337 -16.175   4.774  1.00  0.00     0.039 A 
HETATM   21  C   UNL     1      43.586 -17.461   4.315  1.00  0.00    -0.022 A 
HETATM   22  C   UNL     1      43.920 -18.670   5.118  1.00  0.00     0.274 C 
HETATM   23  C   UNL     1      43.506 -17.776   2.957  1.00  0.00    -0.025 A 
HETATM   24  N   UNL     1      44.312 -19.720   4.085  1.00  0.00    -0.067 N 
HETATM   25  C   UNL     1      43.903 -21.107   4.432  1.00  0.00     0.270 C 
HETATM   26  H   UNL     1      45.337 -19.685   4.026  1.00  0.00     0.280 HD
HETATM   27  C   UNL     1      43.794 -19.223   2.740  1.00  0.00     0.273 C 
HETATM   28  C   UNL     1      43.163 -16.809   2.029  1.00  0.00     0.012 A 
HETATM   29  C   UNL     1      42.908 -15.509   2.484  1.00  0.00     0.030 A 
ENDBRANCH   1  19
TORSDOF 3
ENDMDL
MODEL 2
REMARK VINA RESULT:      -8.9      3.483      9.143
REMARK  3 active torsions:
REMARK  status: ('A' for Active; 'I' for Inactive)
REMARK    1  A    between atoms: C_9  and  N_10 
REMARK       I    between atoms: N_10  and  C_11 
REMARK    2  A    between atoms: C_11  and  C_12 
REMARK    3  A    between atoms: N_14  and  C_15 
ROOT
HETATM    1  N   UNL     1      43.609 -12.330   5.805  1.00  0.00    -0.322 N 
HETATM    2  C   UNL     1      43.023 -13.580   5.848  1.00  0.00     0.276 C 
HETATM    3  O   UNL     1      42.476 -14.128   6.793  1.00  0.00    -0.266 OA
HETATM    4  H   UNL     1      44.018 -12.077   4.908  1.00  0.00     0.169 HD
ENDROOT
BRANCH   2   5
HETATM    5  C   UNL     1      43.044 -14.289   4.497  1.00  0.00     0.145 A 
HETATM    6  N   UNL     1      43.272 -15.565   4.480  1.00  0.00    -0.159 NA
HETATM    7  N   UNL     1      43.313 -16.201   3.239  1.00  0.00    -0.197 N 
HETATM    8  C   UNL     1      43.165 -15.505   2.027  1.00  0.00     0.268 A 
HETATM    9  O   UNL     1      43.200 -15.956   0.885  1.00  0.00    -0.266 OA
HETATM   10  C   UNL     1      42.913 -14.048   2.140  1.00  0.00     0.079 A 
HETATM   11  C   UNL     1      42.837 -13.438   3.321  1.00  0.00     0.044 A 
BRANCH   7  12
HETATM   12  C   UNL     1      43.505 -17.629   3.325  1.00  0.00     0.062 A 
HETATM   13  C   UNL     1      43.140 -18.512   2.295  1.00  0.00     0.035 A 
HETATM   14  C   UNL     1      43.322 -19.897   2.419  1.00  0.00     0.044 A 
HETATM   15  C   UNL     1      43.870 -20.417   3.579  1.00  0.00     0.116 A 
HETATM   16  F   UNL     1      44.038 -21.740   3.699  1.00  0.00    -0.206 F 
HETATM   17  C   UNL     1      44.248 -19.580   4.616  1.00  0.00     0.044 A 
HETATM   18  C   UNL     1      44.070 -18.198   4.487  1.00  0.00     0.035 A 
ENDBRANCH   7  12
ENDBRANCH   2   5
BRANCH   1  19
HETATM   19  C   UNL     1      43.681 -11.390   6.850  1.00  0.00     0.035 A 
HETATM   20  C   UNL     1      42.644 -10.503   7.156  1.00  0.00     0.039 A 
HETATM   21  C   UNL     1      42.817  -9.599   8.195  1.00  0.00    -0.022 A 
HETATM   22  C   UNL     1      41.840  -8.601   8.712  1.00  0.00     0.274 C 
HETATM   23  C   UNL     1      44.000  -9.562   8.935  1.00  0.00    -0.025 A 
HETATM   24  N   UNL     1      42.644  -7.744   9.682  1.00  0.00    -0.067 N 
HETATM   25  C   UNL     1      41.884  -7.284  10.874  1.00  0.00     0.270 C 
HETATM   26  H   UNL     1      42.943  -6.921   9.145  1.00  0.00     0.280 HD
HETATM   27  C   UNL     1      43.915  -8.523  10.001  1.00  0.00     0.273 C 
HETATM   28  C   UNL     1      45.035 -10.438   8.656  1.00  0.00     0.012 A 
HETATM   29  C   UNL     1      44.867 -11.353   7.609  1.00  0.00     0.030 A 
ENDBRANCH   1  19
TORSDOF 3
ENDMDL
MODEL 3
REMARK VINA RESULT:      -8.9      4.795      8.497
REMARK  3 active torsions:
REMARK  status: ('A' for Active; 'I' for Inactive)
REMARK    1  A    between atoms: C_9  and  N_10 
REMARK       I    between atoms: N_10  and  C_11 
REMARK    2  A    between atoms: C_11  and  C_12 
REMARK    3  A    between atoms: N_14  and  C_15 
ROOT
HETATM    1  N   UNL     1      41.656 -14.102   1.855  1.00  0.00    -0.322 N 
HETATM    2  C   UNL     1      41.664 -13.548   3.119  1.00  0.00     0.276 C 
HETATM    3  O   UNL     1      41.090 -12.542   3.509  1.00  0.00    -0.266 OA
HETATM    4  H   UNL     1      42.217 -14.945   1.750  1.00  0.00     0.169 HD
ENDROOT
BRANCH   2   5
HETATM    5  C   UNL     1      42.461 -14.376   4.123  1.00  0.00     0.145 A 
HETATM    6  N   UNL     1      42.643 -15.634   3.870  1.00  0.00    -0.159 NA
HETATM    7  N   UNL     1      43.352 -16.389   4.805  1.00  0.00    -0.197 N 
HETATM    8  C   UNL     1      43.825 -15.847   6.012  1.00  0.00     0.268 A 
HETATM    9  O   UNL     1      44.441 -16.418   6.908  1.00  0.00    -0.266 OA
HETATM   10  C   UNL     1      43.567 -14.401   6.222  1.00  0.00     0.079 A 
HETATM   11  C   UNL     1      42.922 -13.665   5.320  1.00  0.00     0.044 A 
BRANCH   7  12
HETATM   12  C   UNL     1      43.562 -17.759   4.404  1.00  0.00     0.062 A 
HETATM   13  C   UNL     1      43.884 -18.781   5.314  1.00  0.00     0.035 A 
HETATM   14  C   UNL     1      44.101 -20.099   4.890  1.00  0.00     0.044 A 
HETATM   15  C   UNL     1      44.001 -20.413   3.545  1.00  0.00     0.116 A 
HETATM   16  F   UNL     1      44.215 -21.671   3.140  1.00  0.00    -0.206 F 
HETATM   17  C   UNL     1      43.682 -19.437   2.616  1.00  0.00     0.044 A 
HETATM   18  C   UNL     1      43.461 -18.123   3.044  1.00  0.00     0.035 A 
ENDBRANCH   7  12
ENDBRANCH   2   5
BRANCH   1  19
HETATM   19  C   UNL     1      40.952 -13.636   0.728  1.00  0.00     0.035 A 
HETATM   20  C   UNL     1      40.965 -12.300   0.314  1.00  0.00     0.039 A 
HETATM   21  C   UNL     1      40.223 -11.935  -0.801  1.00  0.00    -0.022 A 
HETATM   22  C   UNL     1      40.126 -10.591  -1.434  1.00  0.00     0.274 C 
HETATM   23  C   UNL     1      39.470 -12.872  -1.511  1.00  0.00    -0.025 A 
HETATM   24  N   UNL     1      39.006 -10.730  -2.459  1.00  0.00    -0.067 N 
HETATM   25  C   UNL     1      39.214  -9.951  -3.708  1.00  0.00     0.270 C 
HETATM   26  H   UNL     1      38.157 -10.386  -1.995  1.00  0.00     0.280 HD
HETATM   27  C   UNL     1      38.793 -12.225  -2.672  1.00  0.00     0.273 C 
HETATM   28  C   UNL     1      39.451 -14.201  -1.124  1.00  0.00     0.012 A 
HETATM   29  C   UNL     1      40.198 -14.577  -0.001  1.00  0.00     0.030 A 
ENDBRANCH   1  19
TORSDOF 3
ENDMDL
MODEL 4
REMARK VINA RESULT:      -8.6      1.531      1.760
REMARK  3 active torsions:
REMARK  status: ('A' for Active; 'I' for Inactive)
REMARK    1  A    between atoms: C_9  and  N_10 
REMARK       I    between atoms: N_10  and  C_11 
REMARK    2  A    between atoms: C_11  and  C_12 
REMARK    3  A    between atoms: N_14  and  C_15 
ROOT
HETATM    1  N   UNL     1      42.734 -13.726   4.917  1.00  0.00    -0.322 N 
HETATM    2  C   UNL     1      43.475 -13.077   5.885  1.00  0.00     0.276 C 
HETATM    3  O   UNL     1      44.467 -13.479   6.476  1.00  0.00    -0.266 OA
HETATM    4  H   UNL     1      41.934 -13.203   4.565  1.00  0.00     0.169 HD
ENDROOT
BRANCH   2   5
HETATM    5  C   UNL     1      42.974 -11.664   6.165  1.00  0.00     0.145 A 
HETATM    6  N   UNL     1      43.111 -11.192   7.364  1.00  0.00    -0.159 NA
HETATM    7  N   UNL     1      42.629  -9.907   7.617  1.00  0.00    -0.197 N 
HETATM    8  C   UNL     1      41.969  -9.142   6.640  1.00  0.00     0.268 A 
HETATM    9  O   UNL     1      41.492  -8.016   6.755  1.00  0.00    -0.266 OA
HETATM   10  C   UNL     1      41.851  -9.762   5.297  1.00  0.00     0.079 A 
HETATM   11  C   UNL     1      42.339 -10.972   5.038  1.00  0.00     0.044 A 
BRANCH   7  12
HETATM   12  C   UNL     1      42.887  -9.444   8.959  1.00  0.00     0.062 A 
HETATM   13  C   UNL     1      41.987  -8.638   9.676  1.00  0.00     0.035 A 
HETATM   14  C   UNL     1      42.277  -8.189  10.971  1.00  0.00     0.044 A 
HETATM   15  C   UNL     1      43.476  -8.539  11.568  1.00  0.00     0.116 A 
HETATM   16  F   UNL     1      43.756  -8.104  12.803  1.00  0.00    -0.206 F 
HETATM   17  C   UNL     1      44.390  -9.335  10.897  1.00  0.00     0.044 A 
HETATM   18  C   UNL     1      44.095  -9.787   9.605  1.00  0.00     0.035 A 
ENDBRANCH   7  12
ENDBRANCH   2   5
BRANCH   1  19
HETATM   19  C   UNL     1      42.979 -15.000   4.372  1.00  0.00     0.035 A 
HETATM   20  C   UNL     1      43.303 -16.117   5.149  1.00  0.00     0.039 A 
HETATM   21  C   UNL     1      43.546 -17.328   4.516  1.00  0.00    -0.022 A 
HETATM   22  C   UNL     1      43.865 -18.641   5.144  1.00  0.00     0.274 C 
HETATM   23  C   UNL     1      43.471 -17.450   3.127  1.00  0.00    -0.025 A 
HETATM   24  N   UNL     1      44.254 -19.539   3.976  1.00  0.00    -0.067 N 
HETATM   25  C   UNL     1      43.833 -20.958   4.123  1.00  0.00     0.270 C 
HETATM   26  H   UNL     1      45.280 -19.505   3.927  1.00  0.00     0.280 HD
HETATM   27  C   UNL     1      43.749 -18.855   2.711  1.00  0.00     0.273 C 
HETATM   28  C   UNL     1      43.141 -16.360   2.341  1.00  0.00     0.012 A 
HETATM   29  C   UNL     1      42.895 -15.134   2.972  1.00  0.00     0.030 A 
ENDBRANCH   1  19
TORSDOF 3
ENDMDL
MODEL 5
REMARK VINA RESULT:      -8.5      4.602     10.334
REMARK  3 active torsions:
REMARK  status: ('A' for Active; 'I' for Inactive)
REMARK    1  A    between atoms: C_9  and  N_10 
REMARK       I    between atoms: N_10  and  C_11 
REMARK    2  A    between atoms: C_11  and  C_12 
REMARK    3  A    between atoms: N_14  and  C_15 
ROOT
HETATM    1  N   UNL     1      43.345  -9.608  11.034  1.00  0.00    -0.322 N 
HETATM    2  C   UNL     1      43.279  -8.993   9.799  1.00  0.00     0.276 C 
HETATM    3  O   UNL     1      42.668  -7.981   9.488  1.00  0.00    -0.266 OA
HETATM    4  H   UNL     1      43.911 -10.453  11.064  1.00  0.00     0.169 HD
ENDROOT
BRANCH   2   5
HETATM    5  C   UNL     1      44.147  -9.681   8.749  1.00  0.00     0.145 A 
HETATM    6  N   UNL     1      43.629 -10.655   8.070  1.00  0.00    -0.159 NA
HETATM    7  N   UNL     1      44.437 -11.294   7.129  1.00  0.00    -0.197 N 
HETATM    8  C   UNL     1      45.785 -10.949   6.933  1.00  0.00     0.268 A 
HETATM    9  O   UNL     1      46.589 -11.450   6.151  1.00  0.00    -0.266 OA
HETATM   10  C   UNL     1      46.297  -9.827   7.756  1.00  0.00     0.079 A 
HETATM   11  C   UNL     1      45.524  -9.188   8.632  1.00  0.00     0.044 A 
BRANCH   7  12
HETATM   12  C   UNL     1      43.753 -12.318   6.377  1.00  0.00     0.062 A 
HETATM   13  C   UNL     1      43.843 -13.685   6.692  1.00  0.00     0.035 A 
HETATM   14  C   UNL     1      43.181 -14.657   5.930  1.00  0.00     0.044 A 
HETATM   15  C   UNL     1      42.421 -14.274   4.837  1.00  0.00     0.116 A 
HETATM   16  F   UNL     1      41.795 -15.204   4.105  1.00  0.00    -0.206 F 
HETATM   17  C   UNL     1      42.304 -12.937   4.495  1.00  0.00     0.044 A 
HETATM   18  C   UNL     1      42.961 -11.968   5.262  1.00  0.00     0.035 A 
ENDBRANCH   7  12
ENDBRANCH   2   5
BRANCH   1  19
HETATM   19  C   UNL     1      42.735  -9.181  12.229  1.00  0.00     0.035 A 
HETATM   20  C   UNL     1      43.242  -8.145  13.021  1.00  0.00     0.039 A 
HETATM   21  C   UNL     1      42.578  -7.809  14.192  1.00  0.00    -0.022 A 
HETATM   22  C   UNL     1      42.915  -6.725  15.157  1.00  0.00     0.274 C 
HETATM   23  C   UNL     1      41.420  -8.481  14.590  1.00  0.00    -0.025 A 
HETATM   24  N   UNL     1      41.998  -6.972  16.348  1.00  0.00    -0.067 N 
HETATM   25  C   UNL     1      41.510  -5.737  17.017  1.00  0.00     0.270 C 
HETATM   26  H   UNL     1      42.554  -7.513  17.022  1.00  0.00     0.280 HD
HETATM   27  C   UNL     1      40.897  -7.909  15.864  1.00  0.00     0.273 C 
HETATM   28  C   UNL     1      40.897  -9.501  13.815  1.00  0.00     0.012 A 
HETATM   29  C   UNL     1      41.561  -9.846  12.631  1.00  0.00     0.030 A 
ENDBRANCH   1  19
TORSDOF 3
ENDMDL
MODEL 6
REMARK VINA RESULT:      -8.5      5.118      7.070
REMARK  3 active torsions:
REMARK  status: ('A' for Active; 'I' for Inactive)
REMARK    1  A    between atoms: C_9  and  N_10 
REMARK       I    between atoms: N_10  and  C_11 
REMARK    2  A    between atoms: C_11  and  C_12 
REMARK    3  A    between atoms: N_14  and  C_15 
ROOT
HETATM    1  N   UNL     1      41.711 -14.457   0.949  1.00  0.00    -0.322 N 
HETATM    2  C   UNL     1      40.500 -14.710   0.336  1.00  0.00     0.276 C 
HETATM    3  O   UNL     1      39.720 -15.627   0.546  1.00  0.00    -0.266 OA
HETATM    4  H   UNL     1      42.203 -13.635   0.608  1.00  0.00     0.169 HD
ENDROOT
BRANCH   2   5
HETATM    5  C   UNL     1      40.118 -13.639  -0.682  1.00  0.00     0.145 A 
HETATM    6  N   UNL     1      40.494 -12.420  -0.458  1.00  0.00    -0.159 NA
HETATM    7  N   UNL     1      40.120 -11.444  -1.382  1.00  0.00    -0.197 N 
HETATM    8  C   UNL     1      39.322 -11.730  -2.503  1.00  0.00     0.268 A 
HETATM    9  O   UNL     1      38.922 -10.953  -3.365  1.00  0.00    -0.266 OA
HETATM   10  C   UNL     1      38.932 -13.150  -2.679  1.00  0.00     0.079 A 
HETATM   11  C   UNL     1      39.313 -14.094  -1.822  1.00  0.00     0.044 A 
BRANCH   7  12
HETATM   12  C   UNL     1      40.642 -10.132  -1.083  1.00  0.00     0.062 A 
HETATM   13  C   UNL     1      41.928  -9.716  -1.466  1.00  0.00     0.035 A 
HETATM   14  C   UNL     1      42.413  -8.441  -1.142  1.00  0.00     0.044 A 
HETATM   15  C   UNL     1      41.615  -7.563  -0.427  1.00  0.00     0.116 A 
HETATM   16  F   UNL     1      42.080  -6.348  -0.113  1.00  0.00    -0.206 F 
HETATM   17  C   UNL     1      40.339  -7.933  -0.034  1.00  0.00     0.044 A 
HETATM   18  C   UNL     1      39.857  -9.205  -0.364  1.00  0.00     0.035 A 
ENDBRANCH   7  12
ENDBRANCH   2   5
BRANCH   1  19
HETATM   19  C   UNL     1      42.308 -15.199   1.986  1.00  0.00     0.035 A 
HETATM   20  C   UNL     1      42.428 -14.725   3.297  1.00  0.00     0.039 A 
HETATM   21  C   UNL     1      43.050 -15.524   4.246  1.00  0.00    -0.022 A 
HETATM   22  C   UNL     1      43.249 -15.238   5.695  1.00  0.00     0.274 C 
HETATM   23  C   UNL     1      43.553 -16.784   3.918  1.00  0.00    -0.025 A 
HETATM   24  N   UNL     1      44.180 -16.343   6.179  1.00  0.00    -0.067 N 
HETATM   25  C   UNL     1      43.912 -16.812   7.564  1.00  0.00     0.270 C 
HETATM   26  H   UNL     1      45.126 -15.946   6.144  1.00  0.00     0.280 HD
HETATM   27  C   UNL     1      44.144 -17.439   5.120  1.00  0.00     0.273 C 
HETATM   28  C   UNL     1      43.435 -17.276   2.629  1.00  0.00     0.012 A 
HETATM   29  C   UNL     1      42.808 -16.476   1.666  1.00  0.00     0.030 A 
ENDBRANCH   1  19
TORSDOF 3
ENDMDL
MODEL 7
REMARK VINA RESULT:      -8.5      3.518      9.104
REMARK  3 active torsions:
REMARK  status: ('A' for Active; 'I' for Inactive)
REMARK    1  A    between atoms: C_9  and  N_10 
REMARK       I    between atoms: N_10  and  C_11 
REMARK    2  A    between atoms: C_11  and  C_12 
REMARK    3  A    between atoms: N_14  and  C_15 
ROOT
HETATM    1  N   UNL     1      42.952 -10.228   7.603  1.00  0.00    -0.322 N 
HETATM    2  C   UNL     1      43.406 -11.432   7.102  1.00  0.00     0.276 C 
HETATM    3  O   UNL     1      44.007 -12.320   7.689  1.00  0.00    -0.266 OA
HETATM    4  H   UNL     1      42.481  -9.631   6.927  1.00  0.00     0.169 HD
ENDROOT
BRANCH   2   5
HETATM    5  C   UNL     1      43.027 -11.644   5.639  1.00  0.00     0.145 A 
HETATM    6  N   UNL     1      43.186 -12.826   5.131  1.00  0.00    -0.159 NA
HETATM    7  N   UNL     1      42.859 -13.005   3.786  1.00  0.00    -0.197 N 
HETATM    8  C   UNL     1      42.416 -11.950   2.969  1.00  0.00     0.268 A 
HETATM    9  O   UNL     1      42.119 -11.989   1.778  1.00  0.00    -0.266 OA
HETATM   10  C   UNL     1      42.268 -10.631   3.632  1.00  0.00     0.079 A 
HETATM   11  C   UNL     1      42.544 -10.459   4.922  1.00  0.00     0.044 A 
BRANCH   7  12
HETATM   12  C   UNL     1      43.006 -14.366   3.330  1.00  0.00     0.062 A 
HETATM   13  C   UNL     1      43.258 -14.699   1.989  1.00  0.00     0.035 A 
HETATM   14  C   UNL     1      43.375 -16.033   1.574  1.00  0.00     0.044 A 
HETATM   15  C   UNL     1      43.238 -17.055   2.499  1.00  0.00     0.116 A 
HETATM   16  F   UNL     1      43.344 -18.329   2.102  1.00  0.00    -0.206 F 
HETATM   17  C   UNL     1      42.993 -16.768   3.833  1.00  0.00     0.044 A 
HETATM   18  C   UNL     1      42.882 -15.435   4.243  1.00  0.00     0.035 A 
ENDBRANCH   7  12
ENDBRANCH   2   5
BRANCH   1  19
HETATM   19  C   UNL     1      43.060  -9.765   8.928  1.00  0.00     0.035 A 
HETATM   20  C   UNL     1      41.953  -9.512   9.745  1.00  0.00     0.039 A 
HETATM   21  C   UNL     1      42.163  -9.040  11.033  1.00  0.00    -0.022 A 
HETATM   22  C   UNL     1      41.141  -8.744  12.076  1.00  0.00     0.274 C 
HETATM   23  C   UNL     1      43.450  -8.816  11.524  1.00  0.00    -0.025 A 
HETATM   24  N   UNL     1      41.918  -8.045  13.185  1.00  0.00    -0.067 N 
HETATM   25  C   UNL     1      41.449  -8.363  14.560  1.00  0.00     0.270 C 
HETATM   26  H   UNL     1      41.796  -7.038  13.021  1.00  0.00     0.280 HD
HETATM   27  C   UNL     1      43.394  -8.336  12.935  1.00  0.00     0.273 C 
HETATM   28  C   UNL     1      44.559  -9.070  10.736  1.00  0.00     0.012 A 
HETATM   29  C   UNL     1      44.356  -9.548   9.435  1.00  0.00     0.030 A 
ENDBRANCH   1  19
TORSDOF 3
ENDMDL
MODEL 8
REMARK VINA RESULT:      -8.3      3.654      9.596
REMARK  3 active torsions:
REMARK  status: ('A' for Active; 'I' for Inactive)
REMARK    1  A    between atoms: C_9  and  N_10 
REMARK       I    between atoms: N_10  and  C_11 
REMARK    2  A    between atoms: C_11  and  C_12 
REMARK    3  A    between atoms: N_14  and  C_15 
ROOT
HETATM    1  N   UNL     1      42.924 -10.351   8.732  1.00  0.00    -0.322 N 
HETATM    2  C   UNL     1      44.003 -11.025   8.195  1.00  0.00     0.276 C 
HETATM    3  O   UNL     1      45.135 -11.124   8.644  1.00  0.00    -0.266 OA
HETATM    4  H   UNL     1      42.071 -10.393   8.180  1.00  0.00     0.169 HD
ENDROOT
BRANCH   2   5
HETATM    5  C   UNL     1      43.655 -11.766   6.907  1.00  0.00     0.145 A 
HETATM    6  N   UNL     1      43.705 -13.060   6.914  1.00  0.00    -0.159 NA
HETATM    7  N   UNL     1      43.409 -13.729   5.725  1.00  0.00    -0.197 N 
HETATM    8  C   UNL     1      43.110 -13.050   4.531  1.00  0.00     0.268 A 
HETATM    9  O   UNL     1      42.852 -13.532   3.431  1.00  0.00    -0.266 OA
HETATM   10  C   UNL     1      43.080 -11.570   4.613  1.00  0.00     0.079 A 
HETATM   11  C   UNL     1      43.327 -10.924   5.751  1.00  0.00     0.044 A 
BRANCH   7  12
HETATM   12  C   UNL     1      43.425 -15.166   5.848  1.00  0.00     0.062 A 
HETATM   13  C   UNL     1      43.375 -16.029   4.740  1.00  0.00     0.035 A 
HETATM   14  C   UNL     1      43.372 -17.422   4.895  1.00  0.00     0.044 A 
HETATM   15  C   UNL     1      43.418 -17.972   6.165  1.00  0.00     0.116 A 
HETATM   16  F   UNL     1      43.409 -19.303   6.313  1.00  0.00    -0.206 F 
HETATM   17  C   UNL     1      43.472 -17.157   7.284  1.00  0.00     0.044 A 
HETATM   18  C   UNL     1      43.480 -15.766   7.125  1.00  0.00     0.035 A 
ENDBRANCH   7  12
ENDBRANCH   2   5
BRANCH   1  19
HETATM   19  C   UNL     1      42.886  -9.643   9.949  1.00  0.00     0.035 A 
HETATM   20  C   UNL     1      42.554  -8.287  10.036  1.00  0.00     0.039 A 
HETATM   21  C   UNL     1      42.562  -7.672  11.281  1.00  0.00    -0.022 A 
HETATM   22  C   UNL     1      42.207  -6.263  11.607  1.00  0.00     0.274 C 
HETATM   23  C   UNL     1      42.892  -8.380  12.438  1.00  0.00    -0.025 A 
HETATM   24  N   UNL     1      42.619  -6.092  13.064  1.00  0.00    -0.067 N 
HETATM   25  C   UNL     1      41.722  -5.211  13.859  1.00  0.00     0.270 C 
HETATM   26  H   UNL     1      43.556  -5.672  13.042  1.00  0.00     0.280 HD
HETATM   27  C   UNL     1      42.799  -7.494  13.634  1.00  0.00     0.273 C 
HETATM   28  C   UNL     1      43.213  -9.724  12.375  1.00  0.00     0.012 A 
HETATM   29  C   UNL     1      43.207 -10.352  11.123  1.00  0.00     0.030 A 
ENDBRANCH   1  19
TORSDOF 3
ENDMDL
MODEL 9
REMARK VINA RESULT:      -8.3      3.091      4.595
REMARK  3 active torsions:
REMARK  status: ('A' for Active; 'I' for Inactive)
REMARK    1  A    between atoms: C_9  and  N_10 
REMARK       I    between atoms: N_10  and  C_11 
REMARK    2  A    between atoms: C_11  and  C_12 
REMARK    3  A    between atoms: N_14  and  C_15 
ROOT
HETATM    1  N   UNL     1      42.977 -12.624   4.513  1.00  0.00    -0.322 N 
HETATM    2  C   UNL     1      42.516 -12.060   5.686  1.00  0.00     0.276 C 
HETATM    3  O   UNL     1      41.372 -12.035   6.116  1.00  0.00    -0.266 OA
HETATM    4  H   UNL     1      43.976 -12.518   4.348  1.00  0.00     0.169 HD
ENDROOT
BRANCH   2   5
HETATM    5  C   UNL     1      43.633 -11.459   6.533  1.00  0.00     0.145 A 
HETATM    6  N   UNL     1      43.317 -10.914   7.665  1.00  0.00    -0.159 NA
HETATM    7  N   UNL     1      44.343 -10.346   8.422  1.00  0.00    -0.197 N 
HETATM    8  C   UNL     1      45.676 -10.306   7.979  1.00  0.00     0.268 A 
HETATM    9  O   UNL     1      46.649  -9.820   8.550  1.00  0.00    -0.266 OA
HETATM   10  C   UNL     1      45.946 -10.947   6.670  1.00  0.00     0.079 A 
HETATM   11  C   UNL     1      44.981 -11.523   5.957  1.00  0.00     0.044 A 
BRANCH   7  12
HETATM   12  C   UNL     1      43.904  -9.827   9.695  1.00  0.00     0.062 A 
HETATM   13  C   UNL     1      43.693 -10.641  10.821  1.00  0.00     0.035 A 
HETATM   14  C   UNL     1      43.248 -10.107  12.038  1.00  0.00     0.044 A 
HETATM   15  C   UNL     1      43.004  -8.748  12.145  1.00  0.00     0.116 A 
HETATM   16  F   UNL     1      42.573  -8.239  13.305  1.00  0.00    -0.206 F 
HETATM   17  C   UNL     1      43.204  -7.910  11.059  1.00  0.00     0.044 A 
HETATM   18  C   UNL     1      43.654  -8.446   9.847  1.00  0.00     0.035 A 
ENDBRANCH   7  12
ENDBRANCH   2   5
BRANCH   1  19
HETATM   19  C   UNL     1      42.223 -13.328   3.555  1.00  0.00     0.035 A 
HETATM   20  C   UNL     1      41.675 -12.727   2.417  1.00  0.00     0.039 A 
HETATM   21  C   UNL     1      40.931 -13.503   1.540  1.00  0.00    -0.022 A 
HETATM   22  C   UNL     1      40.295 -13.083   0.260  1.00  0.00     0.274 C 
HETATM   23  C   UNL     1      40.722 -14.864   1.772  1.00  0.00    -0.025 A 
HETATM   24  N   UNL     1      39.430 -14.270  -0.146  1.00  0.00    -0.067 N 
HETATM   25  C   UNL     1      39.362 -14.509  -1.612  1.00  0.00     0.270 C 
HETATM   26  H   UNL     1      38.485 -14.057   0.196  1.00  0.00     0.280 HD
HETATM   27  C   UNL     1      39.915 -15.463   0.670  1.00  0.00     0.273 C 
HETATM   28  C   UNL     1      41.264 -15.481   2.886  1.00  0.00     0.012 A 
HETATM   29  C   UNL     1      42.017 -14.704   3.776  1.00  0.00     0.030 A 
ENDBRANCH   1  19
TORSDOF 3
ENDMDL
MODEL 10
REMARK VINA RESULT:      -8.2     16.918     18.266
REMARK  3 active torsions:
REMARK  status: ('A' for Active; 'I' for Inactive)
REMARK    1  A    between atoms: C_9  and  N_10 
REMARK       I    between atoms: N_10  and  C_11 
REMARK    2  A    between atoms: C_11  and  C_12 
REMARK    3  A    between atoms: N_14  and  C_15 
ROOT
HETATM    1  N   UNL     1      43.094 -30.676   1.974  1.00  0.00    -0.322 N 
HETATM    2  C   UNL     1      43.035 -29.556   1.168  1.00  0.00     0.276 C 
HETATM    3  O   UNL     1      42.067 -28.855   0.913  1.00  0.00    -0.266 OA
HETATM    4  H   UNL     1      44.010 -31.114   2.037  1.00  0.00     0.169 HD
ENDROOT
BRANCH   2   5
HETATM    5  C   UNL     1      44.397 -29.164   0.601  1.00  0.00     0.145 A 
HETATM    6  N   UNL     1      45.445 -29.361   1.336  1.00  0.00    -0.159 NA
HETATM    7  N   UNL     1      46.683 -28.978   0.818  1.00  0.00    -0.197 N 
HETATM    8  C   UNL     1      46.819 -28.353  -0.433  1.00  0.00     0.268 A 
HETATM    9  O   UNL     1      47.848 -27.961  -0.976  1.00  0.00    -0.266 OA
HETATM   10  C   UNL     1      45.566 -28.161  -1.204  1.00  0.00     0.079 A 
HETATM   11  C   UNL     1      44.385 -28.555  -0.734  1.00  0.00     0.044 A 
BRANCH   7  12
HETATM   12  C   UNL     1      47.796 -29.299   1.679  1.00  0.00     0.062 A 
HETATM   13  C   UNL     1      48.672 -30.368   1.429  1.00  0.00     0.035 A 
HETATM   14  C   UNL     1      49.732 -30.666   2.296  1.00  0.00     0.044 A 
HETATM   15  C   UNL     1      49.929 -29.896   3.430  1.00  0.00     0.116 A 
HETATM   16  F   UNL     1      50.938 -30.184   4.262  1.00  0.00    -0.206 F 
HETATM   17  C   UNL     1      49.090 -28.830   3.712  1.00  0.00     0.044 A 
HETATM   18  C   UNL     1      48.036 -28.533   2.841  1.00  0.00     0.035 A 
ENDBRANCH   7  12
ENDBRANCH   2   5
BRANCH   1  19
HETATM   19  C   UNL     1      42.039 -31.247   2.711  1.00  0.00     0.035 A 
HETATM   20  C   UNL     1      42.075 -31.410   4.100  1.00  0.00     0.039 A 
HETATM   21  C   UNL     1      40.991 -32.002   4.735  1.00  0.00    -0.022 A 
HETATM   22  C   UNL     1      40.802 -32.236   6.193  1.00  0.00     0.274 C 
HETATM   23  C   UNL     1      39.874 -32.432   4.016  1.00  0.00    -0.025 A 
HETATM   24  N   UNL     1      39.559 -33.113   6.282  1.00  0.00    -0.067 N 
HETATM   25  C   UNL     1      38.695 -32.840   7.461  1.00  0.00     0.270 C 
HETATM   26  H   UNL     1      39.903 -34.079   6.344  1.00  0.00     0.280 HD
HETATM   27  C   UNL     1      38.851 -33.004   4.937  1.00  0.00     0.273 C 
HETATM   28  C   UNL     1      39.815 -32.270   2.643  1.00  0.00     0.012 A 
HETATM   29  C   UNL     1      40.904 -31.674   1.995  1.00  0.00     0.030 A 
ENDBRANCH   1  19
TORSDOF 3
ENDMDL
