MODEL 1
REMARK VINA RESULT:      -8.1      0.000      0.000
REMARK  2 active torsions:
REMARK  status: ('A' for Active; 'I' for Inactive)
REMARK    1  A    between atoms: C_6  and  N_7 
REMARK       I    between atoms: N_7  and  C_8 
REMARK       I    between atoms: C_8  and  N_9 
REMARK    2  A    between atoms: N_9  and  C_10 
ROOT
HETATM    1  N   UNL     1      39.683 -14.497   0.237  1.00  0.00    -0.306 N 
HETATM    2  C   UNL     1      40.405 -15.190   1.157  1.00  0.00     0.321 C 
HETATM    3  N   UNL     1      41.756 -15.248   1.015  1.00  0.00    -0.338 N 
HETATM    4  O   UNL     1      39.835 -15.621   2.158  1.00  0.00    -0.247 OA
HETATM    5  H   UNL     1      38.760 -14.297   0.609  1.00  0.00     0.171 HD
HETATM    6  H   UNL     1      42.095 -15.256   0.064  1.00  0.00     0.164 HD
ENDROOT
BRANCH   3   7
HETATM    7  C   UNL     1      42.642 -15.834   2.012  1.00  0.00     0.092 C 
HETATM    8  C   UNL     1      42.539 -15.097   3.379  1.00  0.00     0.084 C 
HETATM    9  C   UNL     1      43.255 -15.872   4.407  1.00  0.00     0.034 A 
HETATM   10  C   UNL     1      43.673 -17.178   4.282  1.00  0.00     0.033 A 
HETATM   11  N   UNL     1      43.615 -15.472   5.677  1.00  0.00    -0.354 N 
HETATM   12  N   UNL     1      44.276 -17.505   5.478  1.00  0.00    -0.354 N 
HETATM   13  C   UNL     1      43.517 -18.017   3.078  1.00  0.00     0.061 C 
HETATM   14  H   UNL     1      44.690 -18.407   5.701  1.00  0.00     0.166 HD
HETATM   15  C   UNL     1      44.228 -16.469   6.323  1.00  0.00     0.180 A 
HETATM   16  C   UNL     1      42.475 -17.377   2.137  1.00  0.00     0.031 C 
HETATM   17  H   UNL     1      43.426 -14.556   6.079  1.00  0.00     0.166 HD
ENDBRANCH   3   7
BRANCH   1  18
HETATM   18  C   UNL     1      40.062 -13.767  -0.913  1.00  0.00     0.077 A 
HETATM   19  C   UNL     1      39.828 -14.083  -2.253  1.00  0.00     0.152 A 
HETATM   20  N   UNL     1      40.282 -13.362  -3.305  1.00  0.00    -0.247 NA
HETATM   21 CL   UNL     1      38.771 -15.344  -2.773  1.00  0.00    -0.060 Cl
HETATM   22  C   UNL     1      40.970 -12.238  -3.024  1.00  0.00     0.118 A 
HETATM   23  C   UNL     1      41.205 -11.793  -1.736  1.00  0.00     0.022 A 
HETATM   24  C   UNL     1      40.735 -12.561  -0.673  1.00  0.00     0.034 A 
ENDBRANCH   1  18
TORSDOF 2
ENDMDL
MODEL 2
REMARK VINA RESULT:      -8.0      1.017      1.770
REMARK  2 active torsions:
REMARK  status: ('A' for Active; 'I' for Inactive)
REMARK    1  A    between atoms: C_6  and  N_7 
REMARK       I    between atoms: N_7  and  C_8 
REMARK       I    between atoms: C_8  and  N_9 
REMARK    2  A    between atoms: N_9  and  C_10 
ROOT
HETATM    1  N   UNL     1      39.460 -13.492   0.524  1.00  0.00    -0.306 N 
HETATM    2  C   UNL     1      39.897 -14.255   1.562  1.00  0.00     0.321 C 
HETATM    3  N   UNL     1      41.088 -14.898   1.440  1.00  0.00    -0.338 N 
HETATM    4  O   UNL     1      39.276 -14.227   2.623  1.00  0.00    -0.247 OA
HETATM    5  H   UNL     1      38.733 -12.863   0.848  1.00  0.00     0.171 HD
HETATM    6  H   UNL     1      41.322 -15.212   0.509  1.00  0.00     0.164 HD
ENDROOT
BRANCH   3   7
HETATM    7  C   UNL     1      41.724 -15.621   2.534  1.00  0.00     0.092 C 
HETATM    8  C   UNL     1      42.418 -16.923   2.040  1.00  0.00     0.084 C 
HETATM    9  C   UNL     1      43.247 -17.477   3.124  1.00  0.00     0.034 A 
HETATM   10  C   UNL     1      43.617 -16.811   4.271  1.00  0.00     0.033 A 
HETATM   11  N   UNL     1      43.829 -18.725   3.197  1.00  0.00    -0.354 N 
HETATM   12  N   UNL     1      44.398 -17.691   4.990  1.00  0.00    -0.354 N 
HETATM   13  C   UNL     1      43.212 -15.441   4.638  1.00  0.00     0.061 C 
HETATM   14  H   UNL     1      44.829 -17.495   5.891  1.00  0.00     0.166 HD
HETATM   15  C   UNL     1      44.531 -18.846   4.328  1.00  0.00     0.180 A 
HETATM   16  C   UNL     1      42.660 -14.718   3.390  1.00  0.00     0.031 C 
HETATM   17  H   UNL     1      43.756 -19.449   2.484  1.00  0.00     0.166 HD
ENDBRANCH   3   7
BRANCH   1  18
HETATM   18  C   UNL     1      40.021 -13.200  -0.740  1.00  0.00     0.077 A 
HETATM   19  C   UNL     1      39.929 -13.943  -1.919  1.00  0.00     0.152 A 
HETATM   20  N   UNL     1      40.552 -13.627  -3.079  1.00  0.00    -0.247 NA
HETATM   21 CL   UNL     1      38.864 -15.284  -2.130  1.00  0.00    -0.060 Cl
HETATM   22  C   UNL     1      41.271 -12.488  -3.095  1.00  0.00     0.118 A 
HETATM   23  C   UNL     1      41.379 -11.641  -2.008  1.00  0.00     0.022 A 
HETATM   24  C   UNL     1      40.735 -11.997  -0.824  1.00  0.00     0.034 A 
ENDBRANCH   1  18
TORSDOF 2
ENDMDL
MODEL 3
REMARK VINA RESULT:      -7.5      3.295      7.543
REMARK  2 active torsions:
REMARK  status: ('A' for Active; 'I' for Inactive)
REMARK    1  A    between atoms: C_6  and  N_7 
REMARK       I    between atoms: N_7  and  C_8 
REMARK       I    between atoms: C_8  and  N_9 
REMARK    2  A    between atoms: N_9  and  C_10 
ROOT
HETATM    1  N   UNL     1      43.872 -17.059   4.760  1.00  0.00    -0.306 N 
HETATM    2  C   UNL     1      43.286 -15.956   4.223  1.00  0.00     0.321 C 
HETATM    3  N   UNL     1      42.533 -16.100   3.101  1.00  0.00    -0.338 N 
HETATM    4  O   UNL     1      43.337 -14.894   4.842  1.00  0.00    -0.247 OA
HETATM    5  H   UNL     1      44.148 -16.865   5.717  1.00  0.00     0.171 HD
HETATM    6  H   UNL     1      42.839 -16.816   2.458  1.00  0.00     0.164 HD
ENDROOT
BRANCH   3   7
HETATM    7  C   UNL     1      41.741 -15.021   2.522  1.00  0.00     0.092 C 
HETATM    8  C   UNL     1      41.718 -15.092   0.968  1.00  0.00     0.084 C 
HETATM    9  C   UNL     1      40.716 -14.145   0.451  1.00  0.00     0.034 A 
HETATM   10  C   UNL     1      39.733 -13.531   1.194  1.00  0.00     0.033 A 
HETATM   11  N   UNL     1      40.542 -13.717  -0.849  1.00  0.00    -0.354 N 
HETATM   12  N   UNL     1      39.016 -12.751   0.312  1.00  0.00    -0.354 N 
HETATM   13  C   UNL     1      39.540 -13.678   2.649  1.00  0.00     0.061 C 
HETATM   14  H   UNL     1      38.217 -12.169   0.556  1.00  0.00     0.166 HD
HETATM   15  C   UNL     1      39.505 -12.876  -0.927  1.00  0.00     0.180 A 
HETATM   16  C   UNL     1      40.320 -14.912   3.149  1.00  0.00     0.031 C 
HETATM   17  H   UNL     1      41.105 -14.011  -1.644  1.00  0.00     0.166 HD
ENDBRANCH   3   7
BRANCH   1  18
HETATM   18  C   UNL     1      43.860 -18.420   4.379  1.00  0.00     0.077 A 
HETATM   19  C   UNL     1      43.785 -19.547   5.201  1.00  0.00     0.152 A 
HETATM   20  N   UNL     1      43.844 -20.826   4.761  1.00  0.00    -0.247 NA
HETATM   21 CL   UNL     1      43.425 -19.485   6.887  1.00  0.00    -0.060 Cl
HETATM   22  C   UNL     1      43.938 -21.010   3.429  1.00  0.00     0.118 A 
HETATM   23  C   UNL     1      43.953 -19.971   2.517  1.00  0.00     0.022 A 
HETATM   24  C   UNL     1      43.901 -18.665   3.000  1.00  0.00     0.034 A 
ENDBRANCH   1  18
TORSDOF 2
ENDMDL
MODEL 4
REMARK VINA RESULT:      -7.5      4.811      6.600
REMARK  2 active torsions:
REMARK  status: ('A' for Active; 'I' for Inactive)
REMARK    1  A    between atoms: C_6  and  N_7 
REMARK       I    between atoms: N_7  and  C_8 
REMARK       I    between atoms: C_8  and  N_9 
REMARK    2  A    between atoms: N_9  and  C_10 
ROOT
HETATM    1  N   UNL     1      42.897 -12.926   2.683  1.00  0.00    -0.306 N 
HETATM    2  C   UNL     1      43.277 -12.006   3.610  1.00  0.00     0.321 C 
HETATM    3  N   UNL     1      43.472 -12.415   4.891  1.00  0.00    -0.338 N 
HETATM    4  O   UNL     1      43.567 -10.871   3.236  1.00  0.00    -0.247 OA
HETATM    5  H   UNL     1      43.065 -12.560   1.752  1.00  0.00     0.171 HD
HETATM    6  H   UNL     1      42.873 -13.165   5.207  1.00  0.00     0.164 HD
ENDROOT
BRANCH   3   7
HETATM    7  C   UNL     1      44.019 -11.555   5.933  1.00  0.00     0.092 C 
HETATM    8  C   UNL     1      43.176 -11.623   7.239  1.00  0.00     0.084 C 
HETATM    9  C   UNL     1      43.901 -10.941   8.324  1.00  0.00     0.034 A 
HETATM   10  C   UNL     1      45.230 -10.582   8.300  1.00  0.00     0.033 A 
HETATM   11  N   UNL     1      43.420 -10.562   9.560  1.00  0.00    -0.354 N 
HETATM   12  N   UNL     1      45.490  -9.994   9.520  1.00  0.00    -0.354 N 
HETATM   13  C   UNL     1      46.151 -10.777   7.165  1.00  0.00     0.061 C 
HETATM   14  H   UNL     1      46.391  -9.620   9.813  1.00  0.00     0.166 HD
HETATM   15  C   UNL     1      44.391  -9.994  10.283  1.00  0.00     0.180 A 
HETATM   16  C   UNL     1      45.539 -11.791   6.175  1.00  0.00     0.031 C 
HETATM   17  H   UNL     1      42.468 -10.710   9.890  1.00  0.00     0.166 HD
ENDBRANCH   3   7
BRANCH   1  18
HETATM   18  C   UNL     1      42.650 -14.315   2.771  1.00  0.00     0.077 A 
HETATM   19  C   UNL     1      41.722 -14.978   3.578  1.00  0.00     0.152 A 
HETATM   20  N   UNL     1      41.589 -16.323   3.653  1.00  0.00    -0.247 NA
HETATM   21 CL   UNL     1      40.479 -14.180   4.469  1.00  0.00    -0.060 Cl
HETATM   22  C   UNL     1      42.386 -17.061   2.855  1.00  0.00     0.118 A 
HETATM   23  C   UNL     1      43.294 -16.511   1.969  1.00  0.00     0.022 A 
HETATM   24  C   UNL     1      43.416 -15.124   1.921  1.00  0.00     0.034 A 
ENDBRANCH   1  18
TORSDOF 2
ENDMDL
MODEL 5
REMARK VINA RESULT:      -7.4      5.331      7.161
REMARK  2 active torsions:
REMARK  status: ('A' for Active; 'I' for Inactive)
REMARK    1  A    between atoms: C_6  and  N_7 
REMARK       I    between atoms: N_7  and  C_8 
REMARK       I    between atoms: C_8  and  N_9 
REMARK    2  A    between atoms: N_9  and  C_10 
ROOT
HETATM    1  N   UNL     1      44.596 -17.896   5.152  1.00  0.00    -0.306 N 
HETATM    2  C   UNL     1      44.148 -16.682   5.570  1.00  0.00     0.321 C 
HETATM    3  N   UNL     1      43.062 -16.142   4.958  1.00  0.00    -0.338 N 
HETATM    4  O   UNL     1      44.648 -16.179   6.575  1.00  0.00    -0.247 OA
HETATM    5  H   UNL     1      45.204 -18.296   5.858  1.00  0.00     0.171 HD
HETATM    6  H   UNL     1      42.965 -16.353   3.975  1.00  0.00     0.164 HD
ENDROOT
BRANCH   3   7
HETATM    7  C   UNL     1      42.407 -14.923   5.415  1.00  0.00     0.092 C 
HETATM    8  C   UNL     1      42.788 -13.698   4.534  1.00  0.00     0.084 C 
HETATM    9  C   UNL     1      41.918 -12.560   4.878  1.00  0.00     0.034 A 
HETATM   10  C   UNL     1      40.756 -12.631   5.613  1.00  0.00     0.033 A 
HETATM   11  N   UNL     1      42.068 -11.236   4.521  1.00  0.00    -0.354 N 
HETATM   12  N   UNL     1      40.261 -11.346   5.674  1.00  0.00    -0.354 N 
HETATM   13  C   UNL     1      40.200 -13.854   6.223  1.00  0.00     0.061 C 
HETATM   14  H   UNL     1      39.406 -11.066   6.150  1.00  0.00     0.166 HD
HETATM   15  C   UNL     1      41.056 -10.506   5.001  1.00  0.00     0.180 A 
HETATM   16  C   UNL     1      40.870 -15.093   5.592  1.00  0.00     0.031 C 
HETATM   17  H   UNL     1      42.828 -10.864   3.953  1.00  0.00     0.166 HD
ENDBRANCH   3   7
BRANCH   1  18
HETATM   18  C   UNL     1      44.138 -18.781   4.149  1.00  0.00     0.077 A 
HETATM   19  C   UNL     1      44.057 -20.175   4.199  1.00  0.00     0.152 A 
HETATM   20  N   UNL     1      43.666 -20.960   3.168  1.00  0.00    -0.247 NA
HETATM   21 CL   UNL     1      44.274 -21.100   5.638  1.00  0.00    -0.060 Cl
HETATM   22  C   UNL     1      43.288 -20.337   2.034  1.00  0.00     0.118 A 
HETATM   23  C   UNL     1      43.264 -18.962   1.894  1.00  0.00     0.022 A 
HETATM   24  C   UNL     1      43.682 -18.179   2.969  1.00  0.00     0.034 A 
ENDBRANCH   1  18
TORSDOF 2
ENDMDL
MODEL 6
REMARK VINA RESULT:      -7.2     11.339     13.652
REMARK  2 active torsions:
REMARK  status: ('A' for Active; 'I' for Inactive)
REMARK    1  A    between atoms: C_6  and  N_7 
REMARK       I    between atoms: N_7  and  C_8 
REMARK       I    between atoms: C_8  and  N_9 
REMARK    2  A    between atoms: N_9  and  C_10 
ROOT
HETATM    1  N   UNL     1      42.280  -9.777   9.976  1.00  0.00    -0.306 N 
HETATM    2  C   UNL     1      41.663  -9.365  11.116  1.00  0.00     0.321 C 
HETATM    3  N   UNL     1      42.309  -8.483  11.923  1.00  0.00    -0.338 N 
HETATM    4  O   UNL     1      40.492  -9.690  11.308  1.00  0.00    -0.247 OA
HETATM    5  H   UNL     1      41.597 -10.187   9.348  1.00  0.00     0.171 HD
HETATM    6  H   UNL     1      43.314  -8.572  11.952  1.00  0.00     0.164 HD
ENDROOT
BRANCH   3   7
HETATM    7  C   UNL     1      41.690  -7.862  13.088  1.00  0.00     0.092 C 
HETATM    8  C   UNL     1      42.722  -7.620  14.228  1.00  0.00     0.084 C 
HETATM    9  C   UNL     1      42.110  -6.775  15.268  1.00  0.00     0.034 A 
HETATM   10  C   UNL     1      40.949  -6.048  15.131  1.00  0.00     0.033 A 
HETATM   11  N   UNL     1      42.576  -6.522  16.541  1.00  0.00    -0.354 N 
HETATM   12  N   UNL     1      40.760  -5.396  16.332  1.00  0.00    -0.354 N 
HETATM   13  C   UNL     1      40.088  -6.022  13.933  1.00  0.00     0.061 C 
HETATM   14  H   UNL     1      39.984  -4.774  16.549  1.00  0.00     0.166 HD
HETATM   15  C   UNL     1      41.756  -5.680  17.178  1.00  0.00     0.180 A 
HETATM   16  C   UNL     1      40.868  -6.590  12.728  1.00  0.00     0.031 C 
HETATM   17  H   UNL     1      43.433  -6.903  16.938  1.00  0.00     0.166 HD
ENDBRANCH   3   7
BRANCH   1  18
HETATM   18  C   UNL     1      43.534  -9.457   9.408  1.00  0.00     0.077 A 
HETATM   19  C   UNL     1      43.982  -8.218   8.942  1.00  0.00     0.152 A 
HETATM   20  N   UNL     1      45.180  -8.005   8.350  1.00  0.00    -0.247 NA
HETATM   21 CL   UNL     1      43.148  -6.732   9.211  1.00  0.00    -0.060 Cl
HETATM   22  C   UNL     1      46.008  -9.063   8.249  1.00  0.00     0.118 A 
HETATM   23  C   UNL     1      45.698 -10.321   8.734  1.00  0.00     0.022 A 
HETATM   24  C   UNL     1      44.453 -10.512   9.330  1.00  0.00     0.034 A 
ENDBRANCH   1  18
TORSDOF 2
ENDMDL
MODEL 7
REMARK VINA RESULT:      -7.2      2.994      7.563
REMARK  2 active torsions:
REMARK  status: ('A' for Active; 'I' for Inactive)
REMARK    1  A    between atoms: C_6  and  N_7 
REMARK       I    between atoms: N_7  and  C_8 
REMARK       I    between atoms: C_8  and  N_9 
REMARK    2  A    between atoms: N_9  and  C_10 
ROOT
HETATM    1  N   UNL     1      41.897 -13.042   3.533  1.00  0.00    -0.306 N 
HETATM    2  C   UNL     1      41.582 -12.822   2.229  1.00  0.00     0.321 C 
HETATM    3  N   UNL     1      40.760 -13.703   1.600  1.00  0.00    -0.338 N 
HETATM    4  O   UNL     1      41.932 -11.767   1.703  1.00  0.00    -0.247 OA
HETATM    5  H   UNL     1      42.263 -12.190   3.943  1.00  0.00     0.171 HD
HETATM    6  H   UNL     1      40.841 -14.665   1.897  1.00  0.00     0.164 HD
ENDROOT
BRANCH   3   7
HETATM    7  C   UNL     1      40.237 -13.493   0.256  1.00  0.00     0.092 C 
HETATM    8  C   UNL     1      39.825 -14.834  -0.419  1.00  0.00     0.084 C 
HETATM    9  C   UNL     1      39.082 -14.548  -1.658  1.00  0.00     0.034 A 
HETATM   10  C   UNL     1      38.551 -13.328  -2.013  1.00  0.00     0.033 A 
HETATM   11  N   UNL     1      38.749 -15.423  -2.671  1.00  0.00    -0.354 N 
HETATM   12  N   UNL     1      37.930 -13.519  -3.229  1.00  0.00    -0.354 N 
HETATM   13  C   UNL     1      38.672 -12.081  -1.235  1.00  0.00     0.061 C 
HETATM   14  H   UNL     1      37.439 -12.801  -3.758  1.00  0.00     0.166 HD
HETATM   15  C   UNL     1      38.045 -14.794  -3.617  1.00  0.00     0.180 A 
HETATM   16  C   UNL     1      39.116 -12.414   0.205  1.00  0.00     0.031 C 
HETATM   17  H   UNL     1      38.984 -16.414  -2.691  1.00  0.00     0.166 HD
ENDBRANCH   3   7
BRANCH   1  18
HETATM   18  C   UNL     1      41.522 -14.059   4.441  1.00  0.00     0.077 A 
HETATM   19  C   UNL     1      41.926 -15.397   4.456  1.00  0.00     0.152 A 
HETATM   20  N   UNL     1      41.469 -16.329   5.324  1.00  0.00    -0.247 NA
HETATM   21 CL   UNL     1      43.202 -16.026   3.481  1.00  0.00    -0.060 Cl
HETATM   22  C   UNL     1      40.597 -15.913   6.264  1.00  0.00     0.118 A 
HETATM   23  C   UNL     1      40.178 -14.602   6.386  1.00  0.00     0.022 A 
HETATM   24  C   UNL     1      40.657 -13.666   5.471  1.00  0.00     0.034 A 
ENDBRANCH   1  18
TORSDOF 2
ENDMDL
MODEL 8
REMARK VINA RESULT:      -7.1      1.984      2.644
REMARK  2 active torsions:
REMARK  status: ('A' for Active; 'I' for Inactive)
REMARK    1  A    between atoms: C_6  and  N_7 
REMARK       I    between atoms: N_7  and  C_8 
REMARK       I    between atoms: C_8  and  N_9 
REMARK    2  A    between atoms: N_9  and  C_10 
ROOT
HETATM    1  N   UNL     1      39.770 -14.107   0.176  1.00  0.00    -0.306 N 
HETATM    2  C   UNL     1      40.232 -15.034   1.056  1.00  0.00     0.321 C 
HETATM    3  N   UNL     1      41.429 -14.818   1.662  1.00  0.00    -0.338 N 
HETATM    4  O   UNL     1      39.494 -15.963   1.382  1.00  0.00    -0.247 OA
HETATM    5  H   UNL     1      38.776 -14.244   0.027  1.00  0.00     0.171 HD
HETATM    6  H   UNL     1      42.117 -14.328   1.108  1.00  0.00     0.164 HD
ENDROOT
BRANCH   3   7
HETATM    7  C   UNL     1      41.953 -15.663   2.727  1.00  0.00     0.092 C 
HETATM    8  C   UNL     1      42.647 -16.937   2.163  1.00  0.00     0.084 C 
HETATM    9  C   UNL     1      43.368 -17.622   3.249  1.00  0.00     0.034 A 
HETATM   10  C   UNL     1      43.664 -17.083   4.481  1.00  0.00     0.033 A 
HETATM   11  N   UNL     1      43.906 -18.892   3.244  1.00  0.00    -0.354 N 
HETATM   12  N   UNL     1      44.359 -18.055   5.169  1.00  0.00    -0.354 N 
HETATM   13  C   UNL     1      43.270 -15.740   4.947  1.00  0.00     0.061 C 
HETATM   14  H   UNL     1      44.720 -17.962   6.116  1.00  0.00     0.166 HD
HETATM   15  C   UNL     1      44.511 -19.146   4.409  1.00  0.00     0.180 A 
HETATM   16  C   UNL     1      42.843 -14.881   3.737  1.00  0.00     0.031 C 
HETATM   17  H   UNL     1      43.870 -19.542   2.461  1.00  0.00     0.166 HD
ENDBRANCH   3   7
BRANCH   1  18
HETATM   18  C   UNL     1      40.303 -12.876  -0.271  1.00  0.00     0.077 A 
HETATM   19  C   UNL     1      40.440 -11.683   0.443  1.00  0.00     0.152 A 
HETATM   20  N   UNL     1      40.903 -10.522  -0.078  1.00  0.00    -0.247 NA
HETATM   21 CL   UNL     1      40.208 -11.551   2.147  1.00  0.00    -0.060 Cl
HETATM   22  C   UNL     1      41.298 -10.546  -1.366  1.00  0.00     0.118 A 
HETATM   23  C   UNL     1      41.269 -11.684  -2.150  1.00  0.00     0.022 A 
HETATM   24  C   UNL     1      40.778 -12.862  -1.589  1.00  0.00     0.034 A 
ENDBRANCH   1  18
TORSDOF 2
ENDMDL
MODEL 9
REMARK VINA RESULT:      -7.1      6.177      9.279
REMARK  2 active torsions:
REMARK  status: ('A' for Active; 'I' for Inactive)
REMARK    1  A    between atoms: C_6  and  N_7 
REMARK       I    between atoms: N_7  and  C_8 
REMARK       I    between atoms: C_8  and  N_9 
REMARK    2  A    between atoms: N_9  and  C_10 
ROOT
HETATM    1  N   UNL     1      44.710 -10.364   8.871  1.00  0.00    -0.306 N 
HETATM    2  C   UNL     1      44.820 -11.240   7.836  1.00  0.00     0.321 C 
HETATM    3  N   UNL     1      43.790 -12.092   7.593  1.00  0.00    -0.338 N 
HETATM    4  O   UNL     1      45.778 -11.138   7.071  1.00  0.00    -0.247 OA
HETATM    5  H   UNL     1      45.393  -9.622   8.762  1.00  0.00     0.171 HD
HETATM    6  H   UNL     1      43.279 -12.405   8.406  1.00  0.00     0.164 HD
ENDROOT
BRANCH   3   7
HETATM    7  C   UNL     1      43.732 -12.968   6.430  1.00  0.00     0.092 C 
HETATM    8  C   UNL     1      43.498 -14.452   6.836  1.00  0.00     0.084 C 
HETATM    9  C   UNL     1      43.201 -15.247   5.632  1.00  0.00     0.034 A 
HETATM   10  C   UNL     1      42.865 -14.739   4.397  1.00  0.00     0.033 A 
HETATM   11  N   UNL     1      43.170 -16.620   5.506  1.00  0.00    -0.354 N 
HETATM   12  N   UNL     1      42.655 -15.828   3.578  1.00  0.00    -0.354 N 
HETATM   13  C   UNL     1      42.786 -13.307   4.051  1.00  0.00     0.061 C 
HETATM   14  H   UNL     1      42.390 -15.784   2.596  1.00  0.00     0.166 HD
HETATM   15  C   UNL     1      42.832 -16.966   4.259  1.00  0.00     0.180 A 
HETATM   16  C   UNL     1      42.734 -12.468   5.345  1.00  0.00     0.031 C 
HETATM   17  H   UNL     1      43.356 -17.282   6.257  1.00  0.00     0.166 HD
ENDBRANCH   3   7
BRANCH   1  18
HETATM   18  C   UNL     1      43.679 -10.130   9.810  1.00  0.00     0.077 A 
HETATM   19  C   UNL     1      42.443  -9.514   9.600  1.00  0.00     0.152 A 
HETATM   20  N   UNL     1      41.531  -9.268  10.570  1.00  0.00    -0.247 NA
HETATM   21 CL   UNL     1      41.811  -9.131   8.041  1.00  0.00    -0.060 Cl
HETATM   22  C   UNL     1      41.832  -9.693  11.813  1.00  0.00     0.118 A 
HETATM   23  C   UNL     1      42.995 -10.372  12.124  1.00  0.00     0.022 A 
HETATM   24  C   UNL     1      43.920 -10.602  11.107  1.00  0.00     0.034 A 
ENDBRANCH   1  18
TORSDOF 2
ENDMDL
MODEL 10
REMARK VINA RESULT:      -7.0      2.200      7.310
REMARK  2 active torsions:
REMARK  status: ('A' for Active; 'I' for Inactive)
REMARK    1  A    between atoms: C_6  and  N_7 
REMARK       I    between atoms: N_7  and  C_8 
REMARK       I    between atoms: C_8  and  N_9 
REMARK    2  A    between atoms: N_9  and  C_10 
ROOT
HETATM    1  N   UNL     1      40.893 -16.125   3.983  1.00  0.00    -0.306 N 
HETATM    2  C   UNL     1      40.485 -15.489   2.853  1.00  0.00     0.321 C 
HETATM    3  N   UNL     1      41.427 -14.997   2.006  1.00  0.00    -0.338 N 
HETATM    4  O   UNL     1      39.289 -15.502   2.563  1.00  0.00    -0.247 OA
HETATM    5  H   UNL     1      40.129 -16.675   4.359  1.00  0.00     0.171 HD
HETATM    6  H   UNL     1      42.273 -14.660   2.441  1.00  0.00     0.164 HD
ENDROOT
BRANCH   3   7
HETATM    7  C   UNL     1      41.113 -14.430   0.700  1.00  0.00     0.092 C 
HETATM    8  C   UNL     1      39.924 -15.169   0.021  1.00  0.00     0.084 C 
HETATM    9  C   UNL     1      39.490 -14.409  -1.164  1.00  0.00     0.034 A 
HETATM   10  C   UNL     1      39.841 -13.111  -1.459  1.00  0.00     0.033 A 
HETATM   11  N   UNL     1      38.646 -14.820  -2.175  1.00  0.00    -0.354 N 
HETATM   12  N   UNL     1      39.200 -12.798  -2.639  1.00  0.00    -0.354 N 
HETATM   13  C   UNL     1      40.749 -12.266  -0.661  1.00  0.00     0.061 C 
HETATM   14  H   UNL     1      39.258 -11.904  -3.121  1.00  0.00     0.166 HD
HETATM   15  C   UNL     1      38.470 -13.836  -3.063  1.00  0.00     0.180 A 
HETATM   16  C   UNL     1      40.927 -12.885   0.742  1.00  0.00     0.031 C 
HETATM   17  H   UNL     1      38.200 -15.734  -2.232  1.00  0.00     0.166 HD
ENDBRANCH   3   7
BRANCH   1  18
HETATM   18  C   UNL     1      42.178 -16.410   4.499  1.00  0.00     0.077 A 
HETATM   19  C   UNL     1      43.109 -17.342   4.033  1.00  0.00     0.152 A 
HETATM   20  N   UNL     1      44.300 -17.602   4.624  1.00  0.00    -0.247 NA
HETATM   21 CL   UNL     1      42.963 -18.180   2.533  1.00  0.00    -0.060 Cl
HETATM   22  C   UNL     1      44.615 -16.871   5.711  1.00  0.00     0.118 A 
HETATM   23  C   UNL     1      43.801 -15.877   6.221  1.00  0.00     0.022 A 
HETATM   24  C   UNL     1      42.577 -15.638   5.598  1.00  0.00     0.034 A 
ENDBRANCH   1  18
TORSDOF 2
ENDMDL
