MODEL 1
REMARK VINA RESULT:      -8.1      0.000      0.000
REMARK  6 active torsions:
REMARK  status: ('A' for Active; 'I' for Inactive)
REMARK    1  A    between atoms: C_2  and  O_3 
REMARK    2  A    between atoms: O_3  and  C_4 
REMARK    3  A    between atoms: C_9  and  S_10 
REMARK    4  A    between atoms: S_10  and  C_11 
REMARK    5  A    between atoms: C_11  and  C_12 
REMARK       I    between atoms: C_12  and  N_13 
REMARK    6  A    between atoms: N_13  and  C_14 
ROOT
HETATM    1  C   UNL     1      43.528 -18.057   3.607  1.00  0.00     0.069 A 
HETATM    2  C   UNL     1      43.096 -17.231   4.643  1.00  0.00     0.050 A 
HETATM    3  C   UNL     1      42.174 -16.195   4.391  1.00  0.00    -0.004 A 
HETATM    4  C   UNL     1      41.666 -15.991   3.096  1.00  0.00     0.068 A 
HETATM    5  N   UNL     1      40.801 -15.006   2.809  1.00  0.00    -0.241 NA
HETATM    6  C   UNL     1      40.444 -14.139   3.786  1.00  0.00     0.100 A 
HETATM    7  C   UNL     1      40.866 -14.273   5.108  1.00  0.00    -0.026 A 
HETATM    8  C   UNL     1      40.433 -13.341   6.201  1.00  0.00     0.051 C 
HETATM    9  C   UNL     1      41.740 -15.327   5.401  1.00  0.00     0.023 A 
HETATM   10  C   UNL     1      42.087 -16.842   2.086  1.00  0.00     0.035 A 
HETATM   11  C   UNL     1      43.008 -17.865   2.330  1.00  0.00     0.039 A 
ENDROOT
BRANCH   6  12
HETATM   12  S   UNL     1      39.439 -12.772   3.242  1.00  0.00    -0.096 SA
BRANCH  12  13
HETATM   13  C   UNL     1      40.615 -11.828   2.196  1.00  0.00     0.142 C 
HETATM   14  C   UNL     1      42.059 -11.870   2.679  1.00  0.00     0.031 C 
BRANCH  13  15
HETATM   15  C   UNL     1      40.411 -12.155   0.712  1.00  0.00     0.236 C 
HETATM   16  N   UNL     1      39.357 -13.010   0.442  1.00  0.00    -0.326 N 
HETATM   17  H   UNL     1      38.763 -13.264   1.226  1.00  0.00     0.169 HD
HETATM   18  O   UNL     1      41.139 -11.633  -0.131  1.00  0.00    -0.272 OA
BRANCH  16  19
HETATM   19  C   UNL     1      38.932 -13.478  -0.819  1.00  0.00     0.034 A 
HETATM   20  C   UNL     1      39.400 -14.649  -1.419  1.00  0.00     0.029 A 
HETATM   21  C   UNL     1      38.925 -15.043  -2.674  1.00  0.00     0.002 A 
HETATM   22  C   UNL     1      37.976 -14.272  -3.339  1.00  0.00     0.000 A 
HETATM   23  C   UNL     1      37.499 -13.104  -2.749  1.00  0.00     0.002 A 
HETATM   24  C   UNL     1      37.975 -12.709  -1.496  1.00  0.00     0.029 A 
ENDBRANCH  16  19
ENDBRANCH  13  15
ENDBRANCH  12  13
ENDBRANCH   6  12
BRANCH   1  25
HETATM   25  O   UNL     1      44.436 -19.072   3.710  1.00  0.00    -0.351 OA
BRANCH  25  26
HETATM   26  C   UNL     1      43.918 -20.397   3.830  1.00  0.00     0.171 C 
HETATM   27  C   UNL     1      43.982 -20.795   5.293  1.00  0.00     0.034 C 
ENDBRANCH  25  26
ENDBRANCH   1  25
TORSDOF 6
ENDMDL
MODEL 2
REMARK VINA RESULT:      -8.0      4.975      8.528
REMARK  6 active torsions:
REMARK  status: ('A' for Active; 'I' for Inactive)
REMARK    1  A    between atoms: C_2  and  O_3 
REMARK    2  A    between atoms: O_3  and  C_4 
REMARK    3  A    between atoms: C_9  and  S_10 
REMARK    4  A    between atoms: S_10  and  C_11 
REMARK    5  A    between atoms: C_11  and  C_12 
REMARK       I    between atoms: C_12  and  N_13 
REMARK    6  A    between atoms: N_13  and  C_14 
ROOT
HETATM    1  C   UNL     1      43.005 -17.257   2.997  1.00  0.00     0.069 A 
HETATM    2  C   UNL     1      42.921 -15.953   2.510  1.00  0.00     0.050 A 
HETATM    3  C   UNL     1      42.991 -14.856   3.392  1.00  0.00    -0.004 A 
HETATM    4  C   UNL     1      43.163 -15.060   4.773  1.00  0.00     0.068 A 
HETATM    5  N   UNL     1      43.217 -14.046   5.650  1.00  0.00    -0.241 NA
HETATM    6  C   UNL     1      43.043 -12.780   5.201  1.00  0.00     0.100 A 
HETATM    7  C   UNL     1      42.899 -12.468   3.850  1.00  0.00    -0.026 A 
HETATM    8  C   UNL     1      42.755 -11.062   3.348  1.00  0.00     0.051 C 
HETATM    9  C   UNL     1      42.881 -13.535   2.942  1.00  0.00     0.023 A 
HETATM   10  C   UNL     1      43.272 -16.364   5.233  1.00  0.00     0.035 A 
HETATM   11  C   UNL     1      43.195 -17.454   4.362  1.00  0.00     0.039 A 
ENDROOT
BRANCH   6  12
HETATM   12  S   UNL     1      42.952 -11.541   6.478  1.00  0.00    -0.096 SA
BRANCH  12  13
HETATM   13  C   UNL     1      44.636 -11.617   7.202  1.00  0.00     0.142 C 
HETATM   14  C   UNL     1      45.756 -11.280   6.226  1.00  0.00     0.031 C 
BRANCH  13  15
HETATM   15  C   UNL     1      44.690 -10.874   8.542  1.00  0.00     0.236 C 
HETATM   16  N   UNL     1      43.478 -10.368   8.978  1.00  0.00    -0.326 N 
HETATM   17  H   UNL     1      42.659 -10.612   8.430  1.00  0.00     0.169 HD
HETATM   18  O   UNL     1      45.754 -10.802   9.155  1.00  0.00    -0.272 OA
BRANCH  16  19
HETATM   19  C   UNL     1      43.224  -9.651  10.166  1.00  0.00     0.034 A 
HETATM   20  C   UNL     1      43.112  -8.261  10.234  1.00  0.00     0.029 A 
HETATM   21  C   UNL     1      42.858  -7.627  11.454  1.00  0.00     0.002 A 
HETATM   22  C   UNL     1      42.709  -8.377  12.617  1.00  0.00     0.000 A 
HETATM   23  C   UNL     1      42.815  -9.765  12.561  1.00  0.00     0.002 A 
HETATM   24  C   UNL     1      43.072 -10.398  11.342  1.00  0.00     0.029 A 
ENDBRANCH  16  19
ENDBRANCH  13  15
ENDBRANCH  12  13
ENDBRANCH   6  12
BRANCH   1  25
HETATM   25  O   UNL     1      42.921 -18.401   2.257  1.00  0.00    -0.351 OA
BRANCH  25  26
HETATM   26  C   UNL     1      43.576 -19.559   2.775  1.00  0.00     0.171 C 
HETATM   27  C   UNL     1      43.686 -20.576   1.653  1.00  0.00     0.034 C 
ENDBRANCH  25  26
ENDBRANCH   1  25
TORSDOF 6
ENDMDL
MODEL 3
REMARK VINA RESULT:      -8.0      1.545      2.020
REMARK  6 active torsions:
REMARK  status: ('A' for Active; 'I' for Inactive)
REMARK    1  A    between atoms: C_2  and  O_3 
REMARK    2  A    between atoms: O_3  and  C_4 
REMARK    3  A    between atoms: C_9  and  S_10 
REMARK    4  A    between atoms: S_10  and  C_11 
REMARK    5  A    between atoms: C_11  and  C_12 
REMARK       I    between atoms: C_12  and  N_13 
REMARK    6  A    between atoms: N_13  and  C_14 
ROOT
HETATM    1  C   UNL     1      43.648 -18.216   3.095  1.00  0.00     0.069 A 
HETATM    2  C   UNL     1      44.016 -17.452   4.202  1.00  0.00     0.050 A 
HETATM    3  C   UNL     1      43.335 -16.254   4.500  1.00  0.00    -0.004 A 
HETATM    4  C   UNL     1      42.266 -15.822   3.695  1.00  0.00     0.068 A 
HETATM    5  N   UNL     1      41.603 -14.680   3.932  1.00  0.00    -0.241 NA
HETATM    6  C   UNL     1      42.010 -13.882   4.948  1.00  0.00     0.100 A 
HETATM    7  C   UNL     1      43.037 -14.235   5.823  1.00  0.00    -0.026 A 
HETATM    8  C   UNL     1      43.456 -13.374   6.978  1.00  0.00     0.051 C 
HETATM    9  C   UNL     1      43.696 -15.447   5.585  1.00  0.00     0.023 A 
HETATM   10  C   UNL     1      41.898 -16.610   2.616  1.00  0.00     0.035 A 
HETATM   11  C   UNL     1      42.577 -17.794   2.312  1.00  0.00     0.039 A 
ENDROOT
BRANCH   6  12
HETATM   12  S   UNL     1      41.172 -12.313   5.048  1.00  0.00    -0.096 SA
BRANCH  12  13
HETATM   13  C   UNL     1      41.830 -11.435   3.578  1.00  0.00     0.142 C 
HETATM   14  C   UNL     1      43.327 -11.614   3.358  1.00  0.00     0.031 C 
BRANCH  13  15
HETATM   15  C   UNL     1      40.953 -11.693   2.348  1.00  0.00     0.236 C 
HETATM   16  N   UNL     1      41.473 -12.597   1.438  1.00  0.00    -0.326 N 
HETATM   17  H   UNL     1      42.328 -13.074   1.708  1.00  0.00     0.169 HD
HETATM   18  O   UNL     1      39.859 -11.137   2.253  1.00  0.00    -0.272 OA
BRANCH  16  19
HETATM   19  C   UNL     1      40.891 -13.030   0.229  1.00  0.00     0.034 A 
HETATM   20  C   UNL     1      40.967 -12.325  -0.974  1.00  0.00     0.029 A 
HETATM   21  C   UNL     1      40.361 -12.825  -2.131  1.00  0.00     0.002 A 
HETATM   22  C   UNL     1      39.678 -14.037  -2.097  1.00  0.00     0.000 A 
HETATM   23  C   UNL     1      39.599 -14.752  -0.904  1.00  0.00     0.002 A 
HETATM   24  C   UNL     1      40.202 -14.251   0.252  1.00  0.00     0.029 A 
ENDBRANCH  16  19
ENDBRANCH  13  15
ENDBRANCH  12  13
ENDBRANCH   6  12
BRANCH   1  25
HETATM   25  O   UNL     1      44.243 -19.373   2.681  1.00  0.00    -0.351 OA
BRANCH  25  26
HETATM   26  C   UNL     1      43.575 -20.595   2.997  1.00  0.00     0.171 C 
HETATM   27  C   UNL     1      43.968 -20.991   4.408  1.00  0.00     0.034 C 
ENDBRANCH  25  26
ENDBRANCH   1  25
TORSDOF 6
ENDMDL
MODEL 4
REMARK VINA RESULT:      -7.7      3.273      6.612
REMARK  6 active torsions:
REMARK  status: ('A' for Active; 'I' for Inactive)
REMARK    1  A    between atoms: C_2  and  O_3 
REMARK    2  A    between atoms: O_3  and  C_4 
REMARK    3  A    between atoms: C_9  and  S_10 
REMARK    4  A    between atoms: S_10  and  C_11 
REMARK    5  A    between atoms: C_11  and  C_12 
REMARK       I    between atoms: C_12  and  N_13 
REMARK    6  A    between atoms: N_13  and  C_14 
ROOT
HETATM    1  C   UNL     1      43.942 -11.839   7.324  1.00  0.00     0.069 A 
HETATM    2  C   UNL     1      43.024 -11.072   6.608  1.00  0.00     0.050 A 
HETATM    3  C   UNL     1      42.135 -11.684   5.702  1.00  0.00    -0.004 A 
HETATM    4  C   UNL     1      42.150 -13.078   5.519  1.00  0.00     0.068 A 
HETATM    5  N   UNL     1      41.334 -13.699   4.654  1.00  0.00    -0.241 NA
HETATM    6  C   UNL     1      40.503 -12.956   3.885  1.00  0.00     0.100 A 
HETATM    7  C   UNL     1      40.389 -11.572   4.012  1.00  0.00    -0.026 A 
HETATM    8  C   UNL     1      39.434 -10.754   3.194  1.00  0.00     0.051 C 
HETATM    9  C   UNL     1      41.221 -10.941   4.944  1.00  0.00     0.023 A 
HETATM   10  C   UNL     1      43.051 -13.826   6.262  1.00  0.00     0.035 A 
HETATM   11  C   UNL     1      43.939 -13.221   7.155  1.00  0.00     0.039 A 
ENDROOT
BRANCH   6  12
HETATM   12  S   UNL     1      39.604 -13.876   2.651  1.00  0.00    -0.096 SA
BRANCH  12  13
HETATM   13  C   UNL     1      40.865 -14.075   1.333  1.00  0.00     0.142 C 
HETATM   14  C   UNL     1      41.216 -12.787   0.599  1.00  0.00     0.031 C 
BRANCH  13  15
HETATM   15  C   UNL     1      42.063 -14.887   1.840  1.00  0.00     0.236 C 
HETATM   16  N   UNL     1      41.736 -16.048   2.519  1.00  0.00    -0.326 N 
HETATM   17  H   UNL     1      40.753 -16.304   2.537  1.00  0.00     0.169 HD
HETATM   18  O   UNL     1      43.205 -14.503   1.594  1.00  0.00    -0.272 OA
BRANCH  16  19
HETATM   19  C   UNL     1      42.620 -16.989   3.087  1.00  0.00     0.034 A 
HETATM   20  C   UNL     1      43.227 -16.839   4.336  1.00  0.00     0.029 A 
HETATM   21  C   UNL     1      44.092 -17.821   4.827  1.00  0.00     0.002 A 
HETATM   22  C   UNL     1      44.357 -18.963   4.078  1.00  0.00     0.000 A 
HETATM   23  C   UNL     1      43.755 -19.125   2.832  1.00  0.00     0.002 A 
HETATM   24  C   UNL     1      42.891 -18.143   2.340  1.00  0.00     0.029 A 
ENDBRANCH  16  19
ENDBRANCH  13  15
ENDBRANCH  12  13
ENDBRANCH   6  12
BRANCH   1  25
HETATM   25  O   UNL     1      44.873 -11.369   8.205  1.00  0.00    -0.351 OA
BRANCH  25  26
HETATM   26  C   UNL     1      45.889 -10.515   7.681  1.00  0.00     0.171 C 
HETATM   27  C   UNL     1      45.747  -9.157   8.345  1.00  0.00     0.034 C 
ENDBRANCH  25  26
ENDBRANCH   1  25
TORSDOF 6
ENDMDL
MODEL 5
REMARK VINA RESULT:      -7.6      2.037      7.143
REMARK  6 active torsions:
REMARK  status: ('A' for Active; 'I' for Inactive)
REMARK    1  A    between atoms: C_2  and  O_3 
REMARK    2  A    between atoms: O_3  and  C_4 
REMARK    3  A    between atoms: C_9  and  S_10 
REMARK    4  A    between atoms: S_10  and  C_11 
REMARK    5  A    between atoms: C_11  and  C_12 
REMARK       I    between atoms: C_12  and  N_13 
REMARK    6  A    between atoms: N_13  and  C_14 
ROOT
HETATM    1  C   UNL     1      40.304 -13.938  -0.759  1.00  0.00     0.069 A 
HETATM    2  C   UNL     1      40.034 -14.912   0.200  1.00  0.00     0.050 A 
HETATM    3  C   UNL     1      40.290 -14.661   1.563  1.00  0.00    -0.004 A 
HETATM    4  C   UNL     1      40.805 -13.420   1.976  1.00  0.00     0.068 A 
HETATM    5  N   UNL     1      41.080 -13.145   3.261  1.00  0.00    -0.241 NA
HETATM    6  C   UNL     1      40.910 -14.115   4.191  1.00  0.00     0.100 A 
HETATM    7  C   UNL     1      40.375 -15.367   3.890  1.00  0.00    -0.026 A 
HETATM    8  C   UNL     1      40.143 -16.425   4.928  1.00  0.00     0.051 C 
HETATM    9  C   UNL     1      40.060 -15.627   2.551  1.00  0.00     0.023 A 
HETATM   10  C   UNL     1      41.040 -12.454   1.009  1.00  0.00     0.035 A 
HETATM   11  C   UNL     1      40.795 -12.703  -0.345  1.00  0.00     0.039 A 
ENDROOT
BRANCH   6  12
HETATM   12  S   UNL     1      41.480 -13.691   5.825  1.00  0.00    -0.096 SA
BRANCH  12  13
HETATM   13  C   UNL     1      43.267 -14.093   5.721  1.00  0.00     0.142 C 
HETATM   14  C   UNL     1      44.156 -13.242   6.618  1.00  0.00     0.031 C 
BRANCH  13  15
HETATM   15  C   UNL     1      43.494 -15.606   5.819  1.00  0.00     0.236 C 
HETATM   16  N   UNL     1      43.495 -16.277   4.609  1.00  0.00    -0.326 N 
HETATM   17  H   UNL     1      43.442 -15.705   3.771  1.00  0.00     0.169 HD
HETATM   18  O   UNL     1      43.695 -16.120   6.919  1.00  0.00    -0.272 OA
BRANCH  16  19
HETATM   19  C   UNL     1      43.684 -17.658   4.392  1.00  0.00     0.034 A 
HETATM   20  C   UNL     1      43.856 -18.594   5.413  1.00  0.00     0.029 A 
HETATM   21  C   UNL     1      44.037 -19.948   5.112  1.00  0.00     0.002 A 
HETATM   22  C   UNL     1      44.045 -20.378   3.789  1.00  0.00     0.000 A 
HETATM   23  C   UNL     1      43.870 -19.453   2.762  1.00  0.00     0.002 A 
HETATM   24  C   UNL     1      43.691 -18.100   3.063  1.00  0.00     0.029 A 
ENDBRANCH  16  19
ENDBRANCH  13  15
ENDBRANCH  12  13
ENDBRANCH   6  12
BRANCH   1  25
HETATM   25  O   UNL     1      40.131 -14.064  -2.108  1.00  0.00    -0.351 OA
BRANCH  25  26
HETATM   26  C   UNL     1      38.914 -14.662  -2.553  1.00  0.00     0.171 C 
HETATM   27  C   UNL     1      37.842 -13.588  -2.567  1.00  0.00     0.034 C 
ENDBRANCH  25  26
ENDBRANCH   1  25
TORSDOF 6
ENDMDL
MODEL 6
REMARK VINA RESULT:      -7.5      3.496      5.485
REMARK  6 active torsions:
REMARK  status: ('A' for Active; 'I' for Inactive)
REMARK    1  A    between atoms: C_2  and  O_3 
REMARK    2  A    between atoms: O_3  and  C_4 
REMARK    3  A    between atoms: C_9  and  S_10 
REMARK    4  A    between atoms: S_10  and  C_11 
REMARK    5  A    between atoms: C_11  and  C_12 
REMARK       I    between atoms: C_12  and  N_13 
REMARK    6  A    between atoms: N_13  and  C_14 
ROOT
HETATM    1  C   UNL     1      43.537 -10.835   7.473  1.00  0.00     0.069 A 
HETATM    2  C   UNL     1      44.019 -12.142   7.417  1.00  0.00     0.050 A 
HETATM    3  C   UNL     1      43.484 -13.061   6.493  1.00  0.00    -0.004 A 
HETATM    4  C   UNL     1      42.468 -12.668   5.602  1.00  0.00     0.068 A 
HETATM    5  N   UNL     1      41.918 -13.515   4.719  1.00  0.00    -0.241 NA
HETATM    6  C   UNL     1      42.312 -14.811   4.718  1.00  0.00     0.100 A 
HETATM    7  C   UNL     1      43.332 -15.293   5.537  1.00  0.00    -0.026 A 
HETATM    8  C   UNL     1      43.801 -16.718   5.503  1.00  0.00     0.051 C 
HETATM    9  C   UNL     1      43.922 -14.389   6.429  1.00  0.00     0.023 A 
HETATM   10  C   UNL     1      42.023 -11.356   5.655  1.00  0.00     0.035 A 
HETATM   11  C   UNL     1      42.546 -10.444   6.576  1.00  0.00     0.039 A 
ENDROOT
BRANCH   6  12
HETATM   12  S   UNL     1      41.383 -15.874   3.630  1.00  0.00    -0.096 SA
BRANCH  12  13
HETATM   13  C   UNL     1      41.915 -15.283   1.977  1.00  0.00     0.142 C 
HETATM   14  C   UNL     1      43.112 -16.028   1.399  1.00  0.00     0.031 C 
BRANCH  13  15
HETATM   15  C   UNL     1      40.715 -15.142   1.034  1.00  0.00     0.236 C 
HETATM   16  N   UNL     1      40.833 -14.143   0.083  1.00  0.00    -0.326 N 
HETATM   17  H   UNL     1      41.729 -13.666   0.033  1.00  0.00     0.169 HD
HETATM   18  O   UNL     1      39.764 -15.915   1.139  1.00  0.00    -0.272 OA
BRANCH  16  19
HETATM   19  C   UNL     1      39.899 -13.789  -0.913  1.00  0.00     0.034 A 
HETATM   20  C   UNL     1      39.896 -14.315  -2.206  1.00  0.00     0.029 A 
HETATM   21  C   UNL     1      38.932 -13.910  -3.135  1.00  0.00     0.002 A 
HETATM   22  C   UNL     1      37.960 -12.981  -2.779  1.00  0.00     0.000 A 
HETATM   23  C   UNL     1      37.950 -12.453  -1.490  1.00  0.00     0.002 A 
HETATM   24  C   UNL     1      38.915 -12.855  -0.562  1.00  0.00     0.029 A 
ENDBRANCH  16  19
ENDBRANCH  13  15
ENDBRANCH  12  13
ENDBRANCH   6  12
BRANCH   1  25
HETATM   25  O   UNL     1      43.946  -9.860   8.337  1.00  0.00    -0.351 OA
BRANCH  25  26
HETATM   26  C   UNL     1      45.235 -10.019   8.931  1.00  0.00     0.171 C 
HETATM   27  C   UNL     1      46.221  -9.179   8.140  1.00  0.00     0.034 C 
ENDBRANCH  25  26
ENDBRANCH   1  25
TORSDOF 6
ENDMDL
MODEL 7
REMARK VINA RESULT:      -7.5      3.198      6.335
REMARK  6 active torsions:
REMARK  status: ('A' for Active; 'I' for Inactive)
REMARK    1  A    between atoms: C_2  and  O_3 
REMARK    2  A    between atoms: O_3  and  C_4 
REMARK    3  A    between atoms: C_9  and  S_10 
REMARK    4  A    between atoms: S_10  and  C_11 
REMARK    5  A    between atoms: C_11  and  C_12 
REMARK       I    between atoms: C_12  and  N_13 
REMARK    6  A    between atoms: N_13  and  C_14 
ROOT
HETATM    1  C   UNL     1      43.620 -17.944   3.178  1.00  0.00     0.069 A 
HETATM    2  C   UNL     1      42.640 -17.208   2.513  1.00  0.00     0.050 A 
HETATM    3  C   UNL     1      42.007 -16.123   3.152  1.00  0.00    -0.004 A 
HETATM    4  C   UNL     1      42.365 -15.758   4.461  1.00  0.00     0.068 A 
HETATM    5  N   UNL     1      41.775 -14.743   5.113  1.00  0.00    -0.241 NA
HETATM    6  C   UNL     1      40.758 -14.081   4.514  1.00  0.00     0.100 A 
HETATM    7  C   UNL     1      40.348 -14.344   3.207  1.00  0.00    -0.026 A 
HETATM    8  C   UNL     1      39.253 -13.578   2.526  1.00  0.00     0.051 C 
HETATM    9  C   UNL     1      40.997 -15.381   2.526  1.00  0.00     0.023 A 
HETATM   10  C   UNL     1      43.362 -16.484   5.095  1.00  0.00     0.035 A 
HETATM   11  C   UNL     1      43.987 -17.566   4.467  1.00  0.00     0.039 A 
ENDROOT
BRANCH   6  12
HETATM   12  S   UNL     1      39.937 -12.882   5.545  1.00  0.00    -0.096 SA
BRANCH  12  13
HETATM   13  C   UNL     1      40.315 -11.311   4.675  1.00  0.00     0.142 C 
HETATM   14  C   UNL     1      39.238 -10.241   4.814  1.00  0.00     0.031 C 
BRANCH  13  15
HETATM   15  C   UNL     1      41.743 -10.846   4.980  1.00  0.00     0.236 C 
HETATM   16  N   UNL     1      42.232 -11.232   6.216  1.00  0.00    -0.326 N 
HETATM   17  H   UNL     1      41.647 -11.859   6.762  1.00  0.00     0.169 HD
HETATM   18  O   UNL     1      42.371 -10.214   4.132  1.00  0.00    -0.272 OA
BRANCH  16  19
HETATM   19  C   UNL     1      43.503 -10.957   6.762  1.00  0.00     0.034 A 
HETATM   20  C   UNL     1      43.723 -10.106   7.847  1.00  0.00     0.029 A 
HETATM   21  C   UNL     1      45.018  -9.888   8.327  1.00  0.00     0.002 A 
HETATM   22  C   UNL     1      46.104 -10.522   7.731  1.00  0.00     0.000 A 
HETATM   23  C   UNL     1      45.897 -11.376   6.651  1.00  0.00     0.002 A 
HETATM   24  C   UNL     1      44.603 -11.592   6.169  1.00  0.00     0.029 A 
ENDBRANCH  16  19
ENDBRANCH  13  15
ENDBRANCH  12  13
ENDBRANCH   6  12
BRANCH   1  25
HETATM   25  O   UNL     1      44.286 -19.030   2.686  1.00  0.00    -0.351 OA
BRANCH  25  26
HETATM   26  C   UNL     1      43.554 -20.252   2.594  1.00  0.00     0.171 C 
HETATM   27  C   UNL     1      43.853 -21.071   3.837  1.00  0.00     0.034 C 
ENDBRANCH  25  26
ENDBRANCH   1  25
TORSDOF 6
ENDMDL
MODEL 8
REMARK VINA RESULT:      -7.4      3.809      7.166
REMARK  6 active torsions:
REMARK  status: ('A' for Active; 'I' for Inactive)
REMARK    1  A    between atoms: C_2  and  O_3 
REMARK    2  A    between atoms: O_3  and  C_4 
REMARK    3  A    between atoms: C_9  and  S_10 
REMARK    4  A    between atoms: S_10  and  C_11 
REMARK    5  A    between atoms: C_11  and  C_12 
REMARK       I    between atoms: C_12  and  N_13 
REMARK    6  A    between atoms: N_13  and  C_14 
ROOT
HETATM    1  C   UNL     1      44.283 -10.296   7.867  1.00  0.00     0.069 A 
HETATM    2  C   UNL     1      43.056  -9.851   7.377  1.00  0.00     0.050 A 
HETATM    3  C   UNL     1      42.281 -10.677   6.539  1.00  0.00    -0.004 A 
HETATM    4  C   UNL     1      42.725 -11.966   6.197  1.00  0.00     0.068 A 
HETATM    5  N   UNL     1      42.028 -12.778   5.387  1.00  0.00    -0.241 NA
HETATM    6  C   UNL     1      40.881 -12.322   4.831  1.00  0.00     0.100 A 
HETATM    7  C   UNL     1      40.337 -11.074   5.129  1.00  0.00    -0.026 A 
HETATM    8  C   UNL     1      39.041 -10.588   4.550  1.00  0.00     0.051 C 
HETATM    9  C   UNL     1      41.058 -10.251   6.004  1.00  0.00     0.023 A 
HETATM   10  C   UNL     1      43.935 -12.400   6.717  1.00  0.00     0.035 A 
HETATM   11  C   UNL     1      44.710 -11.581   7.543  1.00  0.00     0.039 A 
ENDROOT
BRANCH   6  12
HETATM   12  S   UNL     1      40.144 -13.419   3.635  1.00  0.00    -0.096 SA
BRANCH  12  13
HETATM   13  C   UNL     1      41.349 -13.342   2.254  1.00  0.00     0.142 C 
HETATM   14  C   UNL     1      41.873 -11.943   1.956  1.00  0.00     0.031 C 
BRANCH  13  15
HETATM   15  C   UNL     1      42.423 -14.426   2.404  1.00  0.00     0.236 C 
HETATM   16  N   UNL     1      41.998 -15.587   3.025  1.00  0.00    -0.326 N 
HETATM   17  H   UNL     1      41.007 -15.655   3.236  1.00  0.00     0.169 HD
HETATM   18  O   UNL     1      43.549 -14.233   1.949  1.00  0.00    -0.272 OA
BRANCH  16  19
HETATM   19  C   UNL     1      42.757 -16.746   3.291  1.00  0.00     0.034 A 
HETATM   20  C   UNL     1      42.834 -17.846   2.435  1.00  0.00     0.029 A 
HETATM   21  C   UNL     1      43.611 -18.958   2.774  1.00  0.00     0.002 A 
HETATM   22  C   UNL     1      44.322 -18.978   3.970  1.00  0.00     0.000 A 
HETATM   23  C   UNL     1      44.256 -17.886   4.831  1.00  0.00     0.002 A 
HETATM   24  C   UNL     1      43.477 -16.775   4.493  1.00  0.00     0.029 A 
ENDBRANCH  16  19
ENDBRANCH  13  15
ENDBRANCH  12  13
ENDBRANCH   6  12
BRANCH   1  25
HETATM   25  O   UNL     1      45.140  -9.587   8.659  1.00  0.00    -0.351 OA
BRANCH  25  26
HETATM   26  C   UNL     1      45.283 -10.022  10.012  1.00  0.00     0.171 C 
HETATM   27  C   UNL     1      44.277  -9.261  10.856  1.00  0.00     0.034 C 
ENDBRANCH  25  26
ENDBRANCH   1  25
TORSDOF 6
ENDMDL
MODEL 9
REMARK VINA RESULT:      -7.3      5.750      8.820
REMARK  6 active torsions:
REMARK  status: ('A' for Active; 'I' for Inactive)
REMARK    1  A    between atoms: C_2  and  O_3 
REMARK    2  A    between atoms: O_3  and  C_4 
REMARK    3  A    between atoms: C_9  and  S_10 
REMARK    4  A    between atoms: S_10  and  C_11 
REMARK    5  A    between atoms: C_11  and  C_12 
REMARK       I    between atoms: C_12  and  N_13 
REMARK    6  A    between atoms: N_13  and  C_14 
ROOT
HETATM    1  C   UNL     1      43.516  -8.454  11.484  1.00  0.00     0.069 A 
HETATM    2  C   UNL     1      44.240  -9.427  10.798  1.00  0.00     0.050 A 
HETATM    3  C   UNL     1      43.922  -9.742   9.462  1.00  0.00    -0.004 A 
HETATM    4  C   UNL     1      42.882  -9.069   8.797  1.00  0.00     0.068 A 
HETATM    5  N   UNL     1      42.534  -9.350   7.532  1.00  0.00    -0.241 NA
HETATM    6  C   UNL     1      43.168 -10.357   6.885  1.00  0.00     0.100 A 
HETATM    7  C   UNL     1      44.232 -11.064   7.443  1.00  0.00    -0.026 A 
HETATM    8  C   UNL     1      44.965 -12.148   6.709  1.00  0.00     0.051 C 
HETATM    9  C   UNL     1      44.607 -10.736   8.751  1.00  0.00     0.023 A 
HETATM   10  C   UNL     1      42.193  -8.084   9.489  1.00  0.00     0.035 A 
HETATM   11  C   UNL     1      42.500  -7.775  10.817  1.00  0.00     0.039 A 
ENDROOT
BRANCH   6  12
HETATM   12  S   UNL     1      42.497 -10.755   5.283  1.00  0.00    -0.096 SA
BRANCH  12  13
HETATM   13  C   UNL     1      41.188 -11.968   5.709  1.00  0.00     0.142 C 
HETATM   14  C   UNL     1      39.817 -11.352   5.959  1.00  0.00     0.031 C 
BRANCH  13  15
HETATM   15  C   UNL     1      41.205 -13.155   4.740  1.00  0.00     0.236 C 
HETATM   16  N   UNL     1      42.452 -13.718   4.527  1.00  0.00    -0.326 N 
HETATM   17  H   UNL     1      43.215 -13.362   5.095  1.00  0.00     0.169 HD
HETATM   18  O   UNL     1      40.150 -13.557   4.251  1.00  0.00    -0.272 OA
BRANCH  16  19
HETATM   19  C   UNL     1      42.770 -14.815   3.699  1.00  0.00     0.034 A 
HETATM   20  C   UNL     1      43.000 -14.718   2.325  1.00  0.00     0.029 A 
HETATM   21  C   UNL     1      43.311 -15.857   1.575  1.00  0.00     0.002 A 
HETATM   22  C   UNL     1      43.399 -17.101   2.192  1.00  0.00     0.000 A 
HETATM   23  C   UNL     1      43.175 -17.209   3.563  1.00  0.00     0.002 A 
HETATM   24  C   UNL     1      42.862 -16.071   4.312  1.00  0.00     0.029 A 
ENDBRANCH  16  19
ENDBRANCH  13  15
ENDBRANCH  12  13
ENDBRANCH   6  12
BRANCH   1  25
HETATM   25  O   UNL     1      43.701  -8.077  12.784  1.00  0.00    -0.351 OA
BRANCH  25  26
HETATM   26  C   UNL     1      42.543  -7.676  13.515  1.00  0.00     0.171 C 
HETATM   27  C   UNL     1      42.086  -8.856  14.353  1.00  0.00     0.034 C 
ENDBRANCH  25  26
ENDBRANCH   1  25
TORSDOF 6
ENDMDL
MODEL 10
REMARK VINA RESULT:      -6.9     15.404     17.360
REMARK  6 active torsions:
REMARK  status: ('A' for Active; 'I' for Inactive)
REMARK    1  A    between atoms: C_2  and  O_3 
REMARK    2  A    between atoms: O_3  and  C_4 
REMARK    3  A    between atoms: C_9  and  S_10 
REMARK    4  A    between atoms: S_10  and  C_11 
REMARK    5  A    between atoms: C_11  and  C_12 
REMARK       I    between atoms: C_12  and  N_13 
REMARK    6  A    between atoms: N_13  and  C_14 
ROOT
HETATM    1  C   UNL     1      42.653 -30.091   2.639  1.00  0.00     0.069 A 
HETATM    2  C   UNL     1      42.585 -29.599   1.337  1.00  0.00     0.050 A 
HETATM    3  C   UNL     1      43.661 -29.789   0.446  1.00  0.00    -0.004 A 
HETATM    4  C   UNL     1      44.809 -30.491   0.853  1.00  0.00     0.068 A 
HETATM    5  N   UNL     1      45.863 -30.679   0.044  1.00  0.00    -0.241 NA
HETATM    6  C   UNL     1      45.849 -30.126  -1.192  1.00  0.00     0.100 A 
HETATM    7  C   UNL     1      44.748 -29.439  -1.703  1.00  0.00    -0.026 A 
HETATM    8  C   UNL     1      44.714 -28.868  -3.089  1.00  0.00     0.051 C 
HETATM    9  C   UNL     1      43.641 -29.282  -0.860  1.00  0.00     0.023 A 
HETATM   10  C   UNL     1      44.844 -30.997   2.143  1.00  0.00     0.035 A 
HETATM   11  C   UNL     1      43.782 -30.804   3.032  1.00  0.00     0.039 A 
ENDROOT
BRANCH   6  12
HETATM   12  S   UNL     1      47.373 -30.288  -2.101  1.00  0.00    -0.096 SA
BRANCH  12  13
HETATM   13  C   UNL     1      48.417 -28.993  -1.328  1.00  0.00     0.142 C 
HETATM   14  C   UNL     1      47.666 -27.722  -0.952  1.00  0.00     0.031 C 
BRANCH  13  15
HETATM   15  C   UNL     1      49.295 -29.587  -0.220  1.00  0.00     0.236 C 
HETATM   16  N   UNL     1      48.734 -29.564   1.045  1.00  0.00    -0.326 N 
HETATM   17  H   UNL     1      47.770 -29.250   1.110  1.00  0.00     0.169 HD
HETATM   18  O   UNL     1      50.390 -30.069  -0.504  1.00  0.00    -0.272 OA
BRANCH  16  19
HETATM   19  C   UNL     1      49.300 -30.042   2.245  1.00  0.00     0.034 A 
HETATM   20  C   UNL     1      50.650 -29.915   2.579  1.00  0.00     0.029 A 
HETATM   21  C   UNL     1      51.132 -30.417   3.792  1.00  0.00     0.002 A 
HETATM   22  C   UNL     1      50.269 -31.046   4.683  1.00  0.00     0.000 A 
HETATM   23  C   UNL     1      48.920 -31.175   4.364  1.00  0.00     0.002 A 
HETATM   24  C   UNL     1      48.438 -30.675   3.150  1.00  0.00     0.029 A 
ENDBRANCH  16  19
ENDBRANCH  13  15
ENDBRANCH  12  13
ENDBRANCH   6  12
BRANCH   1  25
HETATM   25  O   UNL     1      41.698 -29.950   3.605  1.00  0.00    -0.351 OA
BRANCH  25  26
HETATM   26  C   UNL     1      40.835 -31.064   3.833  1.00  0.00     0.171 C 
HETATM   27  C   UNL     1      40.917 -31.426   5.305  1.00  0.00     0.034 C 
ENDBRANCH  25  26
ENDBRANCH   1  25
TORSDOF 6
ENDMDL
