MODEL 1
REMARK VINA RESULT:      -9.1      0.000      0.000
REMARK  7 active torsions:
REMARK  status: ('A' for Active; 'I' for Inactive)
REMARK    1  A    between atoms: C_2  and  O_3 
REMARK    2  A    between atoms: O_3  and  C_4 
REMARK    3  A    between atoms: C_7  and  N_8 
REMARK    4  A    between atoms: C_9  and  O_10 
REMARK    5  A    between atoms: C_9  and  C_11 
REMARK       I    between atoms: C_11  and  N_12 
REMARK    6  A    between atoms: N_12  and  C_13 
REMARK    7  A    between atoms: C_13  and  C_14 
ROOT
HETATM    1  N   UNL     1      43.962 -11.402   5.239  1.00  0.00    -0.254 N 
HETATM    2  C   UNL     1      43.347 -11.666   6.551  1.00  0.00     0.256 C 
HETATM    3  C   UNL     1      44.005 -10.879   7.662  1.00  0.00     0.034 A 
HETATM    4  C   UNL     1      45.351 -10.560   7.516  1.00  0.00     0.048 A 
HETATM    5  N   UNL     1      45.987 -10.904   6.326  1.00  0.00    -0.308 N 
HETATM    6  C   UNL     1      45.345 -11.273   5.169  1.00  0.00     0.330 C 
HETATM    7  O   UNL     1      46.033 -11.394   4.157  1.00  0.00    -0.246 OA
HETATM    8  C   UNL     1      43.357 -10.540   8.861  1.00  0.00     0.015 A 
HETATM    9  C   UNL     1      44.052  -9.885   9.878  1.00  0.00     0.001 A 
HETATM   10  C   UNL     1      45.403  -9.582   9.717  1.00  0.00     0.002 A 
HETATM   11  C   UNL     1      46.060  -9.927   8.535  1.00  0.00     0.030 A 
HETATM   12  H   UNL     1      46.969 -10.690   6.199  1.00  0.00     0.170 HD
ENDROOT
BRANCH   2  13
HETATM   13  O   UNL     1      41.962 -11.299   6.554  1.00  0.00    -0.359 OA
HETATM   14  H   UNL     1      41.661 -11.498   7.462  1.00  0.00     0.213 HD
ENDBRANCH   2  13
BRANCH   2  15
HETATM   15  C   UNL     1      43.439 -13.223   6.848  1.00  0.00     0.279 C 
HETATM   16  N   UNL     1      42.255 -13.922   6.956  1.00  0.00    -0.352 N 
HETATM   17  H   UNL     1      41.376 -13.457   6.762  1.00  0.00     0.162 HD
HETATM   18  O   UNL     1      44.535 -13.776   6.990  1.00  0.00    -0.268 OA
BRANCH  16  19
HETATM   19  C   UNL     1      42.240 -15.351   7.150  1.00  0.00     0.161 C 
BRANCH  19  20
HETATM   20  C   UNL     1      42.292 -16.067   5.828  1.00  0.00    -0.038 A 
HETATM   21  C   UNL     1      43.365 -16.924   5.530  1.00  0.00     0.048 A 
HETATM   22  C   UNL     1      43.385 -17.537   4.295  1.00  0.00     0.105 A 
HETATM   23  C   UNL     1      42.398 -17.324   3.363  1.00  0.00     0.105 A 
HETATM   24  O   UNL     1      44.343 -18.394   3.848  1.00  0.00    -0.323 OA
HETATM   25  O   UNL     1      42.609 -18.022   2.215  1.00  0.00    -0.323 OA
HETATM   26  C   UNL     1      41.337 -16.481   3.611  1.00  0.00     0.040 A 
HETATM   27  C   UNL     1      43.835 -18.710   2.536  1.00  0.00     0.352 A 
HETATM   28  C   UNL     1      41.289 -15.844   4.856  1.00  0.00     0.012 A 
ENDBRANCH  19  20
ENDBRANCH  16  19
ENDBRANCH   2  15
BRANCH   1  29
HETATM   29  C   UNL     1      43.209 -11.674   4.053  1.00  0.00     0.043 A 
HETATM   30  C   UNL     1      42.445 -10.688   3.420  1.00  0.00     0.032 A 
HETATM   31  C   UNL     1      41.712 -10.982   2.259  1.00  0.00     0.039 A 
HETATM   32  C   UNL     1      41.724 -12.269   1.728  1.00  0.00     0.068 A 
HETATM   33  C   UNL     1      42.449 -13.265   2.378  1.00  0.00     0.039 A 
HETATM   34  C   UNL     1      43.185 -12.971   3.528  1.00  0.00     0.032 A 
BRANCH  32  35
HETATM   35  O   UNL     1      41.058 -12.689   0.610  1.00  0.00    -0.352 OA
BRANCH  35  36
HETATM   36  C   UNL     1      39.871 -13.452   0.815  1.00  0.00     0.171 C 
HETATM   37  C   UNL     1      40.085 -14.814   0.179  1.00  0.00     0.034 C 
ENDBRANCH  35  36
ENDBRANCH  32  35
ENDBRANCH   1  29
TORSDOF 7
ENDMDL
MODEL 2
REMARK VINA RESULT:      -8.4      3.238      5.187
REMARK  7 active torsions:
REMARK  status: ('A' for Active; 'I' for Inactive)
REMARK    1  A    between atoms: C_2  and  O_3 
REMARK    2  A    between atoms: O_3  and  C_4 
REMARK    3  A    between atoms: C_7  and  N_8 
REMARK    4  A    between atoms: C_9  and  O_10 
REMARK    5  A    between atoms: C_9  and  C_11 
REMARK       I    between atoms: C_11  and  N_12 
REMARK    6  A    between atoms: N_12  and  C_13 
REMARK    7  A    between atoms: C_13  and  C_14 
ROOT
HETATM    1  N   UNL     1      40.335 -12.495   1.538  1.00  0.00    -0.254 N 
HETATM    2  C   UNL     1      40.215 -13.627   2.472  1.00  0.00     0.256 C 
HETATM    3  C   UNL     1      40.822 -13.324   3.824  1.00  0.00     0.034 A 
HETATM    4  C   UNL     1      41.885 -12.428   3.866  1.00  0.00     0.048 A 
HETATM    5  N   UNL     1      42.268 -11.799   2.684  1.00  0.00    -0.308 N 
HETATM    6  C   UNL     1      41.517 -11.761   1.534  1.00  0.00     0.330 C 
HETATM    7  O   UNL     1      41.914 -11.036   0.624  1.00  0.00    -0.246 OA
HETATM    8  C   UNL     1      40.432 -13.966   5.010  1.00  0.00     0.015 A 
HETATM    9  C   UNL     1      41.095 -13.698   6.208  1.00  0.00     0.001 A 
HETATM   10  C   UNL     1      42.164 -12.802   6.228  1.00  0.00     0.002 A 
HETATM   11  C   UNL     1      42.568 -12.170   5.053  1.00  0.00     0.030 A 
HETATM   12  H   UNL     1      43.044 -11.149   2.687  1.00  0.00     0.170 HD
ENDROOT
BRANCH   2  13
HETATM   13  O   UNL     1      38.841 -13.959   2.705  1.00  0.00    -0.359 OA
HETATM   14  H   UNL     1      38.346 -13.391   2.081  1.00  0.00     0.213 HD
ENDBRANCH   2  13
BRANCH   2  15
HETATM   15  C   UNL     1      40.918 -14.894   1.822  1.00  0.00     0.279 C 
HETATM   16  N   UNL     1      42.294 -14.959   1.879  1.00  0.00    -0.352 N 
HETATM   17  H   UNL     1      42.810 -14.259   2.399  1.00  0.00     0.162 HD
HETATM   18  O   UNL     1      40.248 -15.776   1.273  1.00  0.00    -0.268 OA
BRANCH  16  19
HETATM   19  C   UNL     1      43.015 -16.104   1.381  1.00  0.00     0.161 C 
BRANCH  19  20
HETATM   20  C   UNL     1      43.343 -17.053   2.502  1.00  0.00    -0.038 A 
HETATM   21  C   UNL     1      43.398 -18.437   2.264  1.00  0.00     0.048 A 
HETATM   22  C   UNL     1      43.674 -19.271   3.327  1.00  0.00     0.105 A 
HETATM   23  C   UNL     1      43.886 -18.784   4.594  1.00  0.00     0.105 A 
HETATM   24  O   UNL     1      43.767 -20.627   3.270  1.00  0.00    -0.323 OA
HETATM   25  O   UNL     1      44.141 -19.771   5.494  1.00  0.00    -0.323 OA
HETATM   26  C   UNL     1      43.828 -17.436   4.872  1.00  0.00     0.040 A 
HETATM   27  C   UNL     1      44.080 -20.935   4.644  1.00  0.00     0.352 A 
HETATM   28  C   UNL     1      43.549 -16.564   3.814  1.00  0.00     0.012 A 
ENDBRANCH  19  20
ENDBRANCH  16  19
ENDBRANCH   2  15
BRANCH   1  29
HETATM   29  C   UNL     1      39.443 -12.419   0.422  1.00  0.00     0.043 A 
HETATM   30  C   UNL     1      39.608 -13.219  -0.713  1.00  0.00     0.032 A 
HETATM   31  C   UNL     1      38.721 -13.123  -1.797  1.00  0.00     0.039 A 
HETATM   32  C   UNL     1      37.667 -12.213  -1.762  1.00  0.00     0.068 A 
HETATM   33  C   UNL     1      37.522 -11.384  -0.652  1.00  0.00     0.039 A 
HETATM   34  C   UNL     1      38.400 -11.485   0.429  1.00  0.00     0.032 A 
BRANCH  32  35
HETATM   35  O   UNL     1      36.735 -12.018  -2.743  1.00  0.00    -0.352 OA
BRANCH  35  36
HETATM   36  C   UNL     1      36.406 -10.666  -3.058  1.00  0.00     0.171 C 
HETATM   37  C   UNL     1      34.928 -10.622  -3.404  1.00  0.00     0.034 C 
ENDBRANCH  35  36
ENDBRANCH  32  35
ENDBRANCH   1  29
TORSDOF 7
ENDMDL
MODEL 3
REMARK VINA RESULT:      -8.4      2.242      6.896
REMARK  7 active torsions:
REMARK  status: ('A' for Active; 'I' for Inactive)
REMARK    1  A    between atoms: C_2  and  O_3 
REMARK    2  A    between atoms: O_3  and  C_4 
REMARK    3  A    between atoms: C_7  and  N_8 
REMARK    4  A    between atoms: C_9  and  O_10 
REMARK    5  A    between atoms: C_9  and  C_11 
REMARK       I    between atoms: C_11  and  N_12 
REMARK    6  A    between atoms: N_12  and  C_13 
REMARK    7  A    between atoms: C_13  and  C_14 
ROOT
HETATM    1  N   UNL     1      43.139 -12.724   4.886  1.00  0.00    -0.254 N 
HETATM    2  C   UNL     1      42.177 -13.840   4.926  1.00  0.00     0.256 C 
HETATM    3  C   UNL     1      42.504 -14.917   3.917  1.00  0.00     0.034 A 
HETATM    4  C   UNL     1      43.155 -14.529   2.750  1.00  0.00     0.048 A 
HETATM    5  N   UNL     1      43.543 -13.198   2.619  1.00  0.00    -0.308 N 
HETATM    6  C   UNL     1      43.600 -12.291   3.648  1.00  0.00     0.330 C 
HETATM    7  O   UNL     1      44.112 -11.199   3.409  1.00  0.00    -0.246 OA
HETATM    8  C   UNL     1      42.105 -16.255   4.055  1.00  0.00     0.015 A 
HETATM    9  C   UNL     1      42.370 -17.179   3.043  1.00  0.00     0.001 A 
HETATM   10  C   UNL     1      43.015 -16.770   1.877  1.00  0.00     0.002 A 
HETATM   11  C   UNL     1      43.403 -15.439   1.723  1.00  0.00     0.030 A 
HETATM   12  H   UNL     1      44.011 -12.890   1.775  1.00  0.00     0.170 HD
ENDROOT
BRANCH   2  13
HETATM   13  O   UNL     1      42.173 -14.470   6.212  1.00  0.00    -0.359 OA
HETATM   14  H   UNL     1      41.854 -15.378   6.036  1.00  0.00     0.213 HD
ENDBRANCH   2  13
BRANCH   2  15
HETATM   15  C   UNL     1      40.722 -13.260   4.664  1.00  0.00     0.279 C 
HETATM   16  N   UNL     1      40.498 -12.617   3.464  1.00  0.00    -0.352 N 
HETATM   17  H   UNL     1      41.223 -12.606   2.756  1.00  0.00     0.162 HD
HETATM   18  O   UNL     1      39.834 -13.371   5.516  1.00  0.00    -0.268 OA
BRANCH  16  19
HETATM   19  C   UNL     1      39.192 -12.124   3.106  1.00  0.00     0.161 C 
BRANCH  19  20
HETATM   20  C   UNL     1      38.954 -12.273   1.628  1.00  0.00    -0.038 A 
HETATM   21  C   UNL     1      39.735 -13.164   0.872  1.00  0.00     0.048 A 
HETATM   22  C   UNL     1      39.500 -13.247  -0.484  1.00  0.00     0.105 A 
HETATM   23  C   UNL     1      38.540 -12.483  -1.102  1.00  0.00     0.105 A 
HETATM   24  O   UNL     1      40.160 -14.056  -1.357  1.00  0.00    -0.323 OA
HETATM   25  O   UNL     1      38.472 -12.716  -2.440  1.00  0.00    -0.323 OA
HETATM   26  C   UNL     1      37.763 -11.588  -0.400  1.00  0.00     0.040 A 
HETATM   27  C   UNL     1      39.490 -13.726  -2.592  1.00  0.00     0.352 A 
HETATM   28  C   UNL     1      37.978 -11.481   0.979  1.00  0.00     0.012 A 
ENDBRANCH  19  20
ENDBRANCH  16  19
ENDBRANCH   2  15
BRANCH   1  29
HETATM   29  C   UNL     1      43.267 -11.878   6.033  1.00  0.00     0.043 A 
HETATM   30  C   UNL     1      42.339 -10.870   6.317  1.00  0.00     0.032 A 
HETATM   31  C   UNL     1      42.490 -10.051   7.447  1.00  0.00     0.039 A 
HETATM   32  C   UNL     1      43.580 -10.222   8.297  1.00  0.00     0.068 A 
HETATM   33  C   UNL     1      44.529 -11.196   7.997  1.00  0.00     0.039 A 
HETATM   34  C   UNL     1      44.375 -12.016   6.877  1.00  0.00     0.032 A 
BRANCH  32  35
HETATM   35  O   UNL     1      43.846  -9.497   9.425  1.00  0.00    -0.352 OA
BRANCH  35  36
HETATM   36  C   UNL     1      44.558 -10.164  10.466  1.00  0.00     0.171 C 
HETATM   37  C   UNL     1      43.559 -10.524  11.550  1.00  0.00     0.034 C 
ENDBRANCH  35  36
ENDBRANCH  32  35
ENDBRANCH   1  29
TORSDOF 7
ENDMDL
MODEL 4
REMARK VINA RESULT:      -8.1      2.174      6.217
REMARK  7 active torsions:
REMARK  status: ('A' for Active; 'I' for Inactive)
REMARK    1  A    between atoms: C_2  and  O_3 
REMARK    2  A    between atoms: O_3  and  C_4 
REMARK    3  A    between atoms: C_7  and  N_8 
REMARK    4  A    between atoms: C_9  and  O_10 
REMARK    5  A    between atoms: C_9  and  C_11 
REMARK       I    between atoms: C_11  and  N_12 
REMARK    6  A    between atoms: N_12  and  C_13 
REMARK    7  A    between atoms: C_13  and  C_14 
ROOT
HETATM    1  N   UNL     1      41.370 -11.975   4.848  1.00  0.00    -0.254 N 
HETATM    2  C   UNL     1      41.718 -11.629   3.459  1.00  0.00     0.256 C 
HETATM    3  C   UNL     1      40.495 -11.443   2.590  1.00  0.00     0.034 A 
HETATM    4  C   UNL     1      39.355 -12.169   2.918  1.00  0.00     0.048 A 
HETATM    5  N   UNL     1      39.378 -12.952   4.069  1.00  0.00    -0.308 N 
HETATM    6  C   UNL     1      40.316 -12.855   5.068  1.00  0.00     0.330 C 
HETATM    7  O   UNL     1      40.116 -13.502   6.094  1.00  0.00    -0.246 OA
HETATM    8  C   UNL     1      40.483 -10.655   1.428  1.00  0.00     0.015 A 
HETATM    9  C   UNL     1      39.342 -10.596   0.627  1.00  0.00     0.001 A 
HETATM   10  C   UNL     1      38.212 -11.338   0.968  1.00  0.00     0.002 A 
HETATM   11  C   UNL     1      38.219 -12.135   2.112  1.00  0.00     0.030 A 
HETATM   12  H   UNL     1      38.563 -13.496   4.325  1.00  0.00     0.170 HD
ENDROOT
BRANCH   2  13
HETATM   13  O   UNL     1      42.452 -10.400   3.404  1.00  0.00    -0.359 OA
HETATM   14  H   UNL     1      43.390 -10.676   3.432  1.00  0.00     0.213 HD
ENDBRANCH   2  13
BRANCH   2  15
HETATM   15  C   UNL     1      42.645 -12.776   2.871  1.00  0.00     0.279 C 
HETATM   16  N   UNL     1      42.035 -13.946   2.470  1.00  0.00    -0.352 N 
HETATM   17  H   UNL     1      41.024 -14.014   2.476  1.00  0.00     0.162 HD
HETATM   18  O   UNL     1      43.870 -12.623   2.795  1.00  0.00    -0.268 OA
BRANCH  16  19
HETATM   19  C   UNL     1      42.784 -15.014   1.856  1.00  0.00     0.161 C 
BRANCH  19  20
HETATM   20  C   UNL     1      43.125 -16.074   2.868  1.00  0.00    -0.038 A 
HETATM   21  C   UNL     1      43.382 -17.391   2.453  1.00  0.00     0.048 A 
HETATM   22  C   UNL     1      43.663 -18.336   3.418  1.00  0.00     0.105 A 
HETATM   23  C   UNL     1      43.687 -18.021   4.755  1.00  0.00     0.105 A 
HETATM   24  O   UNL     1      43.936 -19.649   3.190  1.00  0.00    -0.323 OA
HETATM   25  O   UNL     1      43.982 -19.094   5.536  1.00  0.00    -0.323 OA
HETATM   26  C   UNL     1      43.427 -16.745   5.204  1.00  0.00     0.040 A 
HETATM   27  C   UNL     1      44.154 -20.119   4.536  1.00  0.00     0.352 A 
HETATM   28  C   UNL     1      43.139 -15.764   4.249  1.00  0.00     0.012 A 
ENDBRANCH  19  20
ENDBRANCH  16  19
ENDBRANCH   2  15
BRANCH   1  29
HETATM   29  C   UNL     1      42.328 -11.734   5.884  1.00  0.00     0.043 A 
HETATM   30  C   UNL     1      43.359 -12.638   6.163  1.00  0.00     0.032 A 
HETATM   31  C   UNL     1      44.284 -12.380   7.186  1.00  0.00     0.039 A 
HETATM   32  C   UNL     1      44.178 -11.222   7.953  1.00  0.00     0.068 A 
HETATM   33  C   UNL     1      43.130 -10.339   7.707  1.00  0.00     0.039 A 
HETATM   34  C   UNL     1      42.214 -10.592   6.683  1.00  0.00     0.032 A 
BRANCH  32  35
HETATM   35  O   UNL     1      45.007 -10.850   8.974  1.00  0.00    -0.352 OA
BRANCH  35  36
HETATM   36  C   UNL     1      44.527  -9.839   9.858  1.00  0.00     0.171 C 
HETATM   37  C   UNL     1      44.064 -10.523  11.131  1.00  0.00     0.034 C 
ENDBRANCH  35  36
ENDBRANCH  32  35
ENDBRANCH   1  29
TORSDOF 7
ENDMDL
MODEL 5
REMARK VINA RESULT:      -8.0      3.042      6.822
REMARK  7 active torsions:
REMARK  status: ('A' for Active; 'I' for Inactive)
REMARK    1  A    between atoms: C_2  and  O_3 
REMARK    2  A    between atoms: O_3  and  C_4 
REMARK    3  A    between atoms: C_7  and  N_8 
REMARK    4  A    between atoms: C_9  and  O_10 
REMARK    5  A    between atoms: C_9  and  C_11 
REMARK       I    between atoms: C_11  and  N_12 
REMARK    6  A    between atoms: N_12  and  C_13 
REMARK    7  A    between atoms: C_13  and  C_14 
ROOT
HETATM    1  N   UNL     1      41.844 -14.469   4.950  1.00  0.00    -0.254 N 
HETATM    2  C   UNL     1      41.881 -13.345   3.998  1.00  0.00     0.256 C 
HETATM    3  C   UNL     1      41.598 -12.018   4.665  1.00  0.00     0.034 A 
HETATM    4  C   UNL     1      40.776 -12.023   5.787  1.00  0.00     0.048 A 
HETATM    5  N   UNL     1      40.336 -13.249   6.280  1.00  0.00    -0.308 N 
HETATM    6  C   UNL     1      40.865 -14.470   5.938  1.00  0.00     0.330 C 
HETATM    7  O   UNL     1      40.480 -15.450   6.573  1.00  0.00    -0.246 OA
HETATM    8  C   UNL     1      42.042 -10.786   4.159  1.00  0.00     0.015 A 
HETATM    9  C   UNL     1      41.672  -9.593   4.780  1.00  0.00     0.001 A 
HETATM   10  C   UNL     1      40.840  -9.618   5.899  1.00  0.00     0.002 A 
HETATM   11  C   UNL     1      40.382 -10.836   6.401  1.00  0.00     0.030 A 
HETATM   12  H   UNL     1      39.730 -13.278   7.091  1.00  0.00     0.170 HD
ENDROOT
BRANCH   2  13
HETATM   13  O   UNL     1      43.170 -13.231   3.386  1.00  0.00    -0.359 OA
HETATM   14  H   UNL     1      43.295 -14.082   2.922  1.00  0.00     0.213 HD
ENDBRANCH   2  13
BRANCH   2  15
HETATM   15  C   UNL     1      40.820 -13.624   2.849  1.00  0.00     0.279 C 
HETATM   16  N   UNL     1      41.304 -13.929   1.595  1.00  0.00    -0.352 N 
HETATM   17  H   UNL     1      42.301 -14.053   1.456  1.00  0.00     0.162 HD
HETATM   18  O   UNL     1      39.607 -13.552   3.077  1.00  0.00    -0.268 OA
BRANCH  16  19
HETATM   19  C   UNL     1      40.420 -14.269   0.509  1.00  0.00     0.161 C 
BRANCH  19  20
HETATM   20  C   UNL     1      40.542 -13.269  -0.610  1.00  0.00    -0.038 A 
HETATM   21  C   UNL     1      40.949 -11.952  -0.338  1.00  0.00     0.048 A 
HETATM   22  C   UNL     1      41.019 -11.062  -1.390  1.00  0.00     0.105 A 
HETATM   23  C   UNL     1      40.697 -11.430  -2.674  1.00  0.00     0.105 A 
HETATM   24  O   UNL     1      41.395  -9.757  -1.304  1.00  0.00    -0.323 OA
HETATM   25  O   UNL     1      40.832 -10.405  -3.558  1.00  0.00    -0.323 OA
HETATM   26  C   UNL     1      40.280 -12.707  -2.979  1.00  0.00     0.040 A 
HETATM   27  C   UNL     1      41.291  -9.353  -2.685  1.00  0.00     0.352 A 
HETATM   28  C   UNL     1      40.199 -13.633  -1.933  1.00  0.00     0.012 A 
ENDBRANCH  19  20
ENDBRANCH  16  19
ENDBRANCH   2  15
BRANCH   1  29
HETATM   29  C   UNL     1      42.523 -15.684   4.615  1.00  0.00     0.043 A 
HETATM   30  C   UNL     1      42.079 -16.519   3.585  1.00  0.00     0.032 A 
HETATM   31  C   UNL     1      42.761 -17.708   3.279  1.00  0.00     0.039 A 
HETATM   32  C   UNL     1      43.886 -18.080   4.011  1.00  0.00     0.068 A 
HETATM   33  C   UNL     1      44.308 -17.273   5.064  1.00  0.00     0.039 A 
HETATM   34  C   UNL     1      43.634 -16.087   5.364  1.00  0.00     0.032 A 
BRANCH  32  35
HETATM   35  O   UNL     1      44.639 -19.204   3.819  1.00  0.00    -0.352 OA
BRANCH  35  36
HETATM   36  C   UNL     1      43.949 -20.453   3.838  1.00  0.00     0.171 C 
HETATM   37  C   UNL     1      43.949 -20.955   5.271  1.00  0.00     0.034 C 
ENDBRANCH  35  36
ENDBRANCH  32  35
ENDBRANCH   1  29
TORSDOF 7
ENDMDL
MODEL 6
REMARK VINA RESULT:      -8.0      2.965      7.621
REMARK  7 active torsions:
REMARK  status: ('A' for Active; 'I' for Inactive)
REMARK    1  A    between atoms: C_2  and  O_3 
REMARK    2  A    between atoms: O_3  and  C_4 
REMARK    3  A    between atoms: C_7  and  N_8 
REMARK    4  A    between atoms: C_9  and  O_10 
REMARK    5  A    between atoms: C_9  and  C_11 
REMARK       I    between atoms: C_11  and  N_12 
REMARK    6  A    between atoms: N_12  and  C_13 
REMARK    7  A    between atoms: C_13  and  C_14 
ROOT
HETATM    1  N   UNL     1      43.478 -12.722   4.915  1.00  0.00    -0.254 N 
HETATM    2  C   UNL     1      42.719 -13.954   5.192  1.00  0.00     0.256 C 
HETATM    3  C   UNL     1      42.942 -15.015   4.138  1.00  0.00     0.034 A 
HETATM    4  C   UNL     1      43.232 -14.589   2.847  1.00  0.00     0.048 A 
HETATM    5  N   UNL     1      43.388 -13.224   2.619  1.00  0.00    -0.308 N 
HETATM    6  C   UNL     1      43.564 -12.279   3.600  1.00  0.00     0.330 C 
HETATM    7  O   UNL     1      43.845 -11.137   3.239  1.00  0.00    -0.246 OA
HETATM    8  C   UNL     1      42.778 -16.389   4.376  1.00  0.00     0.015 A 
HETATM    9  C   UNL     1      42.918 -17.307   3.334  1.00  0.00     0.001 A 
HETATM   10  C   UNL     1      43.201 -16.859   2.044  1.00  0.00     0.002 A 
HETATM   11  C   UNL     1      43.351 -15.495   1.795  1.00  0.00     0.030 A 
HETATM   12  H   UNL     1      43.592 -12.888   1.686  1.00  0.00     0.170 HD
ENDROOT
BRANCH   2  13
HETATM   13  O   UNL     1      43.112 -14.530   6.444  1.00  0.00    -0.359 OA
HETATM   14  H   UNL     1      43.071 -13.785   7.076  1.00  0.00     0.213 HD
ENDBRANCH   2  13
BRANCH   2  15
HETATM   15  C   UNL     1      41.177 -13.585   5.289  1.00  0.00     0.279 C 
HETATM   16  N   UNL     1      40.636 -12.835   4.266  1.00  0.00    -0.352 N 
HETATM   17  H   UNL     1      41.198 -12.615   3.451  1.00  0.00     0.162 HD
HETATM   18  O   UNL     1      40.499 -13.948   6.257  1.00  0.00    -0.268 OA
BRANCH  16  19
HETATM   19  C   UNL     1      39.231 -12.514   4.229  1.00  0.00     0.161 C 
BRANCH  19  20
HETATM   20  C   UNL     1      39.010 -11.058   4.537  1.00  0.00    -0.038 A 
HETATM   21  C   UNL     1      39.100 -10.594   5.860  1.00  0.00     0.048 A 
HETATM   22  C   UNL     1      38.861  -9.256   6.099  1.00  0.00     0.105 A 
HETATM   23  C   UNL     1      38.536  -8.386   5.087  1.00  0.00     0.105 A 
HETATM   24  O   UNL     1      38.909  -8.645   7.313  1.00  0.00    -0.323 OA
HETATM   25  O   UNL     1      38.341  -7.117   5.536  1.00  0.00    -0.323 OA
HETATM   26  C   UNL     1      38.424  -8.804   3.779  1.00  0.00     0.040 A 
HETATM   27  C   UNL     1      38.595  -7.285   6.946  1.00  0.00     0.352 A 
HETATM   28  C   UNL     1      38.660 -10.156   3.505  1.00  0.00     0.012 A 
ENDBRANCH  19  20
ENDBRANCH  16  19
ENDBRANCH   2  15
BRANCH   1  29
HETATM   29  C   UNL     1      43.758 -11.823   5.993  1.00  0.00     0.043 A 
HETATM   30  C   UNL     1      44.985 -11.835   6.666  1.00  0.00     0.032 A 
HETATM   31  C   UNL     1      45.234 -10.945   7.722  1.00  0.00     0.039 A 
HETATM   32  C   UNL     1      44.252 -10.043   8.127  1.00  0.00     0.068 A 
HETATM   33  C   UNL     1      43.014 -10.055   7.488  1.00  0.00     0.039 A 
HETATM   34  C   UNL     1      42.769 -10.936   6.432  1.00  0.00     0.032 A 
BRANCH  32  35
HETATM   35  O   UNL     1      44.362  -9.128   9.135  1.00  0.00    -0.352 OA
BRANCH  35  36
HETATM   36  C   UNL     1      44.755  -9.622  10.414  1.00  0.00     0.171 C 
HETATM   37  C   UNL     1      43.903  -8.924  11.459  1.00  0.00     0.034 C 
ENDBRANCH  35  36
ENDBRANCH  32  35
ENDBRANCH   1  29
TORSDOF 7
ENDMDL
MODEL 7
REMARK VINA RESULT:      -7.9      2.897      4.459
REMARK  7 active torsions:
REMARK  status: ('A' for Active; 'I' for Inactive)
REMARK    1  A    between atoms: C_2  and  O_3 
REMARK    2  A    between atoms: O_3  and  C_4 
REMARK    3  A    between atoms: C_7  and  N_8 
REMARK    4  A    between atoms: C_9  and  O_10 
REMARK    5  A    between atoms: C_9  and  C_11 
REMARK       I    between atoms: C_11  and  N_12 
REMARK    6  A    between atoms: N_12  and  C_13 
REMARK    7  A    between atoms: C_13  and  C_14 
ROOT
HETATM    1  N   UNL     1      41.389 -12.528   3.405  1.00  0.00    -0.254 N 
HETATM    2  C   UNL     1      41.016 -13.893   3.813  1.00  0.00     0.256 C 
HETATM    3  C   UNL     1      41.661 -14.298   5.120  1.00  0.00     0.034 A 
HETATM    4  C   UNL     1      42.892 -13.732   5.433  1.00  0.00     0.048 A 
HETATM    5  N   UNL     1      43.414 -12.767   4.576  1.00  0.00    -0.308 N 
HETATM    6  C   UNL     1      42.701 -12.112   3.601  1.00  0.00     0.330 C 
HETATM    7  O   UNL     1      43.256 -11.175   3.030  1.00  0.00    -0.246 OA
HETATM    8  C   UNL     1      41.129 -15.275   5.976  1.00  0.00     0.015 A 
HETATM    9  C   UNL     1      41.821 -15.659   7.125  1.00  0.00     0.001 A 
HETATM   10  C   UNL     1      43.059 -15.086   7.418  1.00  0.00     0.002 A 
HETATM   11  C   UNL     1      43.602 -14.125   6.566  1.00  0.00     0.030 A 
HETATM   12  H   UNL     1      44.313 -12.346   4.778  1.00  0.00     0.170 HD
ENDROOT
BRANCH   2  13
HETATM   13  O   UNL     1      39.601 -14.006   4.002  1.00  0.00    -0.359 OA
HETATM   14  H   UNL     1      39.490 -14.068   4.971  1.00  0.00     0.213 HD
ENDBRANCH   2  13
BRANCH   2  15
HETATM   15  C   UNL     1      41.435 -14.897   2.656  1.00  0.00     0.279 C 
HETATM   16  N   UNL     1      42.718 -15.402   2.683  1.00  0.00    -0.352 N 
HETATM   17  H   UNL     1      43.323 -15.197   3.470  1.00  0.00     0.162 HD
HETATM   18  O   UNL     1      40.638 -15.196   1.759  1.00  0.00    -0.268 OA
BRANCH  16  19
HETATM   19  C   UNL     1      43.164 -16.376   1.718  1.00  0.00     0.161 C 
BRANCH  19  20
HETATM   20  C   UNL     1      43.350 -17.721   2.367  1.00  0.00    -0.038 A 
HETATM   21  C   UNL     1      43.622 -17.811   3.743  1.00  0.00     0.048 A 
HETATM   22  C   UNL     1      43.813 -19.063   4.289  1.00  0.00     0.105 A 
HETATM   23  C   UNL     1      43.751 -20.204   3.526  1.00  0.00     0.105 A 
HETATM   24  O   UNL     1      44.082 -19.328   5.596  1.00  0.00    -0.323 OA
HETATM   25  O   UNL     1      43.969 -21.330   4.256  1.00  0.00    -0.323 OA
HETATM   26  C   UNL     1      43.500 -20.158   2.172  1.00  0.00     0.040 A 
HETATM   27  C   UNL     1      44.162 -20.768   5.570  1.00  0.00     0.352 A 
HETATM   28  C   UNL     1      43.302 -18.901   1.589  1.00  0.00     0.012 A 
ENDBRANCH  19  20
ENDBRANCH  16  19
ENDBRANCH   2  15
BRANCH   1  29
HETATM   29  C   UNL     1      40.546 -11.824   2.487  1.00  0.00     0.043 A 
HETATM   30  C   UNL     1      40.695 -11.947   1.101  1.00  0.00     0.032 A 
HETATM   31  C   UNL     1      39.857 -11.243   0.222  1.00  0.00     0.039 A 
HETATM   32  C   UNL     1      38.870 -10.396   0.721  1.00  0.00     0.068 A 
HETATM   33  C   UNL     1      38.744 -10.238   2.099  1.00  0.00     0.039 A 
HETATM   34  C   UNL     1      39.573 -10.944   2.973  1.00  0.00     0.032 A 
BRANCH  32  35
HETATM   35  O   UNL     1      37.992  -9.656  -0.020  1.00  0.00    -0.352 OA
BRANCH  35  36
HETATM   36  C   UNL     1      36.844 -10.335  -0.526  1.00  0.00     0.171 C 
HETATM   37  C   UNL     1      35.625  -9.503  -0.173  1.00  0.00     0.034 C 
ENDBRANCH  35  36
ENDBRANCH  32  35
ENDBRANCH   1  29
TORSDOF 7
ENDMDL
MODEL 8
REMARK VINA RESULT:      -7.8      2.810      7.553
REMARK  7 active torsions:
REMARK  status: ('A' for Active; 'I' for Inactive)
REMARK    1  A    between atoms: C_2  and  O_3 
REMARK    2  A    between atoms: O_3  and  C_4 
REMARK    3  A    between atoms: C_7  and  N_8 
REMARK    4  A    between atoms: C_9  and  O_10 
REMARK    5  A    between atoms: C_9  and  C_11 
REMARK       I    between atoms: C_11  and  N_12 
REMARK    6  A    between atoms: N_12  and  C_13 
REMARK    7  A    between atoms: C_13  and  C_14 
ROOT
HETATM    1  N   UNL     1      41.101 -12.188   4.861  1.00  0.00    -0.254 N 
HETATM    2  C   UNL     1      42.410 -12.578   4.309  1.00  0.00     0.256 C 
HETATM    3  C   UNL     1      42.338 -13.860   3.511  1.00  0.00     0.034 A 
HETATM    4  C   UNL     1      41.371 -14.792   3.874  1.00  0.00     0.048 A 
HETATM    5  N   UNL     1      40.475 -14.455   4.885  1.00  0.00    -0.308 N 
HETATM    6  C   UNL     1      40.271 -13.184   5.364  1.00  0.00     0.330 C 
HETATM    7  O   UNL     1      39.336 -13.019   6.146  1.00  0.00    -0.246 OA
HETATM    8  C   UNL     1      43.249 -14.193   2.496  1.00  0.00     0.015 A 
HETATM    9  C   UNL     1      43.173 -15.432   1.858  1.00  0.00     0.001 A 
HETATM   10  C   UNL     1      42.202 -16.356   2.242  1.00  0.00     0.002 A 
HETATM   11  C   UNL     1      41.301 -16.040   3.259  1.00  0.00     0.030 A 
HETATM   12  H   UNL     1      39.766 -15.119   5.173  1.00  0.00     0.170 HD
ENDROOT
BRANCH   2  13
HETATM   13  O   UNL     1      42.916 -11.572   3.424  1.00  0.00    -0.359 OA
HETATM   14  H   UNL     1      43.235 -12.071   2.647  1.00  0.00     0.213 HD
ENDBRANCH   2  13
BRANCH   2  15
HETATM   15  C   UNL     1      43.438 -12.731   5.510  1.00  0.00     0.279 C 
HETATM   16  N   UNL     1      44.388 -11.743   5.666  1.00  0.00    -0.352 N 
HETATM   17  H   UNL     1      44.356 -10.917   5.080  1.00  0.00     0.162 HD
HETATM   18  O   UNL     1      43.390 -13.711   6.262  1.00  0.00    -0.268 OA
BRANCH  16  19
HETATM   19  C   UNL     1      45.314 -11.758   6.770  1.00  0.00     0.161 C 
BRANCH  19  20
HETATM   20  C   UNL     1      44.923 -10.740   7.807  1.00  0.00    -0.038 A 
HETATM   21  C   UNL     1      44.001 -11.074   8.813  1.00  0.00     0.048 A 
HETATM   22  C   UNL     1      43.650 -10.100   9.725  1.00  0.00     0.105 A 
HETATM   23  C   UNL     1      44.170  -8.829   9.665  1.00  0.00     0.105 A 
HETATM   24  O   UNL     1      42.779 -10.256  10.758  1.00  0.00    -0.323 OA
HETATM   25  O   UNL     1      43.694  -8.026  10.653  1.00  0.00    -0.323 OA
HETATM   26  C   UNL     1      45.065  -8.458   8.686  1.00  0.00     0.040 A 
HETATM   27  C   UNL     1      42.825  -8.942  11.352  1.00  0.00     0.352 A 
HETATM   28  C   UNL     1      45.440  -9.425   7.746  1.00  0.00     0.012 A 
ENDBRANCH  19  20
ENDBRANCH  16  19
ENDBRANCH   2  15
BRANCH   1  29
HETATM   29  C   UNL     1      40.881 -10.822   5.226  1.00  0.00     0.043 A 
HETATM   30  C   UNL     1      40.178  -9.940   4.399  1.00  0.00     0.032 A 
HETATM   31  C   UNL     1      39.979  -8.603   4.778  1.00  0.00     0.039 A 
HETATM   32  C   UNL     1      40.495  -8.131   5.982  1.00  0.00     0.068 A 
HETATM   33  C   UNL     1      41.231  -8.994   6.790  1.00  0.00     0.039 A 
HETATM   34  C   UNL     1      41.423 -10.326   6.416  1.00  0.00     0.032 A 
BRANCH  32  35
HETATM   35  O   UNL     1      40.375  -6.859   6.470  1.00  0.00    -0.352 OA
BRANCH  35  36
HETATM   36  C   UNL     1      41.586  -6.142   6.703  1.00  0.00     0.171 C 
HETATM   37  C   UNL     1      41.834  -5.254   5.496  1.00  0.00     0.034 C 
ENDBRANCH  35  36
ENDBRANCH  32  35
ENDBRANCH   1  29
TORSDOF 7
ENDMDL
MODEL 9
REMARK VINA RESULT:      -7.7     16.605     18.869
REMARK  7 active torsions:
REMARK  status: ('A' for Active; 'I' for Inactive)
REMARK    1  A    between atoms: C_2  and  O_3 
REMARK    2  A    between atoms: O_3  and  C_4 
REMARK    3  A    between atoms: C_7  and  N_8 
REMARK    4  A    between atoms: C_9  and  O_10 
REMARK    5  A    between atoms: C_9  and  C_11 
REMARK       I    between atoms: C_11  and  N_12 
REMARK    6  A    between atoms: N_12  and  C_13 
REMARK    7  A    between atoms: C_13  and  C_14 
ROOT
HETATM    1  N   UNL     1      46.814 -29.452  -0.570  1.00  0.00    -0.254 N 
HETATM    2  C   UNL     1      45.603 -30.285  -0.678  1.00  0.00     0.256 C 
HETATM    3  C   UNL     1      45.218 -30.555  -2.115  1.00  0.00     0.034 A 
HETATM    4  C   UNL     1      45.553 -29.593  -3.063  1.00  0.00     0.048 A 
HETATM    5  N   UNL     1      46.295 -28.489  -2.651  1.00  0.00    -0.308 N 
HETATM    6  C   UNL     1      46.974 -28.397  -1.461  1.00  0.00     0.330 C 
HETATM    7  O   UNL     1      47.713 -27.426  -1.306  1.00  0.00    -0.246 OA
HETATM    8  C   UNL     1      44.466 -31.669  -2.519  1.00  0.00     0.015 A 
HETATM    9  C   UNL     1      44.074 -31.809  -3.851  1.00  0.00     0.001 A 
HETATM   10  C   UNL     1      44.412 -30.830  -4.785  1.00  0.00     0.002 A 
HETATM   11  C   UNL     1      45.147 -29.713  -4.390  1.00  0.00     0.030 A 
HETATM   12  H   UNL     1      46.545 -27.771  -3.321  1.00  0.00     0.170 HD
ENDROOT
BRANCH   2  13
HETATM   13  O   UNL     1      45.800 -31.562  -0.060  1.00  0.00    -0.359 OA
HETATM   14  H   UNL     1      45.713 -32.203  -0.794  1.00  0.00     0.213 HD
ENDBRANCH   2  13
BRANCH   2  15
HETATM   15  C   UNL     1      44.418 -29.553   0.085  1.00  0.00     0.279 C 
HETATM   16  N   UNL     1      44.046 -30.054   1.315  1.00  0.00    -0.352 N 
HETATM   17  H   UNL     1      44.581 -30.805   1.736  1.00  0.00     0.162 HD
HETATM   18  O   UNL     1      43.846 -28.581  -0.421  1.00  0.00    -0.268 OA
BRANCH  16  19
HETATM   19  C   UNL     1      43.032 -29.412   2.113  1.00  0.00     0.161 C 
BRANCH  19  20
HETATM   20  C   UNL     1      41.967 -30.398   2.513  1.00  0.00    -0.038 A 
HETATM   21  C   UNL     1      41.438 -30.377   3.815  1.00  0.00     0.048 A 
HETATM   22  C   UNL     1      40.485 -31.317   4.145  1.00  0.00     0.105 A 
HETATM   23  C   UNL     1      40.056 -32.263   3.245  1.00  0.00     0.105 A 
HETATM   24  O   UNL     1      39.870 -31.435   5.353  1.00  0.00    -0.323 OA
HETATM   25  O   UNL     1      39.116 -33.092   3.772  1.00  0.00    -0.323 OA
HETATM   26  C   UNL     1      40.560 -32.326   1.965  1.00  0.00     0.040 A 
HETATM   27  C   UNL     1      38.991 -32.552   5.103  1.00  0.00     0.352 A 
HETATM   28  C   UNL     1      41.529 -31.385   1.600  1.00  0.00     0.012 A 
ENDBRANCH  19  20
ENDBRANCH  16  19
ENDBRANCH   2  15
BRANCH   1  29
HETATM   29  C   UNL     1      47.572 -29.485   0.644  1.00  0.00     0.043 A 
HETATM   30  C   UNL     1      47.247 -28.680   1.741  1.00  0.00     0.032 A 
HETATM   31  C   UNL     1      48.009 -28.728   2.919  1.00  0.00     0.039 A 
HETATM   32  C   UNL     1      49.114 -29.572   3.006  1.00  0.00     0.068 A 
HETATM   33  C   UNL     1      49.466 -30.346   1.903  1.00  0.00     0.039 A 
HETATM   34  C   UNL     1      48.703 -30.303   0.733  1.00  0.00     0.032 A 
BRANCH  32  35
HETATM   35  O   UNL     1      49.937 -29.716   4.087  1.00  0.00    -0.352 OA
BRANCH  35  36
HETATM   36  C   UNL     1      50.977 -30.687   3.981  1.00  0.00     0.171 C 
HETATM   37  C   UNL     1      51.437 -31.023   5.388  1.00  0.00     0.034 C 
ENDBRANCH  35  36
ENDBRANCH  32  35
ENDBRANCH   1  29
TORSDOF 7
ENDMDL
MODEL 10
REMARK VINA RESULT:      -7.7      2.451      6.541
REMARK  7 active torsions:
REMARK  status: ('A' for Active; 'I' for Inactive)
REMARK    1  A    between atoms: C_2  and  O_3 
REMARK    2  A    between atoms: O_3  and  C_4 
REMARK    3  A    between atoms: C_7  and  N_8 
REMARK    4  A    between atoms: C_9  and  O_10 
REMARK    5  A    between atoms: C_9  and  C_11 
REMARK       I    between atoms: C_11  and  N_12 
REMARK    6  A    between atoms: N_12  and  C_13 
REMARK    7  A    between atoms: C_13  and  C_14 
ROOT
HETATM    1  N   UNL     1      40.824 -13.921   2.399  1.00  0.00    -0.254 N 
HETATM    2  C   UNL     1      42.178 -14.142   2.938  1.00  0.00     0.256 C 
HETATM    3  C   UNL     1      42.168 -15.002   4.182  1.00  0.00     0.034 A 
HETATM    4  C   UNL     1      41.038 -14.950   4.992  1.00  0.00     0.048 A 
HETATM    5  N   UNL     1      39.955 -14.183   4.569  1.00  0.00    -0.308 N 
HETATM    6  C   UNL     1      39.783 -13.702   3.294  1.00  0.00     0.330 C 
HETATM    7  O   UNL     1      38.702 -13.177   3.031  1.00  0.00    -0.246 OA
HETATM    8  C   UNL     1      43.266 -15.768   4.603  1.00  0.00     0.015 A 
HETATM    9  C   UNL     1      43.216 -16.472   5.807  1.00  0.00     0.001 A 
HETATM   10  C   UNL     1      42.077 -16.400   6.609  1.00  0.00     0.002 A 
HETATM   11  C   UNL     1      40.987 -15.630   6.207  1.00  0.00     0.030 A 
HETATM   12  H   UNL     1      39.124 -14.123   5.145  1.00  0.00     0.170 HD
ENDROOT
BRANCH   2  13
HETATM   13  O   UNL     1      43.009 -14.812   1.983  1.00  0.00    -0.359 OA
HETATM   14  H   UNL     1      43.459 -15.509   2.500  1.00  0.00     0.213 HD
ENDBRANCH   2  13
BRANCH   2  15
HETATM   15  C   UNL     1      42.833 -12.729   3.248  1.00  0.00     0.279 C 
HETATM   16  N   UNL     1      42.165 -11.893   4.117  1.00  0.00    -0.352 N 
HETATM   17  H   UNL     1      41.336 -12.224   4.597  1.00  0.00     0.162 HD
HETATM   18  O   UNL     1      43.895 -12.394   2.712  1.00  0.00    -0.268 OA
BRANCH  16  19
HETATM   19  C   UNL     1      42.719 -10.623   4.516  1.00  0.00     0.161 C 
BRANCH  19  20
HETATM   20  C   UNL     1      43.421 -10.742   5.842  1.00  0.00    -0.038 A 
HETATM   21  C   UNL     1      42.822 -10.232   7.007  1.00  0.00     0.048 A 
HETATM   22  C   UNL     1      43.515 -10.338   8.194  1.00  0.00     0.105 A 
HETATM   23  C   UNL     1      44.760 -10.915   8.259  1.00  0.00     0.105 A 
HETATM   24  O   UNL     1      43.083  -9.901   9.408  1.00  0.00    -0.323 OA
HETATM   25  O   UNL     1      45.267 -10.918   9.521  1.00  0.00    -0.323 OA
HETATM   26  C   UNL     1      45.387 -11.414   7.138  1.00  0.00     0.040 A 
HETATM   27  C   UNL     1      44.191 -10.288  10.247  1.00  0.00     0.352 A 
HETATM   28  C   UNL     1      44.709 -11.322   5.918  1.00  0.00     0.012 A 
ENDBRANCH  19  20
ENDBRANCH  16  19
ENDBRANCH   2  15
BRANCH   1  29
HETATM   29  C   UNL     1      40.677 -13.550   1.025  1.00  0.00     0.043 A 
HETATM   30  C   UNL     1      40.260 -14.464   0.052  1.00  0.00     0.032 A 
HETATM   31  C   UNL     1      40.127 -14.075  -1.290  1.00  0.00     0.039 A 
HETATM   32  C   UNL     1      40.425 -12.770  -1.676  1.00  0.00     0.068 A 
HETATM   33  C   UNL     1      40.880 -11.866  -0.718  1.00  0.00     0.039 A 
HETATM   34  C   UNL     1      41.005 -12.252   0.618  1.00  0.00     0.032 A 
BRANCH  32  35
HETATM   35  O   UNL     1      40.339 -12.262  -2.942  1.00  0.00    -0.352 OA
BRANCH  35  36
HETATM   36  C   UNL     1      40.878 -10.958  -3.150  1.00  0.00     0.171 C 
HETATM   37  C   UNL     1      39.741 -10.057  -3.598  1.00  0.00     0.034 C 
ENDBRANCH  35  36
ENDBRANCH  32  35
ENDBRANCH   1  29
TORSDOF 7
ENDMDL
