MODEL 1
REMARK VINA RESULT:      -8.9      0.000      0.000
REMARK  6 active torsions:
REMARK  status: ('A' for Active; 'I' for Inactive)
REMARK    1  A    between atoms: O_2  and  C_3 
REMARK    2  A    between atoms: C_5  and  O_6 
REMARK    3  A    between atoms: C_8  and  N_9 
REMARK       I    between atoms: N_9  and  C_10 
REMARK    4  A    between atoms: C_10  and  C_11 
REMARK    5  A    between atoms: C_11  and  N_12 
REMARK    6  A    between atoms: C_17  and  C_18 
ROOT
HETATM    1  N   UNL     1      43.334 -16.394   5.570  1.00  0.00    -0.326 N 
HETATM    2  C   UNL     1      43.601 -17.682   6.022  1.00  0.00     0.255 C 
HETATM    3  O   UNL     1      43.853 -18.036   7.158  1.00  0.00    -0.267 OA
HETATM    4  C   UNL     1      43.619 -18.566   4.850  1.00  0.00     0.040 A 
HETATM    5  C   UNL     1      43.436 -17.783   3.712  1.00  0.00    -0.015 A 
HETATM    6  C   UNL     1      43.334 -16.346   4.115  1.00  0.00     0.158 C 
HETATM    7  C   UNL     1      43.858 -19.927   4.792  1.00  0.00     0.017 A 
HETATM    8  C   UNL     1      43.901 -20.518   3.528  1.00  0.00     0.001 A 
HETATM    9  C   UNL     1      43.707 -19.743   2.369  1.00  0.00     0.001 A 
HETATM   10  C   UNL     1      43.479 -18.366   2.454  1.00  0.00     0.011 A 
ENDROOT
BRANCH   1  11
HETATM   11  C   UNL     1      43.816 -15.253   6.332  1.00  0.00     0.230 C 
BRANCH  11  12
HETATM   12  C   UNL     1      42.926 -14.008   6.379  1.00  0.00     0.240 C 
HETATM   13  N   UNL     1      43.582 -12.818   6.122  1.00  0.00    -0.323 N 
HETATM   14  H   UNL     1      44.554 -12.880   5.830  1.00  0.00     0.169 HD
HETATM   15  O   UNL     1      41.781 -14.117   6.817  1.00  0.00    -0.271 OA
BRANCH  13  16
HETATM   16  C   UNL     1      43.087 -11.505   6.322  1.00  0.00     0.068 A 
HETATM   17  C   UNL     1      43.580 -10.759   7.413  1.00  0.00     0.097 A 
HETATM   18  C   UNL     1      43.047  -9.489   7.698  1.00  0.00     0.075 A 
HETATM   19  C   UNL     1      42.049  -8.942   6.888  1.00  0.00     0.070 A 
HETATM   20  C   UNL     1      41.609  -9.654   5.777  1.00  0.00     0.039 A 
HETATM   21  C   UNL     1      42.117 -10.926   5.499  1.00  0.00     0.035 A 
BRANCH  17  22
HETATM   22  O   UNL     1      44.566 -11.363   8.163  1.00  0.00    -0.354 OA
HETATM   23  C   UNL     1      45.840 -10.729   8.166  1.00  0.00     0.210 C 
ENDBRANCH  17  22
BRANCH  19  24
HETATM   24  O   UNL     1      41.445  -7.728   7.064  1.00  0.00    -0.356 OA
HETATM   25  C   UNL     1      41.575  -6.786   6.007  1.00  0.00     0.210 C 
ENDBRANCH  19  24
ENDBRANCH  13  16
ENDBRANCH  11  12
ENDBRANCH   1  11
BRANCH   6  26
HETATM   26  C   UNL     1      42.039 -15.796   3.625  1.00  0.00    -0.003 A 
HETATM   27  C   UNL     1      41.858 -14.512   3.007  1.00  0.00     0.001 A 
HETATM   28  C   UNL     1      40.494 -14.344   2.772  1.00  0.00     0.043 A 
HETATM   29  C   UNL     1      42.733 -13.465   2.644  1.00  0.00     0.014 A 
HETATM   30  C   UNL     1      39.957 -13.182   2.207  1.00  0.00     0.030 A 
HETATM   31  N   UNL     1      39.866 -15.488   3.199  1.00  0.00    -0.365 N 
HETATM   32  C   UNL     1      40.845 -12.159   1.863  1.00  0.00     0.002 A 
HETATM   33  C   UNL     1      42.214 -12.298   2.072  1.00  0.00     0.001 A 
HETATM   34  H   UNL     1      38.869 -15.644   3.155  1.00  0.00     0.165 HD
HETATM   35  C   UNL     1      40.778 -16.367   3.712  1.00  0.00     0.099 A 
ENDBRANCH   6  26
TORSDOF 6
ENDMDL
MODEL 2
REMARK VINA RESULT:      -8.6      3.297      7.575
REMARK  6 active torsions:
REMARK  status: ('A' for Active; 'I' for Inactive)
REMARK    1  A    between atoms: O_2  and  C_3 
REMARK    2  A    between atoms: C_5  and  O_6 
REMARK    3  A    between atoms: C_8  and  N_9 
REMARK       I    between atoms: N_9  and  C_10 
REMARK    4  A    between atoms: C_10  and  C_11 
REMARK    5  A    between atoms: C_11  and  N_12 
REMARK    6  A    between atoms: C_17  and  C_18 
ROOT
HETATM    1  N   UNL     1      41.367 -11.365   5.096  1.00  0.00    -0.326 N 
HETATM    2  C   UNL     1      41.517 -10.493   6.170  1.00  0.00     0.255 C 
HETATM    3  O   UNL     1      40.721  -9.670   6.579  1.00  0.00    -0.267 OA
HETATM    4  C   UNL     1      42.877 -10.671   6.696  1.00  0.00     0.040 A 
HETATM    5  C   UNL     1      43.541 -11.589   5.884  1.00  0.00    -0.015 A 
HETATM    6  C   UNL     1      42.632 -12.008   4.771  1.00  0.00     0.158 C 
HETATM    7  C   UNL     1      43.495 -10.016   7.745  1.00  0.00     0.017 A 
HETATM    8  C   UNL     1      44.837 -10.316   7.988  1.00  0.00     0.001 A 
HETATM    9  C   UNL     1      45.518 -11.250   7.185  1.00  0.00     0.001 A 
HETATM   10  C   UNL     1      44.874 -11.889   6.121  1.00  0.00     0.011 A 
ENDROOT
BRANCH   1  11
HETATM   11  C   UNL     1      40.427 -11.040   4.036  1.00  0.00     0.230 C 
BRANCH  11  12
HETATM   12  C   UNL     1      39.974 -12.179   3.119  1.00  0.00     0.240 C 
HETATM   13  N   UNL     1      40.476 -12.120   1.832  1.00  0.00    -0.323 N 
HETATM   14  H   UNL     1      41.166 -11.399   1.637  1.00  0.00     0.169 HD
HETATM   15  O   UNL     1      39.078 -12.929   3.508  1.00  0.00    -0.271 OA
BRANCH  13  16
HETATM   16  C   UNL     1      40.058 -12.884   0.713  1.00  0.00     0.068 A 
HETATM   17  C   UNL     1      39.342 -12.234  -0.316  1.00  0.00     0.097 A 
HETATM   18  C   UNL     1      38.832 -12.975  -1.396  1.00  0.00     0.075 A 
HETATM   19  C   UNL     1      39.054 -14.351  -1.479  1.00  0.00     0.070 A 
HETATM   20  C   UNL     1      39.813 -14.978  -0.496  1.00  0.00     0.039 A 
HETATM   21  C   UNL     1      40.305 -14.254   0.593  1.00  0.00     0.035 A 
BRANCH  17  22
HETATM   22  O   UNL     1      39.167 -10.876  -0.166  1.00  0.00    -0.354 OA
HETATM   23  C   UNL     1      38.820 -10.146  -1.338  1.00  0.00     0.210 C 
ENDBRANCH  17  22
BRANCH  19  24
HETATM   24  O   UNL     1      38.605 -15.181  -2.469  1.00  0.00    -0.356 OA
HETATM   25  C   UNL     1      38.200 -14.570  -3.687  1.00  0.00     0.210 C 
ENDBRANCH  19  24
ENDBRANCH  13  16
ENDBRANCH  11  12
ENDBRANCH   1  11
BRANCH   6  26
HETATM   26  C   UNL     1      42.473 -13.489   4.807  1.00  0.00    -0.003 A 
HETATM   27  C   UNL     1      42.807 -14.390   3.740  1.00  0.00     0.001 A 
HETATM   28  C   UNL     1      42.433 -15.673   4.137  1.00  0.00     0.043 A 
HETATM   29  C   UNL     1      43.377 -14.227   2.459  1.00  0.00     0.014 A 
HETATM   30  C   UNL     1      42.585 -16.798   3.318  1.00  0.00     0.030 A 
HETATM   31  N   UNL     1      41.919 -15.570   5.407  1.00  0.00    -0.365 N 
HETATM   32  C   UNL     1      43.147 -16.607   2.053  1.00  0.00     0.002 A 
HETATM   33  C   UNL     1      43.543 -15.341   1.629  1.00  0.00     0.001 A 
HETATM   34  H   UNL     1      41.562 -16.348   5.944  1.00  0.00     0.165 HD
HETATM   35  C   UNL     1      41.936 -14.268   5.821  1.00  0.00     0.099 A 
ENDBRANCH   6  26
TORSDOF 6
ENDMDL
MODEL 3
REMARK VINA RESULT:      -8.6      3.877      6.820
REMARK  6 active torsions:
REMARK  status: ('A' for Active; 'I' for Inactive)
REMARK    1  A    between atoms: O_2  and  C_3 
REMARK    2  A    between atoms: C_5  and  O_6 
REMARK    3  A    between atoms: C_8  and  N_9 
REMARK       I    between atoms: N_9  and  C_10 
REMARK    4  A    between atoms: C_10  and  C_11 
REMARK    5  A    between atoms: C_11  and  N_12 
REMARK    6  A    between atoms: C_17  and  C_18 
ROOT
HETATM    1  N   UNL     1      41.005 -14.718   2.802  1.00  0.00    -0.326 N 
HETATM    2  C   UNL     1      41.147 -15.897   2.077  1.00  0.00     0.255 C 
HETATM    3  O   UNL     1      40.486 -16.271   1.127  1.00  0.00    -0.267 OA
HETATM    4  C   UNL     1      42.204 -16.687   2.721  1.00  0.00     0.040 A 
HETATM    5  C   UNL     1      42.624 -16.004   3.861  1.00  0.00    -0.015 A 
HETATM    6  C   UNL     1      41.814 -14.755   4.012  1.00  0.00     0.158 C 
HETATM    7  C   UNL     1      42.689 -17.934   2.376  1.00  0.00     0.017 A 
HETATM    8  C   UNL     1      43.649 -18.506   3.214  1.00  0.00     0.001 A 
HETATM    9  C   UNL     1      44.092 -17.824   4.362  1.00  0.00     0.001 A 
HETATM   10  C   UNL     1      43.577 -16.567   4.697  1.00  0.00     0.011 A 
ENDROOT
BRANCH   1  11
HETATM   11  C   UNL     1      39.724 -14.031   2.809  1.00  0.00     0.230 C 
BRANCH  11  12
HETATM   12  C   UNL     1      39.489 -12.965   1.736  1.00  0.00     0.240 C 
HETATM   13  N   UNL     1      40.040 -13.256   0.500  1.00  0.00    -0.323 N 
HETATM   14  H   UNL     1      40.456 -14.176   0.385  1.00  0.00     0.169 HD
HETATM   15  O   UNL     1      39.020 -11.878   2.075  1.00  0.00    -0.271 OA
BRANCH  13  16
HETATM   16  C   UNL     1      40.189 -12.375  -0.601  1.00  0.00     0.068 A 
HETATM   17  C   UNL     1      39.444 -12.629  -1.772  1.00  0.00     0.097 A 
HETATM   18  C   UNL     1      39.633 -11.833  -2.915  1.00  0.00     0.075 A 
HETATM   19  C   UNL     1      40.534 -10.767  -2.894  1.00  0.00     0.070 A 
HETATM   20  C   UNL     1      41.222 -10.481  -1.719  1.00  0.00     0.039 A 
HETATM   21  C   UNL     1      41.057 -11.280  -0.585  1.00  0.00     0.035 A 
BRANCH  17  22
HETATM   22  O   UNL     1      38.572 -13.695  -1.714  1.00  0.00    -0.354 OA
HETATM   23  C   UNL     1      38.852 -14.792  -2.577  1.00  0.00     0.210 C 
ENDBRANCH  17  22
BRANCH  19  24
HETATM   24  O   UNL     1      40.814  -9.929  -3.938  1.00  0.00    -0.356 OA
HETATM   25  C   UNL     1      41.276  -8.624  -3.610  1.00  0.00     0.210 C 
ENDBRANCH  19  24
ENDBRANCH  13  16
ENDBRANCH  11  12
ENDBRANCH   1  11
BRANCH   6  26
HETATM   26  C   UNL     1      42.732 -13.582   4.045  1.00  0.00    -0.003 A 
HETATM   27  C   UNL     1      43.318 -13.014   5.227  1.00  0.00     0.001 A 
HETATM   28  C   UNL     1      44.043 -11.887   4.840  1.00  0.00     0.043 A 
HETATM   29  C   UNL     1      43.282 -13.346   6.599  1.00  0.00     0.014 A 
HETATM   30  C   UNL     1      44.719 -11.068   5.752  1.00  0.00     0.030 A 
HETATM   31  N   UNL     1      43.932 -11.783   3.475  1.00  0.00    -0.365 N 
HETATM   32  C   UNL     1      44.661 -11.417   7.103  1.00  0.00     0.002 A 
HETATM   33  C   UNL     1      43.958 -12.543   7.523  1.00  0.00     0.001 A 
HETATM   34  H   UNL     1      44.354 -11.052   2.921  1.00  0.00     0.165 HD
HETATM   35  C   UNL     1      43.150 -12.791   2.985  1.00  0.00     0.099 A 
ENDBRANCH   6  26
TORSDOF 6
ENDMDL
MODEL 4
REMARK VINA RESULT:      -8.4      3.590      6.000
REMARK  6 active torsions:
REMARK  status: ('A' for Active; 'I' for Inactive)
REMARK    1  A    between atoms: O_2  and  C_3 
REMARK    2  A    between atoms: C_5  and  O_6 
REMARK    3  A    between atoms: C_8  and  N_9 
REMARK       I    between atoms: N_9  and  C_10 
REMARK    4  A    between atoms: C_10  and  C_11 
REMARK    5  A    between atoms: C_11  and  N_12 
REMARK    6  A    between atoms: C_17  and  C_18 
ROOT
HETATM    1  N   UNL     1      41.293 -15.577   2.804  1.00  0.00    -0.326 N 
HETATM    2  C   UNL     1      42.407 -16.334   2.455  1.00  0.00     0.255 C 
HETATM    3  O   UNL     1      42.831 -16.564   1.340  1.00  0.00    -0.267 OA
HETATM    4  C   UNL     1      42.956 -16.906   3.691  1.00  0.00     0.040 A 
HETATM    5  C   UNL     1      42.121 -16.544   4.747  1.00  0.00    -0.015 A 
HETATM    6  C   UNL     1      40.970 -15.750   4.213  1.00  0.00     0.158 C 
HETATM    7  C   UNL     1      44.046 -17.740   3.853  1.00  0.00     0.017 A 
HETATM    8  C   UNL     1      44.308 -18.214   5.140  1.00  0.00     0.001 A 
HETATM    9  C   UNL     1      43.481 -17.848   6.219  1.00  0.00     0.001 A 
HETATM   10  C   UNL     1      42.376 -17.013   6.027  1.00  0.00     0.011 A 
ENDROOT
BRANCH   1  11
HETATM   11  C   UNL     1      40.226 -15.384   1.836  1.00  0.00     0.230 C 
BRANCH  11  12
HETATM   12  C   UNL     1      40.007 -13.968   1.298  1.00  0.00     0.240 C 
HETATM   13  N   UNL     1      40.820 -13.620   0.234  1.00  0.00    -0.323 N 
HETATM   14  H   UNL     1      41.408 -14.352  -0.156  1.00  0.00     0.169 HD
HETATM   15  O   UNL     1      39.296 -13.195   1.941  1.00  0.00    -0.271 OA
BRANCH  13  16
HETATM   16  C   UNL     1      41.011 -12.326  -0.312  1.00  0.00     0.068 A 
HETATM   17  C   UNL     1      40.860 -12.155  -1.705  1.00  0.00     0.097 A 
HETATM   18  C   UNL     1      41.130 -10.908  -2.296  1.00  0.00     0.075 A 
HETATM   19  C   UNL     1      41.519  -9.822  -1.510  1.00  0.00     0.070 A 
HETATM   20  C   UNL     1      41.607  -9.978  -0.130  1.00  0.00     0.039 A 
HETATM   21  C   UNL     1      41.362 -11.218   0.463  1.00  0.00     0.035 A 
BRANCH  17  22
HETATM   22  O   UNL     1      40.469 -13.271  -2.413  1.00  0.00    -0.354 OA
HETATM   23  C   UNL     1      39.170 -13.234  -2.992  1.00  0.00     0.210 C 
ENDBRANCH  17  22
BRANCH  19  24
HETATM   24  O   UNL     1      41.818  -8.567  -1.963  1.00  0.00    -0.356 OA
HETATM   25  C   UNL     1      43.046  -8.000  -1.523  1.00  0.00     0.210 C 
ENDBRANCH  19  24
ENDBRANCH  13  16
ENDBRANCH  11  12
ENDBRANCH   1  11
BRANCH   6  26
HETATM   26  C   UNL     1      40.938 -14.424   4.893  1.00  0.00    -0.003 A 
HETATM   27  C   UNL     1      41.768 -13.299   4.567  1.00  0.00     0.001 A 
HETATM   28  C   UNL     1      41.489 -12.287   5.484  1.00  0.00     0.043 A 
HETATM   29  C   UNL     1      42.751 -13.056   3.583  1.00  0.00     0.014 A 
HETATM   30  C   UNL     1      42.149 -11.053   5.480  1.00  0.00     0.030 A 
HETATM   31  N   UNL     1      40.507 -12.758   6.321  1.00  0.00    -0.365 N 
HETATM   32  C   UNL     1      43.120 -10.841   4.498  1.00  0.00     0.002 A 
HETATM   33  C   UNL     1      43.415 -11.825   3.559  1.00  0.00     0.001 A 
HETATM   34  H   UNL     1      40.111 -12.236   7.090  1.00  0.00     0.165 HD
HETATM   35  C   UNL     1      40.167 -14.037   5.979  1.00  0.00     0.099 A 
ENDBRANCH   6  26
TORSDOF 6
ENDMDL
MODEL 5
REMARK VINA RESULT:      -8.3      3.236      7.142
REMARK  6 active torsions:
REMARK  status: ('A' for Active; 'I' for Inactive)
REMARK    1  A    between atoms: O_2  and  C_3 
REMARK    2  A    between atoms: C_5  and  O_6 
REMARK    3  A    between atoms: C_8  and  N_9 
REMARK       I    between atoms: N_9  and  C_10 
REMARK    4  A    between atoms: C_10  and  C_11 
REMARK    5  A    between atoms: C_11  and  N_12 
REMARK    6  A    between atoms: C_17  and  C_18 
ROOT
HETATM    1  N   UNL     1      41.372 -15.006   4.451  1.00  0.00    -0.326 N 
HETATM    2  C   UNL     1      40.882 -13.787   4.909  1.00  0.00     0.255 C 
HETATM    3  O   UNL     1      39.797 -13.287   4.681  1.00  0.00    -0.267 OA
HETATM    4  C   UNL     1      41.959 -13.135   5.665  1.00  0.00     0.040 A 
HETATM    5  C   UNL     1      43.095 -13.938   5.585  1.00  0.00    -0.015 A 
HETATM    6  C   UNL     1      42.796 -15.130   4.731  1.00  0.00     0.158 C 
HETATM    7  C   UNL     1      41.956 -11.903   6.294  1.00  0.00     0.017 A 
HETATM    8  C   UNL     1      43.151 -11.477   6.877  1.00  0.00     0.001 A 
HETATM    9  C   UNL     1      44.304 -12.282   6.816  1.00  0.00     0.001 A 
HETATM   10  C   UNL     1      44.285 -13.518   6.163  1.00  0.00     0.011 A 
ENDROOT
BRANCH   1  11
HETATM   11  C   UNL     1      40.819 -15.592   3.242  1.00  0.00     0.230 C 
BRANCH  11  12
HETATM   12  C   UNL     1      41.038 -14.838   1.927  1.00  0.00     0.240 C 
HETATM   13  N   UNL     1      40.007 -13.989   1.569  1.00  0.00    -0.323 N 
HETATM   14  H   UNL     1      39.256 -13.864   2.242  1.00  0.00     0.169 HD
HETATM   15  O   UNL     1      41.981 -15.168   1.207  1.00  0.00    -0.271 OA
BRANCH  13  16
HETATM   16  C   UNL     1      39.819 -13.350   0.317  1.00  0.00     0.068 A 
HETATM   17  C   UNL     1      39.858 -11.939   0.269  1.00  0.00     0.097 A 
HETATM   18  C   UNL     1      39.586 -11.267  -0.935  1.00  0.00     0.075 A 
HETATM   19  C   UNL     1      39.305 -11.985  -2.099  1.00  0.00     0.070 A 
HETATM   20  C   UNL     1      39.328 -13.376  -2.062  1.00  0.00     0.039 A 
HETATM   21  C   UNL     1      39.575 -14.052  -0.866  1.00  0.00     0.035 A 
BRANCH  17  22
HETATM   22  O   UNL     1      40.146 -11.302   1.456  1.00  0.00    -0.354 OA
HETATM   23  C   UNL     1      39.112 -10.497   2.013  1.00  0.00     0.210 C 
ENDBRANCH  17  22
BRANCH  19  24
HETATM   24  O   UNL     1      39.015 -11.451  -3.324  1.00  0.00    -0.356 OA
HETATM   25  C   UNL     1      39.327 -10.078  -3.518  1.00  0.00     0.210 C 
ENDBRANCH  19  24
ENDBRANCH  13  16
ENDBRANCH  11  12
ENDBRANCH   1  11
BRANCH   6  26
HETATM   26  C   UNL     1      43.053 -16.368   5.519  1.00  0.00    -0.003 A 
HETATM   27  C   UNL     1      43.434 -17.640   4.972  1.00  0.00     0.001 A 
HETATM   28  C   UNL     1      43.496 -18.552   6.025  1.00  0.00     0.043 A 
HETATM   29  C   UNL     1      43.712 -18.106   3.669  1.00  0.00     0.014 A 
HETATM   30  C   UNL     1      43.807 -19.904   5.844  1.00  0.00     0.030 A 
HETATM   31  N   UNL     1      43.196 -17.863   7.175  1.00  0.00    -0.365 N 
HETATM   32  C   UNL     1      44.072 -20.339   4.543  1.00  0.00     0.002 A 
HETATM   33  C   UNL     1      44.032 -19.453   3.470  1.00  0.00     0.001 A 
HETATM   34  H   UNL     1      43.160 -18.275   8.096  1.00  0.00     0.165 HD
HETATM   35  C   UNL     1      42.929 -16.554   6.887  1.00  0.00     0.099 A 
ENDBRANCH   6  26
TORSDOF 6
ENDMDL
MODEL 6
REMARK VINA RESULT:      -8.2      2.565      5.381
REMARK  6 active torsions:
REMARK  status: ('A' for Active; 'I' for Inactive)
REMARK    1  A    between atoms: O_2  and  C_3 
REMARK    2  A    between atoms: C_5  and  O_6 
REMARK    3  A    between atoms: C_8  and  N_9 
REMARK       I    between atoms: N_9  and  C_10 
REMARK    4  A    between atoms: C_10  and  C_11 
REMARK    5  A    between atoms: C_11  and  N_12 
REMARK    6  A    between atoms: C_17  and  C_18 
ROOT
HETATM    1  N   UNL     1      43.820 -12.616   5.903  1.00  0.00    -0.326 N 
HETATM    2  C   UNL     1      43.267 -11.655   5.063  1.00  0.00     0.255 C 
HETATM    3  O   UNL     1      43.834 -10.730   4.513  1.00  0.00    -0.267 OA
HETATM    4  C   UNL     1      41.819 -11.892   5.014  1.00  0.00     0.040 A 
HETATM    5  C   UNL     1      41.520 -12.941   5.882  1.00  0.00    -0.015 A 
HETATM    6  C   UNL     1      42.777 -13.393   6.557  1.00  0.00     0.158 C 
HETATM    7  C   UNL     1      40.845 -11.189   4.329  1.00  0.00     0.017 A 
HETATM    8  C   UNL     1      39.517 -11.574   4.523  1.00  0.00     0.001 A 
HETATM    9  C   UNL     1      39.200 -12.639   5.387  1.00  0.00     0.001 A 
HETATM   10  C   UNL     1      40.203 -13.327   6.079  1.00  0.00     0.011 A 
ENDROOT
BRANCH   1  11
HETATM   11  C   UNL     1      45.055 -12.322   6.611  1.00  0.00     0.230 C 
BRANCH  11  12
HETATM   12  C   UNL     1      45.041 -11.156   7.603  1.00  0.00     0.240 C 
HETATM   13  N   UNL     1      44.030 -11.211   8.546  1.00  0.00    -0.323 N 
HETATM   14  H   UNL     1      43.459 -12.051   8.562  1.00  0.00     0.169 HD
HETATM   15  O   UNL     1      45.772 -10.189   7.389  1.00  0.00    -0.271 OA
BRANCH  13  16
HETATM   16  C   UNL     1      43.625 -10.178   9.429  1.00  0.00     0.068 A 
HETATM   17  C   UNL     1      42.535  -9.362   9.054  1.00  0.00     0.097 A 
HETATM   18  C   UNL     1      42.162  -8.272   9.859  1.00  0.00     0.075 A 
HETATM   19  C   UNL     1      42.842  -8.004  11.049  1.00  0.00     0.070 A 
HETATM   20  C   UNL     1      43.875  -8.847  11.446  1.00  0.00     0.039 A 
HETATM   21  C   UNL     1      44.268  -9.920  10.642  1.00  0.00     0.035 A 
BRANCH  17  22
HETATM   22  O   UNL     1      41.912  -9.691   7.870  1.00  0.00    -0.354 OA
HETATM   23  C   UNL     1      40.533  -9.356   7.763  1.00  0.00     0.210 C 
ENDBRANCH  17  22
BRANCH  19  24
HETATM   24  O   UNL     1      42.583  -6.974  11.910  1.00  0.00    -0.356 OA
HETATM   25  C   UNL     1      41.786  -5.906  11.415  1.00  0.00     0.210 C 
ENDBRANCH  19  24
ENDBRANCH  13  16
ENDBRANCH  11  12
ENDBRANCH   1  11
BRANCH   6  26
HETATM   26  C   UNL     1      42.979 -14.844   6.284  1.00  0.00    -0.003 A 
HETATM   27  C   UNL     1      43.088 -15.441   4.983  1.00  0.00     0.001 A 
HETATM   28  C   UNL     1      43.186 -16.821   5.157  1.00  0.00     0.043 A 
HETATM   29  C   UNL     1      43.093 -14.932   3.666  1.00  0.00     0.014 A 
HETATM   30  C   UNL     1      43.272 -17.718   4.087  1.00  0.00     0.030 A 
HETATM   31  N   UNL     1      43.168 -17.060   6.509  1.00  0.00    -0.365 N 
HETATM   32  C   UNL     1      43.269 -17.187   2.794  1.00  0.00     0.002 A 
HETATM   33  C   UNL     1      43.185 -15.814   2.584  1.00  0.00     0.001 A 
HETATM   34  H   UNL     1      43.219 -17.978   6.928  1.00  0.00     0.165 HD
HETATM   35  C   UNL     1      43.045 -15.886   7.197  1.00  0.00     0.099 A 
ENDBRANCH   6  26
TORSDOF 6
ENDMDL
MODEL 7
REMARK VINA RESULT:      -8.2      2.256      7.673
REMARK  6 active torsions:
REMARK  status: ('A' for Active; 'I' for Inactive)
REMARK    1  A    between atoms: O_2  and  C_3 
REMARK    2  A    between atoms: C_5  and  O_6 
REMARK    3  A    between atoms: C_8  and  N_9 
REMARK       I    between atoms: N_9  and  C_10 
REMARK    4  A    between atoms: C_10  and  C_11 
REMARK    5  A    between atoms: C_11  and  N_12 
REMARK    6  A    between atoms: C_17  and  C_18 
ROOT
HETATM    1  N   UNL     1      42.141 -13.306   6.244  1.00  0.00    -0.326 N 
HETATM    2  C   UNL     1      41.190 -13.748   5.329  1.00  0.00     0.255 C 
HETATM    3  O   UNL     1      40.431 -14.691   5.440  1.00  0.00    -0.267 OA
HETATM    4  C   UNL     1      41.317 -12.916   4.125  1.00  0.00     0.040 A 
HETATM    5  C   UNL     1      42.387 -12.043   4.310  1.00  0.00    -0.015 A 
HETATM    6  C   UNL     1      43.018 -12.313   5.640  1.00  0.00     0.158 C 
HETATM    7  C   UNL     1      40.604 -12.985   2.942  1.00  0.00     0.017 A 
HETATM    8  C   UNL     1      40.984 -12.124   1.912  1.00  0.00     0.001 A 
HETATM    9  C   UNL     1      42.055 -11.227   2.087  1.00  0.00     0.001 A 
HETATM   10  C   UNL     1      42.769 -11.185   3.289  1.00  0.00     0.011 A 
ENDROOT
BRANCH   1  11
HETATM   11  C   UNL     1      42.668 -14.232   7.232  1.00  0.00     0.230 C 
BRANCH  11  12
HETATM   12  C   UNL     1      42.898 -15.680   6.791  1.00  0.00     0.240 C 
HETATM   13  N   UNL     1      43.608 -15.820   5.612  1.00  0.00    -0.323 N 
HETATM   14  H   UNL     1      43.994 -14.974   5.202  1.00  0.00     0.169 HD
HETATM   15  O   UNL     1      42.296 -16.580   7.378  1.00  0.00    -0.271 OA
BRANCH  13  16
HETATM   16  C   UNL     1      43.770 -17.001   4.844  1.00  0.00     0.068 A 
HETATM   17  C   UNL     1      43.537 -16.936   3.454  1.00  0.00     0.097 A 
HETATM   18  C   UNL     1      43.598 -18.104   2.674  1.00  0.00     0.075 A 
HETATM   19  C   UNL     1      43.920 -19.331   3.258  1.00  0.00     0.070 A 
HETATM   20  C   UNL     1      44.210 -19.380   4.618  1.00  0.00     0.039 A 
HETATM   21  C   UNL     1      44.130 -18.229   5.406  1.00  0.00     0.035 A 
BRANCH  17  22
HETATM   22  O   UNL     1      43.229 -15.692   2.949  1.00  0.00    -0.354 OA
HETATM   23  C   UNL     1      43.274 -15.550   1.534  1.00  0.00     0.210 C 
ENDBRANCH  17  22
BRANCH  19  24
HETATM   24  O   UNL     1      44.002 -20.533   2.613  1.00  0.00    -0.356 OA
HETATM   25  C   UNL     1      43.390 -20.620   1.333  1.00  0.00     0.210 C 
ENDBRANCH  19  24
ENDBRANCH  13  16
ENDBRANCH  11  12
ENDBRANCH   1  11
BRANCH   6  26
HETATM   26  C   UNL     1      43.000 -11.062   6.449  1.00  0.00    -0.003 A 
HETATM   27  C   UNL     1      44.137 -10.474   7.101  1.00  0.00     0.001 A 
HETATM   28  C   UNL     1      43.687  -9.365   7.816  1.00  0.00     0.043 A 
HETATM   29  C   UNL     1      45.509 -10.799   7.165  1.00  0.00     0.014 A 
HETATM   30  C   UNL     1      44.532  -8.572   8.602  1.00  0.00     0.030 A 
HETATM   31  N   UNL     1      42.337  -9.256   7.588  1.00  0.00    -0.365 N 
HETATM   32  C   UNL     1      45.885  -8.920   8.652  1.00  0.00     0.002 A 
HETATM   33  C   UNL     1      46.369 -10.014   7.940  1.00  0.00     0.001 A 
HETATM   34  H   UNL     1      41.745  -8.541   7.988  1.00  0.00     0.165 HD
HETATM   35  C   UNL     1      41.912 -10.265   6.772  1.00  0.00     0.099 A 
ENDBRANCH   6  26
TORSDOF 6
ENDMDL
MODEL 8
REMARK VINA RESULT:      -8.1      2.525      3.649
REMARK  6 active torsions:
REMARK  status: ('A' for Active; 'I' for Inactive)
REMARK    1  A    between atoms: O_2  and  C_3 
REMARK    2  A    between atoms: C_5  and  O_6 
REMARK    3  A    between atoms: C_8  and  N_9 
REMARK       I    between atoms: N_9  and  C_10 
REMARK    4  A    between atoms: C_10  and  C_11 
REMARK    5  A    between atoms: C_11  and  N_12 
REMARK    6  A    between atoms: C_17  and  C_18 
ROOT
HETATM    1  N   UNL     1      40.711 -13.532   2.941  1.00  0.00    -0.326 N 
HETATM    2  C   UNL     1      40.924 -14.358   4.040  1.00  0.00     0.255 C 
HETATM    3  O   UNL     1      40.550 -14.186   5.184  1.00  0.00    -0.267 OA
HETATM    4  C   UNL     1      41.781 -15.466   3.601  1.00  0.00     0.040 A 
HETATM    5  C   UNL     1      42.127 -15.247   2.269  1.00  0.00    -0.015 A 
HETATM    6  C   UNL     1      41.529 -13.953   1.812  1.00  0.00     0.158 C 
HETATM    7  C   UNL     1      42.277 -16.526   4.338  1.00  0.00     0.017 A 
HETATM    8  C   UNL     1      43.148 -17.406   3.693  1.00  0.00     0.001 A 
HETATM    9  C   UNL     1      43.498 -17.206   2.344  1.00  0.00     0.001 A 
HETATM   10  C   UNL     1      42.992 -16.118   1.624  1.00  0.00     0.011 A 
ENDROOT
BRANCH   1  11
HETATM   11  C   UNL     1      40.436 -12.121   3.147  1.00  0.00     0.230 C 
BRANCH  11  12
HETATM   12  C   UNL     1      41.507 -11.288   3.857  1.00  0.00     0.240 C 
HETATM   13  N   UNL     1      41.233 -11.002   5.182  1.00  0.00    -0.323 N 
HETATM   14  H   UNL     1      40.414 -11.444   5.591  1.00  0.00     0.169 HD
HETATM   15  O   UNL     1      42.404 -10.781   3.183  1.00  0.00    -0.271 OA
BRANCH  13  16
HETATM   16  C   UNL     1      41.906 -10.072   6.015  1.00  0.00     0.068 A 
HETATM   17  C   UNL     1      43.005 -10.524   6.777  1.00  0.00     0.097 A 
HETATM   18  C   UNL     1      43.640  -9.656   7.683  1.00  0.00     0.075 A 
HETATM   19  C   UNL     1      43.212  -8.334   7.814  1.00  0.00     0.070 A 
HETATM   20  C   UNL     1      42.168  -7.874   7.018  1.00  0.00     0.039 A 
HETATM   21  C   UNL     1      41.517  -8.735   6.131  1.00  0.00     0.035 A 
BRANCH  17  22
HETATM   22  O   UNL     1      43.371 -11.839   6.589  1.00  0.00    -0.354 OA
HETATM   23  C   UNL     1      44.699 -12.189   6.963  1.00  0.00     0.210 C 
ENDBRANCH  17  22
BRANCH  19  24
HETATM   24  O   UNL     1      43.737  -7.398   8.662  1.00  0.00    -0.356 OA
HETATM   25  C   UNL     1      42.813  -6.608   9.400  1.00  0.00     0.210 C 
ENDBRANCH  19  24
ENDBRANCH  13  16
ENDBRANCH  11  12
ENDBRANCH   1  11
BRANCH   6  26
HETATM   26  C   UNL     1      40.665 -14.211   0.626  1.00  0.00    -0.003 A 
HETATM   27  C   UNL     1      40.504 -13.328  -0.496  1.00  0.00     0.001 A 
HETATM   28  C   UNL     1      39.553 -13.894  -1.345  1.00  0.00     0.043 A 
HETATM   29  C   UNL     1      41.067 -12.086  -0.857  1.00  0.00     0.014 A 
HETATM   30  C   UNL     1      39.126 -13.277  -2.526  1.00  0.00     0.030 A 
HETATM   31  N   UNL     1      39.169 -15.088  -0.785  1.00  0.00    -0.365 N 
HETATM   32  C   UNL     1      39.696 -12.045  -2.856  1.00  0.00     0.002 A 
HETATM   33  C   UNL     1      40.657 -11.458  -2.038  1.00  0.00     0.001 A 
HETATM   34  H   UNL     1      38.482 -15.712  -1.184  1.00  0.00     0.165 HD
HETATM   35  C   UNL     1      39.826 -15.291   0.396  1.00  0.00     0.099 A 
ENDBRANCH   6  26
TORSDOF 6
ENDMDL
MODEL 9
REMARK VINA RESULT:      -8.1      3.940      6.576
REMARK  6 active torsions:
REMARK  status: ('A' for Active; 'I' for Inactive)
REMARK    1  A    between atoms: O_2  and  C_3 
REMARK    2  A    between atoms: C_5  and  O_6 
REMARK    3  A    between atoms: C_8  and  N_9 
REMARK       I    between atoms: N_9  and  C_10 
REMARK    4  A    between atoms: C_10  and  C_11 
REMARK    5  A    between atoms: C_11  and  N_12 
REMARK    6  A    between atoms: C_17  and  C_18 
ROOT
HETATM    1  N   UNL     1      41.083 -15.311   2.932  1.00  0.00    -0.326 N 
HETATM    2  C   UNL     1      42.158 -16.057   2.460  1.00  0.00     0.255 C 
HETATM    3  O   UNL     1      42.508 -16.212   1.306  1.00  0.00    -0.267 OA
HETATM    4  C   UNL     1      42.773 -16.724   3.615  1.00  0.00     0.040 A 
HETATM    5  C   UNL     1      42.013 -16.427   4.744  1.00  0.00    -0.015 A 
HETATM    6  C   UNL     1      40.846 -15.580   4.343  1.00  0.00     0.158 C 
HETATM    7  C   UNL     1      43.856 -17.583   3.647  1.00  0.00     0.017 A 
HETATM    8  C   UNL     1      44.189 -18.152   4.877  1.00  0.00     0.001 A 
HETATM    9  C   UNL     1      43.438 -17.853   6.030  1.00  0.00     0.001 A 
HETATM   10  C   UNL     1      42.339 -16.990   5.970  1.00  0.00     0.011 A 
ENDROOT
BRANCH   1  11
HETATM   11  C   UNL     1      39.961 -15.034   2.050  1.00  0.00     0.230 C 
BRANCH  11  12
HETATM   12  C   UNL     1      39.968 -13.702   1.295  1.00  0.00     0.240 C 
HETATM   13  N   UNL     1      39.249 -13.704   0.113  1.00  0.00    -0.323 N 
HETATM   14  H   UNL     1      38.707 -14.538  -0.097  1.00  0.00     0.169 HD
HETATM   15  O   UNL     1      40.738 -12.816   1.666  1.00  0.00    -0.271 OA
BRANCH  13  16
HETATM   16  C   UNL     1      39.264 -12.713  -0.901  1.00  0.00     0.068 A 
HETATM   17  C   UNL     1      38.288 -11.694  -0.860  1.00  0.00     0.097 A 
HETATM   18  C   UNL     1      38.214 -10.747  -1.897  1.00  0.00     0.075 A 
HETATM   19  C   UNL     1      39.121 -10.786  -2.958  1.00  0.00     0.070 A 
HETATM   20  C   UNL     1      40.120 -11.754  -2.963  1.00  0.00     0.039 A 
HETATM   21  C   UNL     1      40.188 -12.713  -1.949  1.00  0.00     0.035 A 
BRANCH  17  22
HETATM   22  O   UNL     1      37.432 -11.719   0.219  1.00  0.00    -0.354 OA
HETATM   23  C   UNL     1      37.564 -10.659   1.160  1.00  0.00     0.210 C 
ENDBRANCH  17  22
BRANCH  19  24
HETATM   24  O   UNL     1      39.148  -9.933  -4.026  1.00  0.00    -0.356 OA
HETATM   25  C   UNL     1      37.992  -9.132  -4.240  1.00  0.00     0.210 C 
ENDBRANCH  19  24
ENDBRANCH  13  16
ENDBRANCH  11  12
ENDBRANCH   1  11
BRANCH   6  26
HETATM   26  C   UNL     1      40.882 -14.307   5.116  1.00  0.00    -0.003 A 
HETATM   27  C   UNL     1      41.880 -13.282   4.989  1.00  0.00     0.001 A 
HETATM   28  C   UNL     1      41.601 -12.301   5.940  1.00  0.00     0.043 A 
HETATM   29  C   UNL     1      43.011 -13.109   4.163  1.00  0.00     0.014 A 
HETATM   30  C   UNL     1      42.400 -11.165   6.118  1.00  0.00     0.030 A 
HETATM   31  N   UNL     1      40.463 -12.690   6.603  1.00  0.00    -0.365 N 
HETATM   32  C   UNL     1      43.517 -11.023   5.290  1.00  0.00     0.002 A 
HETATM   33  C   UNL     1      43.817 -11.977   4.322  1.00  0.00     0.001 A 
HETATM   34  H   UNL     1      40.032 -12.170   7.354  1.00  0.00     0.165 HD
HETATM   35  C   UNL     1      40.021 -13.890   6.121  1.00  0.00     0.099 A 
ENDBRANCH   6  26
TORSDOF 6
ENDMDL
MODEL 10
REMARK VINA RESULT:      -7.8      4.535     10.139
REMARK  6 active torsions:
REMARK  status: ('A' for Active; 'I' for Inactive)
REMARK    1  A    between atoms: O_2  and  C_3 
REMARK    2  A    between atoms: C_5  and  O_6 
REMARK    3  A    between atoms: C_8  and  N_9 
REMARK       I    between atoms: N_9  and  C_10 
REMARK    4  A    between atoms: C_10  and  C_11 
REMARK    5  A    between atoms: C_11  and  N_12 
REMARK    6  A    between atoms: C_17  and  C_18 
ROOT
HETATM    1  N   UNL     1      41.717  -6.737  10.376  1.00  0.00    -0.326 N 
HETATM    2  C   UNL     1      40.751  -6.288  11.272  1.00  0.00     0.255 C 
HETATM    3  O   UNL     1      39.727  -5.683  11.021  1.00  0.00    -0.267 OA
HETATM    4  C   UNL     1      41.228  -6.595  12.626  1.00  0.00     0.040 A 
HETATM    5  C   UNL     1      42.501  -7.153  12.523  1.00  0.00    -0.015 A 
HETATM    6  C   UNL     1      42.908  -7.188  11.083  1.00  0.00     0.158 C 
HETATM    7  C   UNL     1      40.626  -6.327  13.841  1.00  0.00     0.017 A 
HETATM    8  C   UNL     1      41.338  -6.651  14.997  1.00  0.00     0.001 A 
HETATM    9  C   UNL     1      42.620  -7.226  14.910  1.00  0.00     0.001 A 
HETATM   10  C   UNL     1      43.213  -7.476  13.668  1.00  0.00     0.011 A 
ENDROOT
BRANCH   1  11
HETATM   11  C   UNL     1      41.846  -6.093   9.080  1.00  0.00     0.230 C 
BRANCH  11  12
HETATM   12  C   UNL     1      41.651  -6.964   7.836  1.00  0.00     0.240 C 
HETATM   13  N   UNL     1      40.883  -8.096   8.037  1.00  0.00    -0.323 N 
HETATM   14  H   UNL     1      40.439  -8.198   8.946  1.00  0.00     0.169 HD
HETATM   15  O   UNL     1      42.322  -6.720   6.833  1.00  0.00    -0.271 OA
BRANCH  13  16
HETATM   16  C   UNL     1      40.727  -9.195   7.154  1.00  0.00     0.068 A 
HETATM   17  C   UNL     1      39.491  -9.355   6.492  1.00  0.00     0.097 A 
HETATM   18  C   UNL     1      39.267 -10.481   5.680  1.00  0.00     0.075 A 
HETATM   19  C   UNL     1      40.272 -11.433   5.496  1.00  0.00     0.070 A 
HETATM   20  C   UNL     1      41.510 -11.239   6.100  1.00  0.00     0.039 A 
HETATM   21  C   UNL     1      41.735 -10.136   6.926  1.00  0.00     0.035 A 
BRANCH  17  22
HETATM   22  O   UNL     1      38.551  -8.374   6.719  1.00  0.00    -0.354 OA
HETATM   23  C   UNL     1      38.184  -7.574   5.601  1.00  0.00     0.210 C 
ENDBRANCH  17  22
BRANCH  19  24
HETATM   24  O   UNL     1      40.176 -12.570   4.743  1.00  0.00    -0.356 OA
HETATM   25  C   UNL     1      40.457 -13.801   5.398  1.00  0.00     0.210 C 
ENDBRANCH  19  24
ENDBRANCH  13  16
ENDBRANCH  11  12
ENDBRANCH   1  11
BRANCH   6  26
HETATM   26  C   UNL     1      43.222  -8.593  10.701  1.00  0.00    -0.003 A 
HETATM   27  C   UNL     1      44.189  -8.994   9.718  1.00  0.00     0.001 A 
HETATM   28  C   UNL     1      44.122 -10.382   9.600  1.00  0.00     0.043 A 
HETATM   29  C   UNL     1      45.105  -8.298   8.900  1.00  0.00     0.014 A 
HETATM   30  C   UNL     1      44.909 -11.108   8.699  1.00  0.00     0.030 A 
HETATM   31  N   UNL     1      43.176 -10.819  10.494  1.00  0.00    -0.365 N 
HETATM   32  C   UNL     1      45.802 -10.392   7.897  1.00  0.00     0.002 A 
HETATM   33  C   UNL     1      45.905  -9.008   7.998  1.00  0.00     0.001 A 
HETATM   34  H   UNL     1      42.912 -11.786  10.622  1.00  0.00     0.165 HD
HETATM   35  C   UNL     1      42.629  -9.759  11.161  1.00  0.00     0.099 A 
ENDBRANCH   6  26
TORSDOF 6
ENDMDL
