MODEL 1
REMARK VINA RESULT:      -8.3      0.000      0.000
REMARK  8 active torsions:
REMARK  status: ('A' for Active; 'I' for Inactive)
REMARK    1  A    between atoms: S_2  and  C_3 
REMARK    2  A    between atoms: C_4  and  N_5 
REMARK       I    between atoms: N_5  and  C_6 
REMARK    3  A    between atoms: C_6  and  C_7 
REMARK       I    between atoms: C_7  and  N_8 
REMARK    4  A    between atoms: N_8  and  C_9 
REMARK    5  A    between atoms: C_9  and  C_10 
REMARK    6  A    between atoms: C_10  and  C_11 
REMARK    7  A    between atoms: C_13  and  O_14 
REMARK    8  A    between atoms: N_20  and  C_21 
ROOT
HETATM    1  N   UNL     1      40.591 -13.121   5.520  1.00  0.00    -0.302 N 
HETATM    2  C   UNL     1      40.784 -14.248   6.387  1.00  0.00     0.315 C 
HETATM    3  O   UNL     1      39.780 -14.807   6.794  1.00  0.00    -0.262 OA
HETATM    4  H   UNL     1      39.661 -13.058   5.121  1.00  0.00     0.171 HD
ENDROOT
BRANCH   2   5
HETATM    5  C   UNL     1      42.191 -14.822   6.686  1.00  0.00     0.309 C 
HETATM    6  N   UNL     1      42.370 -16.120   6.240  1.00  0.00    -0.353 N 
HETATM    7  H   UNL     1      41.615 -16.547   5.708  1.00  0.00     0.162 HD
HETATM    8  O   UNL     1      43.052 -14.147   7.228  1.00  0.00    -0.262 OA
BRANCH   6   9
HETATM    9  C   UNL     1      43.680 -16.746   6.241  1.00  0.00     0.128 C 
BRANCH   9  10
HETATM   10  C   UNL     1      44.162 -17.067   4.826  1.00  0.00     0.058 C 
BRANCH  10  11
HETATM   11  C   UNL     1      44.041 -18.535   4.508  1.00  0.00    -0.054 A 
HETATM   12  C   UNL     1      43.949 -18.968   3.178  1.00  0.00     0.043 A 
HETATM   13  C   UNL     1      43.821 -20.327   2.899  1.00  0.00     0.066 A 
HETATM   14  C   UNL     1      43.780 -21.264   3.923  1.00  0.00     0.036 A 
HETATM   15  C   UNL     1      43.865 -20.842   5.248  1.00  0.00     0.003 A 
HETATM   16  C   UNL     1      43.994 -19.483   5.541  1.00  0.00     0.007 A 
BRANCH  13  17
HETATM   17  O   UNL     1      43.735 -20.786   1.619  1.00  0.00    -0.361 OA
HETATM   18  H   UNL     1      43.506 -21.730   1.636  1.00  0.00     0.217 HD
ENDBRANCH  13  17
ENDBRANCH  10  11
ENDBRANCH   9  10
ENDBRANCH   6   9
ENDBRANCH   2   5
BRANCH   1  19
HETATM   19  C   UNL     1      41.634 -12.499   4.848  1.00  0.00     0.150 A 
HETATM   20  C   UNL     1      42.176 -11.300   5.251  1.00  0.00     0.065 A 
HETATM   21  C   UNL     1      43.173 -11.014   4.310  1.00  0.00     0.161 A 
HETATM   22  N   UNL     1      43.270 -11.954   3.370  1.00  0.00    -0.176 NA
HETATM   23  N   UNL     1      42.344 -12.898   3.712  1.00  0.00    -0.216 N 
BRANCH  20  24
HETATM   24  S   UNL     1      41.681 -10.338   6.618  1.00  0.00    -0.129 SA
HETATM   25  C   UNL     1      43.269 -10.043   7.436  1.00  0.00     0.096 C 
ENDBRANCH  20  24
BRANCH  23  26
HETATM   26  C   UNL     1      42.274 -14.121   2.981  1.00  0.00     0.060 A 
HETATM   27  C   UNL     1      43.339 -14.586   2.199  1.00  0.00     0.031 A 
HETATM   28  C   UNL     1      43.216 -15.783   1.484  1.00  0.00     0.002 A 
HETATM   29  C   UNL     1      42.034 -16.518   1.536  1.00  0.00     0.000 A 
HETATM   30  C   UNL     1      40.967 -16.059   2.301  1.00  0.00     0.002 A 
HETATM   31  C   UNL     1      41.082 -14.867   3.020  1.00  0.00     0.031 A 
ENDBRANCH  23  26
ENDBRANCH   1  19
TORSDOF 8
ENDMDL
MODEL 2
REMARK VINA RESULT:      -8.2      2.517      6.517
REMARK  8 active torsions:
REMARK  status: ('A' for Active; 'I' for Inactive)
REMARK    1  A    between atoms: S_2  and  C_3 
REMARK    2  A    between atoms: C_4  and  N_5 
REMARK       I    between atoms: N_5  and  C_6 
REMARK    3  A    between atoms: C_6  and  C_7 
REMARK       I    between atoms: C_7  and  N_8 
REMARK    4  A    between atoms: N_8  and  C_9 
REMARK    5  A    between atoms: C_9  and  C_10 
REMARK    6  A    between atoms: C_10  and  C_11 
REMARK    7  A    between atoms: C_13  and  O_14 
REMARK    8  A    between atoms: N_20  and  C_21 
ROOT
HETATM    1  N   UNL     1      40.802 -16.142   4.029  1.00  0.00    -0.302 N 
HETATM    2  C   UNL     1      40.916 -16.118   5.459  1.00  0.00     0.315 C 
HETATM    3  O   UNL     1      39.982 -16.581   6.092  1.00  0.00    -0.262 OA
HETATM    4  H   UNL     1      40.088 -16.771   3.678  1.00  0.00     0.171 HD
ENDROOT
BRANCH   2   5
HETATM    5  C   UNL     1      42.212 -15.660   6.171  1.00  0.00     0.309 C 
HETATM    6  N   UNL     1      42.279 -14.293   6.381  1.00  0.00    -0.353 N 
HETATM    7  H   UNL     1      41.468 -13.733   6.126  1.00  0.00     0.162 HD
HETATM    8  O   UNL     1      43.055 -16.463   6.537  1.00  0.00    -0.262 OA
BRANCH   6   9
HETATM    9  C   UNL     1      43.312 -13.706   7.216  1.00  0.00     0.128 C 
BRANCH   9  10
HETATM   10  C   UNL     1      44.158 -12.690   6.449  1.00  0.00     0.058 C 
BRANCH  10  11
HETATM   11  C   UNL     1      44.604 -11.550   7.327  1.00  0.00    -0.054 A 
HETATM   12  C   UNL     1      45.762 -10.823   7.014  1.00  0.00     0.043 A 
HETATM   13  C   UNL     1      46.172  -9.782   7.844  1.00  0.00     0.066 A 
HETATM   14  C   UNL     1      45.451  -9.453   8.985  1.00  0.00     0.036 A 
HETATM   15  C   UNL     1      44.303 -10.173   9.307  1.00  0.00     0.003 A 
HETATM   16  C   UNL     1      43.881 -11.219   8.483  1.00  0.00     0.007 A 
BRANCH  13  17
HETATM   17  O   UNL     1      47.288  -9.050   7.569  1.00  0.00    -0.361 OA
HETATM   18  H   UNL     1      47.113  -8.117   7.776  1.00  0.00     0.217 HD
ENDBRANCH  13  17
ENDBRANCH  10  11
ENDBRANCH   9  10
ENDBRANCH   6   9
ENDBRANCH   2   5
BRANCH   1  19
HETATM   19  C   UNL     1      41.852 -15.812   3.184  1.00  0.00     0.150 A 
HETATM   20  C   UNL     1      42.058 -14.536   2.709  1.00  0.00     0.065 A 
HETATM   21  C   UNL     1      43.190 -14.629   1.889  1.00  0.00     0.161 A 
HETATM   22  N   UNL     1      43.679 -15.868   1.835  1.00  0.00    -0.176 NA
HETATM   23  N   UNL     1      42.879 -16.604   2.662  1.00  0.00    -0.216 N 
BRANCH  20  24
HETATM   24  S   UNL     1      41.081 -13.130   3.036  1.00  0.00    -0.129 SA
HETATM   25  C   UNL     1      39.798 -13.288   1.769  1.00  0.00     0.096 C 
ENDBRANCH  20  24
BRANCH  23  26
HETATM   26  C   UNL     1      43.206 -17.964   2.941  1.00  0.00     0.060 A 
HETATM   27  C   UNL     1      43.899 -18.343   4.099  1.00  0.00     0.031 A 
HETATM   28  C   UNL     1      44.214 -19.688   4.321  1.00  0.00     0.002 A 
HETATM   29  C   UNL     1      43.851 -20.660   3.392  1.00  0.00     0.000 A 
HETATM   30  C   UNL     1      43.174 -20.293   2.234  1.00  0.00     0.002 A 
HETATM   31  C   UNL     1      42.853 -18.953   2.006  1.00  0.00     0.031 A 
ENDBRANCH  23  26
ENDBRANCH   1  19
TORSDOF 8
ENDMDL
MODEL 3
REMARK VINA RESULT:      -8.0      1.734      4.438
REMARK  8 active torsions:
REMARK  status: ('A' for Active; 'I' for Inactive)
REMARK    1  A    between atoms: S_2  and  C_3 
REMARK    2  A    between atoms: C_4  and  N_5 
REMARK       I    between atoms: N_5  and  C_6 
REMARK    3  A    between atoms: C_6  and  C_7 
REMARK       I    between atoms: C_7  and  N_8 
REMARK    4  A    between atoms: N_8  and  C_9 
REMARK    5  A    between atoms: C_9  and  C_10 
REMARK    6  A    between atoms: C_10  and  C_11 
REMARK    7  A    between atoms: C_13  and  O_14 
REMARK    8  A    between atoms: N_20  and  C_21 
ROOT
HETATM    1  N   UNL     1      41.159 -12.197   5.589  1.00  0.00    -0.302 N 
HETATM    2  C   UNL     1      40.915 -13.421   6.297  1.00  0.00     0.315 C 
HETATM    3  O   UNL     1      39.778 -13.606   6.697  1.00  0.00    -0.262 OA
HETATM    4  H   UNL     1      40.321 -11.730   5.262  1.00  0.00     0.171 HD
ENDROOT
BRANCH   2   5
HETATM    5  C   UNL     1      41.996 -14.521   6.430  1.00  0.00     0.309 C 
HETATM    6  N   UNL     1      41.864 -15.547   5.509  1.00  0.00    -0.353 N 
HETATM    7  H   UNL     1      41.139 -15.457   4.800  1.00  0.00     0.162 HD
HETATM    8  O   UNL     1      42.891 -14.438   7.256  1.00  0.00    -0.262 OA
BRANCH   6   9
HETATM    9  C   UNL     1      42.898 -16.552   5.344  1.00  0.00     0.128 C 
BRANCH   9  10
HETATM   10  C   UNL     1      43.240 -16.784   3.872  1.00  0.00     0.058 C 
BRANCH  10  11
HETATM   11  C   UNL     1      43.461 -18.242   3.567  1.00  0.00    -0.054 A 
HETATM   12  C   UNL     1      43.932 -19.112   4.562  1.00  0.00     0.043 A 
HETATM   13  C   UNL     1      44.147 -20.456   4.261  1.00  0.00     0.066 A 
HETATM   14  C   UNL     1      43.906 -20.949   2.985  1.00  0.00     0.036 A 
HETATM   15  C   UNL     1      43.443 -20.091   1.991  1.00  0.00     0.003 A 
HETATM   16  C   UNL     1      43.223 -18.742   2.278  1.00  0.00     0.007 A 
BRANCH  13  17
HETATM   17  O   UNL     1      44.599 -21.331   5.203  1.00  0.00    -0.361 OA
HETATM   18  H   UNL     1      44.040 -21.259   5.994  1.00  0.00     0.217 HD
ENDBRANCH  13  17
ENDBRANCH  10  11
ENDBRANCH   9  10
ENDBRANCH   6   9
ENDBRANCH   2   5
BRANCH   1  19
HETATM   19  C   UNL     1      42.352 -11.932   4.931  1.00  0.00     0.150 A 
HETATM   20  C   UNL     1      42.528 -12.144   3.582  1.00  0.00     0.065 A 
HETATM   21  C   UNL     1      43.853 -11.776   3.323  1.00  0.00     0.161 A 
HETATM   22  N   UNL     1      44.489 -11.358   4.417  1.00  0.00    -0.176 NA
HETATM   23  N   UNL     1      43.558 -11.417   5.415  1.00  0.00    -0.216 N 
BRANCH  20  24
HETATM   24  S   UNL     1      41.349 -12.778   2.464  1.00  0.00    -0.129 SA
HETATM   25  C   UNL     1      42.282 -14.124   1.693  1.00  0.00     0.096 C 
ENDBRANCH  20  24
BRANCH  23  26
HETATM   26  C   UNL     1      43.873 -10.909   6.710  1.00  0.00     0.060 A 
HETATM   27  C   UNL     1      42.951 -10.176   7.470  1.00  0.00     0.031 A 
HETATM   28  C   UNL     1      43.312  -9.681   8.728  1.00  0.00     0.002 A 
HETATM   29  C   UNL     1      44.590  -9.904   9.234  1.00  0.00     0.000 A 
HETATM   30  C   UNL     1      45.517 -10.620   8.483  1.00  0.00     0.002 A 
HETATM   31  C   UNL     1      45.163 -11.120   7.227  1.00  0.00     0.031 A 
ENDBRANCH  23  26
ENDBRANCH   1  19
TORSDOF 8
ENDMDL
MODEL 4
REMARK VINA RESULT:      -7.8      2.202      3.910
REMARK  8 active torsions:
REMARK  status: ('A' for Active; 'I' for Inactive)
REMARK    1  A    between atoms: S_2  and  C_3 
REMARK    2  A    between atoms: C_4  and  N_5 
REMARK       I    between atoms: N_5  and  C_6 
REMARK    3  A    between atoms: C_6  and  C_7 
REMARK       I    between atoms: C_7  and  N_8 
REMARK    4  A    between atoms: N_8  and  C_9 
REMARK    5  A    between atoms: C_9  and  C_10 
REMARK    6  A    between atoms: C_10  and  C_11 
REMARK    7  A    between atoms: C_13  and  O_14 
REMARK    8  A    between atoms: N_20  and  C_21 
ROOT
HETATM    1  N   UNL     1      42.698 -11.118   4.706  1.00  0.00    -0.302 N 
HETATM    2  C   UNL     1      43.506 -11.698   3.672  1.00  0.00     0.315 C 
HETATM    3  O   UNL     1      44.708 -11.499   3.737  1.00  0.00    -0.262 OA
HETATM    4  H   UNL     1      43.218 -10.825   5.526  1.00  0.00     0.171 HD
ENDROOT
BRANCH   2   5
HETATM    5  C   UNL     1      42.912 -12.646   2.602  1.00  0.00     0.309 C 
HETATM    6  N   UNL     1      43.418 -13.934   2.656  1.00  0.00    -0.353 N 
HETATM    7  H   UNL     1      44.059 -14.160   3.413  1.00  0.00     0.162 HD
HETATM    8  O   UNL     1      42.048 -12.270   1.826  1.00  0.00    -0.262 OA
BRANCH   6   9
HETATM    9  C   UNL     1      42.833 -15.010   1.876  1.00  0.00     0.128 C 
BRANCH   9  10
HETATM   10  C   UNL     1      42.048 -15.988   2.750  1.00  0.00     0.058 C 
BRANCH  10  11
HETATM   11  C   UNL     1      42.836 -17.239   3.044  1.00  0.00    -0.054 A 
HETATM   12  C   UNL     1      42.730 -18.358   2.205  1.00  0.00     0.043 A 
HETATM   13  C   UNL     1      43.452 -19.513   2.497  1.00  0.00     0.066 A 
HETATM   14  C   UNL     1      44.275 -19.577   3.614  1.00  0.00     0.036 A 
HETATM   15  C   UNL     1      44.382 -18.472   4.455  1.00  0.00     0.003 A 
HETATM   16  C   UNL     1      43.664 -17.307   4.174  1.00  0.00     0.007 A 
BRANCH  13  17
HETATM   17  O   UNL     1      43.379 -20.617   1.702  1.00  0.00    -0.361 OA
HETATM   18  H   UNL     1      44.278 -20.891   1.458  1.00  0.00     0.217 HD
ENDBRANCH  13  17
ENDBRANCH  10  11
ENDBRANCH   9  10
ENDBRANCH   6   9
ENDBRANCH   2   5
BRANCH   1  19
HETATM   19  C   UNL     1      41.348 -11.402   4.857  1.00  0.00     0.150 A 
HETATM   20  C   UNL     1      40.352 -10.595   4.357  1.00  0.00     0.065 A 
HETATM   21  C   UNL     1      39.154 -11.215   4.733  1.00  0.00     0.161 A 
HETATM   22  N   UNL     1      39.357 -12.336   5.424  1.00  0.00    -0.176 NA
HETATM   23  N   UNL     1      40.714 -12.483   5.477  1.00  0.00    -0.216 N 
BRANCH  20  24
HETATM   24  S   UNL     1      40.560  -9.100   3.483  1.00  0.00    -0.129 SA
HETATM   25  C   UNL     1      41.135  -7.998   4.799  1.00  0.00     0.096 C 
ENDBRANCH  20  24
BRANCH  23  26
HETATM   26  C   UNL     1      41.280 -13.666   6.038  1.00  0.00     0.060 A 
HETATM   27  C   UNL     1      40.562 -14.866   6.129  1.00  0.00     0.031 A 
HETATM   28  C   UNL     1      41.153 -15.996   6.706  1.00  0.00     0.002 A 
HETATM   29  C   UNL     1      42.454 -15.938   7.200  1.00  0.00     0.000 A 
HETATM   30  C   UNL     1      43.170 -14.748   7.125  1.00  0.00     0.002 A 
HETATM   31  C   UNL     1      42.589 -13.616   6.549  1.00  0.00     0.031 A 
ENDBRANCH  23  26
ENDBRANCH   1  19
TORSDOF 8
ENDMDL
MODEL 5
REMARK VINA RESULT:      -7.8      2.664      6.646
REMARK  8 active torsions:
REMARK  status: ('A' for Active; 'I' for Inactive)
REMARK    1  A    between atoms: S_2  and  C_3 
REMARK    2  A    between atoms: C_4  and  N_5 
REMARK       I    between atoms: N_5  and  C_6 
REMARK    3  A    between atoms: C_6  and  C_7 
REMARK       I    between atoms: C_7  and  N_8 
REMARK    4  A    between atoms: N_8  and  C_9 
REMARK    5  A    between atoms: C_9  and  C_10 
REMARK    6  A    between atoms: C_10  and  C_11 
REMARK    7  A    between atoms: C_13  and  O_14 
REMARK    8  A    between atoms: N_20  and  C_21 
ROOT
HETATM    1  N   UNL     1      40.120 -15.010   4.411  1.00  0.00    -0.302 N 
HETATM    2  C   UNL     1      40.363 -14.226   5.588  1.00  0.00     0.315 C 
HETATM    3  O   UNL     1      39.847 -14.614   6.623  1.00  0.00    -0.262 OA
HETATM    4  H   UNL     1      39.767 -15.942   4.597  1.00  0.00     0.171 HD
ENDROOT
BRANCH   2   5
HETATM    5  C   UNL     1      41.343 -13.027   5.588  1.00  0.00     0.309 C 
HETATM    6  N   UNL     1      42.657 -13.380   5.844  1.00  0.00    -0.353 N 
HETATM    7  H   UNL     1      42.872 -14.371   5.935  1.00  0.00     0.162 HD
HETATM    8  O   UNL     1      40.963 -11.894   5.338  1.00  0.00    -0.262 OA
BRANCH   6   9
HETATM    9  C   UNL     1      43.742 -12.430   5.678  1.00  0.00     0.128 C 
BRANCH   9  10
HETATM   10  C   UNL     1      44.722 -12.471   6.850  1.00  0.00     0.058 C 
BRANCH  10  11
HETATM   11  C   UNL     1      44.911 -11.112   7.474  1.00  0.00    -0.054 A 
HETATM   12  C   UNL     1      43.817 -10.422   8.018  1.00  0.00     0.043 A 
HETATM   13  C   UNL     1      44.004  -9.160   8.577  1.00  0.00     0.066 A 
HETATM   14  C   UNL     1      45.261  -8.569   8.601  1.00  0.00     0.036 A 
HETATM   15  C   UNL     1      46.351  -9.245   8.058  1.00  0.00     0.003 A 
HETATM   16  C   UNL     1      46.178 -10.511   7.495  1.00  0.00     0.007 A 
BRANCH  13  17
HETATM   17  O   UNL     1      42.967  -8.462   9.120  1.00  0.00    -0.361 OA
HETATM   18  H   UNL     1      42.663  -8.920   9.921  1.00  0.00     0.217 HD
ENDBRANCH  13  17
ENDBRANCH  10  11
ENDBRANCH   9  10
ENDBRANCH   6   9
ENDBRANCH   2   5
BRANCH   1  19
HETATM   19  C   UNL     1      40.778 -14.788   3.209  1.00  0.00     0.150 A 
HETATM   20  C   UNL     1      40.419 -13.790   2.331  1.00  0.00     0.065 A 
HETATM   21  C   UNL     1      41.305 -13.916   1.253  1.00  0.00     0.161 A 
HETATM   22  N   UNL     1      42.169 -14.917   1.418  1.00  0.00    -0.176 NA
HETATM   23  N   UNL     1      41.875 -15.444   2.643  1.00  0.00    -0.216 N 
BRANCH  20  24
HETATM   24  S   UNL     1      39.112 -12.653   2.522  1.00  0.00    -0.129 SA
HETATM   25  C   UNL     1      39.913 -11.107   2.025  1.00  0.00     0.096 C 
ENDBRANCH  20  24
BRANCH  23  26
HETATM   26  C   UNL     1      42.707 -16.462   3.196  1.00  0.00     0.060 A 
HETATM   27  C   UNL     1      43.387 -16.295   4.410  1.00  0.00     0.031 A 
HETATM   28  C   UNL     1      44.207 -17.316   4.903  1.00  0.00     0.002 A 
HETATM   29  C   UNL     1      44.362 -18.503   4.191  1.00  0.00     0.000 A 
HETATM   30  C   UNL     1      43.700 -18.674   2.979  1.00  0.00     0.002 A 
HETATM   31  C   UNL     1      42.878 -17.661   2.481  1.00  0.00     0.031 A 
ENDBRANCH  23  26
ENDBRANCH   1  19
TORSDOF 8
ENDMDL
MODEL 6
REMARK VINA RESULT:      -7.7      2.677      5.497
REMARK  8 active torsions:
REMARK  status: ('A' for Active; 'I' for Inactive)
REMARK    1  A    between atoms: S_2  and  C_3 
REMARK    2  A    between atoms: C_4  and  N_5 
REMARK       I    between atoms: N_5  and  C_6 
REMARK    3  A    between atoms: C_6  and  C_7 
REMARK       I    between atoms: C_7  and  N_8 
REMARK    4  A    between atoms: N_8  and  C_9 
REMARK    5  A    between atoms: C_9  and  C_10 
REMARK    6  A    between atoms: C_10  and  C_11 
REMARK    7  A    between atoms: C_13  and  O_14 
REMARK    8  A    between atoms: N_20  and  C_21 
ROOT
HETATM    1  N   UNL     1      43.290 -12.031   5.819  1.00  0.00    -0.302 N 
HETATM    2  C   UNL     1      43.883 -11.653   4.568  1.00  0.00     0.315 C 
HETATM    3  O   UNL     1      45.005 -11.177   4.614  1.00  0.00    -0.262 OA
HETATM    4  H   UNL     1      43.949 -12.112   6.585  1.00  0.00     0.171 HD
ENDROOT
BRANCH   2   5
HETATM    5  C   UNL     1      43.203 -11.959   3.211  1.00  0.00     0.309 C 
HETATM    6  N   UNL     1      42.351 -10.958   2.776  1.00  0.00    -0.353 N 
HETATM    7  H   UNL     1      42.303 -10.103   3.328  1.00  0.00     0.162 HD
HETATM    8  O   UNL     1      43.450 -12.980   2.591  1.00  0.00    -0.262 OA
BRANCH   6   9
HETATM    9  C   UNL     1      41.791 -10.970   1.437  1.00  0.00     0.128 C 
BRANCH   9  10
HETATM   10  C   UNL     1      40.318 -11.379   1.438  1.00  0.00     0.058 C 
BRANCH  10  11
HETATM   11  C   UNL     1      40.147 -12.872   1.327  1.00  0.00    -0.054 A 
HETATM   12  C   UNL     1      39.946 -13.650   2.477  1.00  0.00     0.043 A 
HETATM   13  C   UNL     1      39.806 -15.032   2.361  1.00  0.00     0.066 A 
HETATM   14  C   UNL     1      39.866 -15.654   1.121  1.00  0.00     0.036 A 
HETATM   15  C   UNL     1      40.071 -14.889  -0.025  1.00  0.00     0.003 A 
HETATM   16  C   UNL     1      40.212 -13.503   0.077  1.00  0.00     0.007 A 
BRANCH  13  17
HETATM   17  O   UNL     1      39.603 -15.820   3.454  1.00  0.00    -0.361 OA
HETATM   18  H   UNL     1      39.151 -15.300   4.139  1.00  0.00     0.217 HD
ENDBRANCH  13  17
ENDBRANCH  10  11
ENDBRANCH   9  10
ENDBRANCH   6   9
ENDBRANCH   2   5
BRANCH   1  19
HETATM   19  C   UNL     1      42.100 -12.739   5.905  1.00  0.00     0.150 A 
HETATM   20  C   UNL     1      40.870 -12.128   6.006  1.00  0.00     0.065 A 
HETATM   21  C   UNL     1      39.946 -13.177   6.087  1.00  0.00     0.161 A 
HETATM   22  N   UNL     1      40.529 -14.374   6.042  1.00  0.00    -0.176 NA
HETATM   23  N   UNL     1      41.863 -14.116   5.894  1.00  0.00    -0.216 N 
BRANCH  20  24
HETATM   24  S   UNL     1      40.558 -10.414   6.063  1.00  0.00    -0.129 SA
HETATM   25  C   UNL     1      39.277 -10.245   4.796  1.00  0.00     0.096 C 
ENDBRANCH  20  24
BRANCH  23  26
HETATM   26  C   UNL     1      42.774 -15.192   5.678  1.00  0.00     0.060 A 
HETATM   27  C   UNL     1      43.751 -15.544   6.619  1.00  0.00     0.031 A 
HETATM   28  C   UNL     1      44.636 -16.595   6.354  1.00  0.00     0.002 A 
HETATM   29  C   UNL     1      44.560 -17.296   5.153  1.00  0.00     0.000 A 
HETATM   30  C   UNL     1      43.601 -16.947   4.207  1.00  0.00     0.002 A 
HETATM   31  C   UNL     1      42.712 -15.900   4.465  1.00  0.00     0.031 A 
ENDBRANCH  23  26
ENDBRANCH   1  19
TORSDOF 8
ENDMDL
MODEL 7
REMARK VINA RESULT:      -7.5      2.416      3.164
REMARK  8 active torsions:
REMARK  status: ('A' for Active; 'I' for Inactive)
REMARK    1  A    between atoms: S_2  and  C_3 
REMARK    2  A    between atoms: C_4  and  N_5 
REMARK       I    between atoms: N_5  and  C_6 
REMARK    3  A    between atoms: C_6  and  C_7 
REMARK       I    between atoms: C_7  and  N_8 
REMARK    4  A    between atoms: N_8  and  C_9 
REMARK    5  A    between atoms: C_9  and  C_10 
REMARK    6  A    between atoms: C_10  and  C_11 
REMARK    7  A    between atoms: C_13  and  O_14 
REMARK    8  A    between atoms: N_20  and  C_21 
ROOT
HETATM    1  N   UNL     1      42.298 -11.063   2.815  1.00  0.00    -0.302 N 
HETATM    2  C   UNL     1      43.188 -12.039   3.375  1.00  0.00     0.315 C 
HETATM    3  O   UNL     1      44.381 -11.865   3.188  1.00  0.00    -0.262 OA
HETATM    4  H   UNL     1      42.746 -10.194   2.549  1.00  0.00     0.171 HD
ENDROOT
BRANCH   2   5
HETATM    5  C   UNL     1      42.684 -13.182   4.290  1.00  0.00     0.309 C 
HETATM    6  N   UNL     1      42.696 -14.427   3.686  1.00  0.00    -0.353 N 
HETATM    7  H   UNL     1      43.091 -14.496   2.750  1.00  0.00     0.162 HD
HETATM    8  O   UNL     1      42.354 -12.972   5.447  1.00  0.00    -0.262 OA
BRANCH   6   9
HETATM    9  C   UNL     1      42.460 -15.640   4.448  1.00  0.00     0.128 C 
BRANCH   9  10
HETATM   10  C   UNL     1      43.752 -16.419   4.697  1.00  0.00     0.058 C 
BRANCH  10  11
HETATM   11  C   UNL     1      43.708 -17.795   4.085  1.00  0.00    -0.054 A 
HETATM   12  C   UNL     1      44.131 -18.912   4.819  1.00  0.00     0.043 A 
HETATM   13  C   UNL     1      44.101 -20.177   4.234  1.00  0.00     0.066 A 
HETATM   14  C   UNL     1      43.660 -20.349   2.929  1.00  0.00     0.036 A 
HETATM   15  C   UNL     1      43.243 -19.243   2.191  1.00  0.00     0.003 A 
HETATM   16  C   UNL     1      43.268 -17.970   2.765  1.00  0.00     0.007 A 
BRANCH  13  17
HETATM   17  O   UNL     1      44.498 -21.286   4.919  1.00  0.00    -0.361 OA
HETATM   18  H   UNL     1      44.845 -21.939   4.288  1.00  0.00     0.217 HD
ENDBRANCH  13  17
ENDBRANCH  10  11
ENDBRANCH   9  10
ENDBRANCH   6   9
ENDBRANCH   2   5
BRANCH   1  19
HETATM   19  C   UNL     1      40.938 -11.038   3.093  1.00  0.00     0.150 A 
HETATM   20  C   UNL     1      40.360 -10.107   3.926  1.00  0.00     0.065 A 
HETATM   21  C   UNL     1      38.999 -10.434   3.953  1.00  0.00     0.161 A 
HETATM   22  N   UNL     1      38.715 -11.495   3.198  1.00  0.00    -0.176 NA
HETATM   23  N   UNL     1      39.904 -11.857   2.631  1.00  0.00    -0.216 N 
BRANCH  20  24
HETATM   24  S   UNL     1      41.176  -8.828   4.787  1.00  0.00    -0.129 SA
HETATM   25  C   UNL     1      41.719  -9.698   6.279  1.00  0.00     0.096 C 
ENDBRANCH  20  24
BRANCH  23  26
HETATM   26  C   UNL     1      39.936 -12.891   1.649  1.00  0.00     0.060 A 
HETATM   27  C   UNL     1      39.966 -12.616   0.275  1.00  0.00     0.031 A 
HETATM   28  C   UNL     1      39.978 -13.665  -0.652  1.00  0.00     0.002 A 
HETATM   29  C   UNL     1      39.952 -14.989  -0.220  1.00  0.00     0.000 A 
HETATM   30  C   UNL     1      39.910 -15.272   1.141  1.00  0.00     0.002 A 
HETATM   31  C   UNL     1      39.901 -14.231   2.073  1.00  0.00     0.031 A 
ENDBRANCH  23  26
ENDBRANCH   1  19
TORSDOF 8
ENDMDL
MODEL 8
REMARK VINA RESULT:      -7.5      2.660      7.259
REMARK  8 active torsions:
REMARK  status: ('A' for Active; 'I' for Inactive)
REMARK    1  A    between atoms: S_2  and  C_3 
REMARK    2  A    between atoms: C_4  and  N_5 
REMARK       I    between atoms: N_5  and  C_6 
REMARK    3  A    between atoms: C_6  and  C_7 
REMARK       I    between atoms: C_7  and  N_8 
REMARK    4  A    between atoms: N_8  and  C_9 
REMARK    5  A    between atoms: C_9  and  C_10 
REMARK    6  A    between atoms: C_10  and  C_11 
REMARK    7  A    between atoms: C_13  and  O_14 
REMARK    8  A    between atoms: N_20  and  C_21 
ROOT
HETATM    1  N   UNL     1      42.458 -12.583   3.840  1.00  0.00    -0.302 N 
HETATM    2  C   UNL     1      43.691 -11.990   4.271  1.00  0.00     0.315 C 
HETATM    3  O   UNL     1      44.272 -11.283   3.464  1.00  0.00    -0.262 OA
HETATM    4  H   UNL     1      42.056 -12.156   3.013  1.00  0.00     0.171 HD
ENDROOT
BRANCH   2   5
HETATM    5  C   UNL     1      44.198 -12.117   5.728  1.00  0.00     0.309 C 
HETATM    6  N   UNL     1      44.692 -10.935   6.253  1.00  0.00    -0.353 N 
HETATM    7  H   UNL     1      44.615 -10.095   5.683  1.00  0.00     0.162 HD
HETATM    8  O   UNL     1      44.114 -13.170   6.342  1.00  0.00    -0.262 OA
BRANCH   6   9
HETATM    9  C   UNL     1      45.014 -10.809   7.663  1.00  0.00     0.128 C 
BRANCH   9  10
HETATM   10  C   UNL     1      44.678  -9.420   8.204  1.00  0.00     0.058 C 
BRANCH  10  11
HETATM   11  C   UNL     1      44.159  -9.476   9.618  1.00  0.00    -0.054 A 
HETATM   12  C   UNL     1      44.135 -10.691  10.318  1.00  0.00     0.043 A 
HETATM   13  C   UNL     1      43.638 -10.730  11.619  1.00  0.00     0.066 A 
HETATM   14  C   UNL     1      43.159  -9.581  12.235  1.00  0.00     0.036 A 
HETATM   15  C   UNL     1      43.174  -8.372  11.545  1.00  0.00     0.003 A 
HETATM   16  C   UNL     1      43.671  -8.318  10.241  1.00  0.00     0.007 A 
BRANCH  13  17
HETATM   17  O   UNL     1      43.605 -11.891  12.333  1.00  0.00    -0.361 OA
HETATM   18  H   UNL     1      43.577 -12.640  11.715  1.00  0.00     0.217 HD
ENDBRANCH  13  17
ENDBRANCH  10  11
ENDBRANCH   9  10
ENDBRANCH   6   9
ENDBRANCH   2   5
BRANCH   1  19
HETATM   19  C   UNL     1      41.608 -13.264   4.700  1.00  0.00     0.150 A 
HETATM   20  C   UNL     1      40.616 -12.640   5.423  1.00  0.00     0.065 A 
HETATM   21  C   UNL     1      40.009 -13.659   6.168  1.00  0.00     0.161 A 
HETATM   22  N   UNL     1      40.565 -14.850   5.948  1.00  0.00    -0.176 NA
HETATM   23  N   UNL     1      41.535 -14.624   5.013  1.00  0.00    -0.216 N 
BRANCH  20  24
HETATM   24  S   UNL     1      40.241 -10.937   5.426  1.00  0.00    -0.129 SA
HETATM   25  C   UNL     1      41.200 -10.366   6.851  1.00  0.00     0.096 C 
ENDBRANCH  20  24
BRANCH  23  26
HETATM   26  C   UNL     1      42.245 -15.724   4.447  1.00  0.00     0.060 A 
HETATM   27  C   UNL     1      41.956 -16.223   3.169  1.00  0.00     0.031 A 
HETATM   28  C   UNL     1      42.668 -17.316   2.664  1.00  0.00     0.002 A 
HETATM   29  C   UNL     1      43.663 -17.924   3.426  1.00  0.00     0.000 A 
HETATM   30  C   UNL     1      43.950 -17.444   4.700  1.00  0.00     0.002 A 
HETATM   31  C   UNL     1      43.246 -16.351   5.210  1.00  0.00     0.031 A 
ENDBRANCH  23  26
ENDBRANCH   1  19
TORSDOF 8
ENDMDL
MODEL 9
REMARK VINA RESULT:      -7.3      2.388      5.244
REMARK  8 active torsions:
REMARK  status: ('A' for Active; 'I' for Inactive)
REMARK    1  A    between atoms: S_2  and  C_3 
REMARK    2  A    between atoms: C_4  and  N_5 
REMARK       I    between atoms: N_5  and  C_6 
REMARK    3  A    between atoms: C_6  and  C_7 
REMARK       I    between atoms: C_7  and  N_8 
REMARK    4  A    between atoms: N_8  and  C_9 
REMARK    5  A    between atoms: C_9  and  C_10 
REMARK    6  A    between atoms: C_10  and  C_11 
REMARK    7  A    between atoms: C_13  and  O_14 
REMARK    8  A    between atoms: N_20  and  C_21 
ROOT
HETATM    1  N   UNL     1      43.453 -15.829   5.751  1.00  0.00    -0.302 N 
HETATM    2  C   UNL     1      42.286 -15.758   6.582  1.00  0.00     0.315 C 
HETATM    3  O   UNL     1      42.465 -15.818   7.787  1.00  0.00    -0.262 OA
HETATM    4  H   UNL     1      44.324 -15.659   6.241  1.00  0.00     0.171 HD
ENDROOT
BRANCH   2   5
HETATM    5  C   UNL     1      40.879 -15.478   5.999  1.00  0.00     0.309 C 
HETATM    6  N   UNL     1      40.593 -14.131   5.855  1.00  0.00    -0.353 N 
HETATM    7  H   UNL     1      41.332 -13.465   6.067  1.00  0.00     0.162 HD
HETATM    8  O   UNL     1      40.134 -16.387   5.668  1.00  0.00    -0.262 OA
BRANCH   6   9
HETATM    9  C   UNL     1      39.416 -13.681   5.134  1.00  0.00     0.128 C 
BRANCH   9  10
HETATM   10  C   UNL     1      39.775 -12.749   3.977  1.00  0.00     0.058 C 
BRANCH  10  11
HETATM   11  C   UNL     1      39.962 -13.501   2.685  1.00  0.00    -0.054 A 
HETATM   12  C   UNL     1      40.380 -12.830   1.527  1.00  0.00     0.043 A 
HETATM   13  C   UNL     1      40.533 -13.535   0.335  1.00  0.00     0.066 A 
HETATM   14  C   UNL     1      40.271 -14.898   0.273  1.00  0.00     0.036 A 
HETATM   15  C   UNL     1      39.850 -15.571   1.418  1.00  0.00     0.003 A 
HETATM   16  C   UNL     1      39.694 -14.877   2.619  1.00  0.00     0.007 A 
BRANCH  13  17
HETATM   17  O   UNL     1      40.943 -12.918  -0.809  1.00  0.00    -0.361 OA
HETATM   18  H   UNL     1      41.897 -13.064  -0.921  1.00  0.00     0.217 HD
ENDBRANCH  13  17
ENDBRANCH  10  11
ENDBRANCH   9  10
ENDBRANCH   6   9
ENDBRANCH   2   5
BRANCH   1  19
HETATM   19  C   UNL     1      43.419 -15.601   4.382  1.00  0.00     0.150 A 
HETATM   20  C   UNL     1      43.412 -14.339   3.832  1.00  0.00     0.065 A 
HETATM   21  C   UNL     1      43.356 -14.543   2.448  1.00  0.00     0.161 A 
HETATM   22  N   UNL     1      43.327 -15.835   2.125  1.00  0.00    -0.176 NA
HETATM   23  N   UNL     1      43.401 -16.503   3.314  1.00  0.00    -0.216 N 
BRANCH  20  24
HETATM   24  S   UNL     1      43.428 -12.825   4.696  1.00  0.00    -0.129 SA
HETATM   25  C   UNL     1      43.422 -11.638   3.329  1.00  0.00     0.096 C 
ENDBRANCH  20  24
BRANCH  23  26
HETATM   26  C   UNL     1      43.527 -17.924   3.324  1.00  0.00     0.060 A 
HETATM   27  C   UNL     1      43.113 -18.718   2.246  1.00  0.00     0.031 A 
HETATM   28  C   UNL     1      43.240 -20.110   2.310  1.00  0.00     0.002 A 
HETATM   29  C   UNL     1      43.769 -20.720   3.445  1.00  0.00     0.000 A 
HETATM   30  C   UNL     1      44.171 -19.941   4.526  1.00  0.00     0.002 A 
HETATM   31  C   UNL     1      44.051 -18.550   4.469  1.00  0.00     0.031 A 
ENDBRANCH  23  26
ENDBRANCH   1  19
TORSDOF 8
ENDMDL
MODEL 10
REMARK VINA RESULT:      -7.3      3.799      6.022
REMARK  8 active torsions:
REMARK  status: ('A' for Active; 'I' for Inactive)
REMARK    1  A    between atoms: S_2  and  C_3 
REMARK    2  A    between atoms: C_4  and  N_5 
REMARK       I    between atoms: N_5  and  C_6 
REMARK    3  A    between atoms: C_6  and  C_7 
REMARK       I    between atoms: C_7  and  N_8 
REMARK    4  A    between atoms: N_8  and  C_9 
REMARK    5  A    between atoms: C_9  and  C_10 
REMARK    6  A    between atoms: C_10  and  C_11 
REMARK    7  A    between atoms: C_13  and  O_14 
REMARK    8  A    between atoms: N_20  and  C_21 
ROOT
HETATM    1  N   UNL     1      41.542 -12.205  -0.061  1.00  0.00    -0.302 N 
HETATM    2  C   UNL     1      41.328 -11.409   1.114  1.00  0.00     0.315 C 
HETATM    3  O   UNL     1      42.067 -10.452   1.271  1.00  0.00    -0.262 OA
HETATM    4  H   UNL     1      42.104 -11.753  -0.774  1.00  0.00     0.171 HD
ENDROOT
BRANCH   2   5
HETATM    5  C   UNL     1      40.133 -11.658   2.067  1.00  0.00     0.309 C 
HETATM    6  N   UNL     1      40.466 -12.376   3.203  1.00  0.00    -0.353 N 
HETATM    7  H   UNL     1      41.447 -12.607   3.347  1.00  0.00     0.162 HD
HETATM    8  O   UNL     1      39.023 -11.211   1.826  1.00  0.00    -0.262 OA
BRANCH   6   9
HETATM    9  C   UNL     1      39.533 -12.523   4.305  1.00  0.00     0.128 C 
BRANCH   9  10
HETATM   10  C   UNL     1      40.228 -12.408   5.662  1.00  0.00     0.058 C 
BRANCH  10  11
HETATM   11  C   UNL     1      40.867 -13.707   6.080  1.00  0.00    -0.054 A 
HETATM   12  C   UNL     1      42.263 -13.820   6.151  1.00  0.00     0.043 A 
HETATM   13  C   UNL     1      42.841 -15.032   6.524  1.00  0.00     0.066 A 
HETATM   14  C   UNL     1      42.054 -16.136   6.823  1.00  0.00     0.036 A 
HETATM   15  C   UNL     1      40.666 -16.033   6.749  1.00  0.00     0.003 A 
HETATM   16  C   UNL     1      40.074 -14.825   6.378  1.00  0.00     0.007 A 
BRANCH  13  17
HETATM   17  O   UNL     1      44.193 -15.178   6.611  1.00  0.00    -0.361 OA
HETATM   18  H   UNL     1      44.516 -14.684   7.382  1.00  0.00     0.217 HD
ENDBRANCH  13  17
ENDBRANCH  10  11
ENDBRANCH   9  10
ENDBRANCH   6   9
ENDBRANCH   2   5
BRANCH   1  19
HETATM   19  C   UNL     1      40.674 -13.213  -0.457  1.00  0.00     0.150 A 
HETATM   20  C   UNL     1      39.830 -13.094  -1.538  1.00  0.00     0.065 A 
HETATM   21  C   UNL     1      39.122 -14.301  -1.585  1.00  0.00     0.161 A 
HETATM   22  N   UNL     1      39.477 -15.138  -0.610  1.00  0.00    -0.176 NA
HETATM   23  N   UNL     1      40.464 -14.488   0.075  1.00  0.00    -0.216 N 
BRANCH  20  24
HETATM   24  S   UNL     1      39.665 -11.709  -2.585  1.00  0.00    -0.129 SA
HETATM   25  C   UNL     1      38.589 -10.643  -1.594  1.00  0.00     0.096 C 
ENDBRANCH  20  24
BRANCH  23  26
HETATM   26  C   UNL     1      41.168 -15.164   1.116  1.00  0.00     0.060 A 
HETATM   27  C   UNL     1      42.561 -15.312   1.102  1.00  0.00     0.031 A 
HETATM   28  C   UNL     1      43.206 -15.999   2.137  1.00  0.00     0.002 A 
HETATM   29  C   UNL     1      42.470 -16.548   3.185  1.00  0.00     0.000 A 
HETATM   30  C   UNL     1      41.086 -16.416   3.202  1.00  0.00     0.002 A 
HETATM   31  C   UNL     1      40.435 -15.729   2.175  1.00  0.00     0.031 A 
ENDBRANCH  23  26
ENDBRANCH   1  19
TORSDOF 8
ENDMDL
