MODEL 1
REMARK VINA RESULT:      -7.9      0.000      0.000
REMARK  7 active torsions:
REMARK  status: ('A' for Active; 'I' for Inactive)
REMARK    1  A    between atoms: C_2  and  N_3 
REMARK    2  A    between atoms: C_8  and  C_9 
REMARK    3  A    between atoms: C_9  and  N_10 
REMARK       I    between atoms: N_10  and  C_11 
REMARK       I    between atoms: C_11  and  N_12 
REMARK    4  A    between atoms: N_12  and  C_13 
REMARK    5  A    between atoms: C_14  and  O_15 
REMARK    6  A    between atoms: C_18  and  O_19 
REMARK    7  A    between atoms: C_26  and  N_27 
ROOT
HETATM    1  C   UNL     1      40.120 -13.489   1.846  1.00  0.00     0.118 C 
HETATM    2  C   UNL     1      39.244 -13.312   3.085  1.00  0.00     0.037 C 
ENDROOT
BRANCH   1   3
HETATM    3  C   UNL     1      39.809 -12.427   0.787  1.00  0.00     0.006 A 
HETATM    4  C   UNL     1      39.507 -12.744  -0.614  1.00  0.00    -0.031 A 
HETATM    5  C   UNL     1      39.207 -11.620  -1.356  1.00  0.00     0.017 A 
HETATM    6  C   UNL     1      39.448 -14.104  -1.265  1.00  0.00     0.068 C 
HETATM    7  C   UNL     1      38.855 -11.594  -2.806  1.00  0.00     0.281 C 
HETATM    8  S   UNL     1      39.285 -10.207  -0.446  1.00  0.00    -0.074 SA
HETATM    9  N   UNL     1      38.420 -12.970  -3.297  1.00  0.00    -0.067 N 
HETATM   10  H   UNL     1      38.508 -12.952  -4.320  1.00  0.00     0.280 HD
HETATM   11  C   UNL     1      39.396 -14.029  -2.803  1.00  0.00     0.240 C 
HETATM   12  C   UNL     1      39.753 -11.040   0.973  1.00  0.00     0.089 A 
BRANCH   9  13
HETATM   13  C   UNL     1      36.976 -13.304  -2.984  1.00  0.00     0.231 C 
HETATM   14  C   UNL     1      36.088 -12.098  -3.237  1.00  0.00     0.034 C 
ENDBRANCH   9  13
BRANCH  12  15
HETATM   15  N   UNL     1      40.028 -10.232   2.109  1.00  0.00    -0.327 N 
HETATM   16  C   UNL     1      41.270 -10.020   2.702  1.00  0.00     0.097 A 
HETATM   17  C   UNL     1      41.150  -9.162   3.772  1.00  0.00     0.019 A 
HETATM   18  C   UNL     1      39.791  -8.836   3.880  1.00  0.00     0.019 A 
HETATM   19  C   UNL     1      39.130  -9.510   2.877  1.00  0.00     0.097 A 
ENDBRANCH  12  15
ENDBRANCH   1   3
BRANCH   1  20
HETATM   20  N   UNL     1      41.572 -13.528   2.030  1.00  0.00    -0.334 N 
HETATM   21  C   UNL     1      42.422 -14.564   2.294  1.00  0.00     0.321 C 
HETATM   22  N   UNL     1      41.954 -15.508   3.166  1.00  0.00    -0.306 N 
HETATM   23  O   UNL     1      43.571 -14.477   1.872  1.00  0.00    -0.247 OA
HETATM   24  H   UNL     1      41.329 -15.127   3.850  1.00  0.00     0.171 HD
HETATM   25  H   UNL     1      42.061 -12.880   1.421  1.00  0.00     0.165 HD
BRANCH  22  26
HETATM   26  C   UNL     1      42.727 -16.608   3.605  1.00  0.00     0.071 A 
HETATM   27  C   UNL     1      43.400 -16.638   4.839  1.00  0.00     0.097 A 
HETATM   28  C   UNL     1      44.108 -17.796   5.206  1.00  0.00     0.077 A 
HETATM   29  C   UNL     1      44.186 -18.898   4.342  1.00  0.00     0.092 A 
HETATM   30  C   UNL     1      43.549 -18.827   3.096  1.00  0.00     0.069 A 
HETATM   31 CL   UNL     1      43.596 -20.142   1.973  1.00  0.00    -0.081 Cl
HETATM   32  C   UNL     1      42.842 -17.685   2.721  1.00  0.00     0.059 A 
BRANCH  27  33
HETATM   33  O   UNL     1      43.369 -15.486   5.582  1.00  0.00    -0.354 OA
HETATM   34  C   UNL     1      42.605 -15.494   6.780  1.00  0.00     0.210 C 
ENDBRANCH  27  33
BRANCH  29  35
HETATM   35  O   UNL     1      44.843 -20.066   4.624  1.00  0.00    -0.354 OA
HETATM   36  C   UNL     1      44.165 -21.036   5.411  1.00  0.00     0.210 C 
ENDBRANCH  29  35
ENDBRANCH  22  26
ENDBRANCH   1  20
TORSDOF 7
ENDMDL
MODEL 2
REMARK VINA RESULT:      -7.9      3.386      6.077
REMARK  7 active torsions:
REMARK  status: ('A' for Active; 'I' for Inactive)
REMARK    1  A    between atoms: C_2  and  N_3 
REMARK    2  A    between atoms: C_8  and  C_9 
REMARK    3  A    between atoms: C_9  and  N_10 
REMARK       I    between atoms: N_10  and  C_11 
REMARK       I    between atoms: C_11  and  N_12 
REMARK    4  A    between atoms: N_12  and  C_13 
REMARK    5  A    between atoms: C_14  and  O_15 
REMARK    6  A    between atoms: C_18  and  O_19 
REMARK    7  A    between atoms: C_26  and  N_27 
ROOT
HETATM    1  C   UNL     1      42.183 -12.077   3.187  1.00  0.00     0.118 C 
HETATM    2  C   UNL     1      42.074 -11.250   1.908  1.00  0.00     0.037 C 
ENDROOT
BRANCH   1   3
HETATM    3  C   UNL     1      41.968 -11.209   4.431  1.00  0.00     0.006 A 
HETATM    4  C   UNL     1      42.775 -11.330   5.652  1.00  0.00    -0.031 A 
HETATM    5  C   UNL     1      42.425 -10.401   6.609  1.00  0.00     0.017 A 
HETATM    6  C   UNL     1      43.915 -12.282   5.919  1.00  0.00     0.068 C 
HETATM    7  C   UNL     1      43.048 -10.252   7.957  1.00  0.00     0.281 C 
HETATM    8  S   UNL     1      41.166  -9.403   6.110  1.00  0.00    -0.074 SA
HETATM    9  N   UNL     1      44.411 -10.932   8.017  1.00  0.00    -0.067 N 
HETATM   10  H   UNL     1      44.621 -11.070   9.014  1.00  0.00     0.280 HD
HETATM   11  C   UNL     1      44.323 -12.323   7.404  1.00  0.00     0.240 C 
HETATM   12  C   UNL     1      41.018 -10.195   4.600  1.00  0.00     0.089 A 
BRANCH   9  13
HETATM   13  C   UNL     1      45.537 -10.100   7.440  1.00  0.00     0.231 C 
HETATM   14  C   UNL     1      45.881  -8.955   8.377  1.00  0.00     0.034 C 
ENDBRANCH   9  13
BRANCH  12  15
HETATM   15  N   UNL     1      39.971  -9.738   3.756  1.00  0.00    -0.327 N 
HETATM   16  C   UNL     1      39.899  -8.506   3.108  1.00  0.00     0.097 A 
HETATM   17  C   UNL     1      38.745  -8.424   2.362  1.00  0.00     0.019 A 
HETATM   18  C   UNL     1      38.049  -9.625   2.557  1.00  0.00     0.019 A 
HETATM   19  C   UNL     1      38.800 -10.394   3.418  1.00  0.00     0.097 A 
ENDBRANCH  12  15
ENDBRANCH   1   3
BRANCH   1  20
HETATM   20  N   UNL     1      41.332 -13.262   3.315  1.00  0.00    -0.334 N 
HETATM   21  C   UNL     1      41.600 -14.521   3.773  1.00  0.00     0.321 C 
HETATM   22  N   UNL     1      42.824 -15.028   3.434  1.00  0.00    -0.306 N 
HETATM   23  O   UNL     1      40.679 -15.143   4.292  1.00  0.00    -0.247 OA
HETATM   24  H   UNL     1      43.153 -14.688   2.551  1.00  0.00     0.171 HD
HETATM   25  H   UNL     1      40.382 -13.035   3.587  1.00  0.00     0.165 HD
BRANCH  22  26
HETATM   26  C   UNL     1      43.238 -16.340   3.764  1.00  0.00     0.071 A 
HETATM   27  C   UNL     1      43.695 -16.709   5.042  1.00  0.00     0.097 A 
HETATM   28  C   UNL     1      44.044 -18.048   5.286  1.00  0.00     0.077 A 
HETATM   29  C   UNL     1      43.983 -19.006   4.263  1.00  0.00     0.092 A 
HETATM   30  C   UNL     1      43.572 -18.606   2.985  1.00  0.00     0.069 A 
HETATM   31 CL   UNL     1      43.469 -19.725   1.669  1.00  0.00    -0.081 Cl
HETATM   32  C   UNL     1      43.222 -17.281   2.731  1.00  0.00     0.059 A 
BRANCH  27  33
HETATM   33  O   UNL     1      43.830 -15.698   5.959  1.00  0.00    -0.354 OA
HETATM   34  C   UNL     1      43.058 -15.779   7.149  1.00  0.00     0.210 C 
ENDBRANCH  27  33
BRANCH  29  35
HETATM   35  O   UNL     1      44.293 -20.331   4.416  1.00  0.00    -0.354 OA
HETATM   36  C   UNL     1      43.949 -20.956   5.646  1.00  0.00     0.210 C 
ENDBRANCH  29  35
ENDBRANCH  22  26
ENDBRANCH   1  20
TORSDOF 7
ENDMDL
MODEL 3
REMARK VINA RESULT:      -7.6      1.759      4.758
REMARK  7 active torsions:
REMARK  status: ('A' for Active; 'I' for Inactive)
REMARK    1  A    between atoms: C_2  and  N_3 
REMARK    2  A    between atoms: C_8  and  C_9 
REMARK    3  A    between atoms: C_9  and  N_10 
REMARK       I    between atoms: N_10  and  C_11 
REMARK       I    between atoms: C_11  and  N_12 
REMARK    4  A    between atoms: N_12  and  C_13 
REMARK    5  A    between atoms: C_14  and  O_15 
REMARK    6  A    between atoms: C_18  and  O_19 
REMARK    7  A    between atoms: C_26  and  N_27 
ROOT
HETATM    1  C   UNL     1      40.634 -13.043   0.834  1.00  0.00     0.118 C 
HETATM    2  C   UNL     1      40.949 -12.762  -0.635  1.00  0.00     0.037 C 
ENDROOT
BRANCH   1   3
HETATM    3  C   UNL     1      39.666 -12.002   1.404  1.00  0.00     0.006 A 
HETATM    4  C   UNL     1      39.647 -11.600   2.816  1.00  0.00    -0.031 A 
HETATM    5  C   UNL     1      38.723 -10.608   3.070  1.00  0.00     0.017 A 
HETATM    6  C   UNL     1      40.526 -12.104   3.934  1.00  0.00     0.068 C 
HETATM    7  C   UNL     1      38.455  -9.978   4.396  1.00  0.00     0.281 C 
HETATM    8  S   UNL     1      37.873 -10.150   1.692  1.00  0.00    -0.074 SA
HETATM    9  N   UNL     1      39.605 -10.214   5.367  1.00  0.00    -0.067 N 
HETATM   10  H   UNL     1      39.228 -10.049   6.308  1.00  0.00     0.280 HD
HETATM   11  C   UNL     1      40.024 -11.678   5.327  1.00  0.00     0.240 C 
HETATM   12  C   UNL     1      38.688 -11.285   0.703  1.00  0.00     0.089 A 
BRANCH   9  13
HETATM   13  C   UNL     1      40.767  -9.261   5.184  1.00  0.00     0.231 C 
HETATM   14  C   UNL     1      41.754  -9.406   6.329  1.00  0.00     0.034 C 
ENDBRANCH   9  13
BRANCH  12  15
HETATM   15  N   UNL     1      38.262 -11.351  -0.650  1.00  0.00    -0.327 N 
HETATM   16  C   UNL     1      38.431 -10.372  -1.628  1.00  0.00     0.097 A 
HETATM   17  C   UNL     1      37.905 -10.797  -2.827  1.00  0.00     0.019 A 
HETATM   18  C   UNL     1      37.364 -12.071  -2.604  1.00  0.00     0.019 A 
HETATM   19  C   UNL     1      37.575 -12.376  -1.278  1.00  0.00     0.097 A 
ENDBRANCH  12  15
ENDBRANCH   1   3
BRANCH   1  20
HETATM   20  N   UNL     1      40.126 -14.369   1.188  1.00  0.00    -0.334 N 
HETATM   21  C   UNL     1      40.628 -15.340   2.007  1.00  0.00     0.321 C 
HETATM   22  N   UNL     1      41.986 -15.506   1.969  1.00  0.00    -0.306 N 
HETATM   23  O   UNL     1      39.827 -16.079   2.568  1.00  0.00    -0.247 OA
HETATM   24  H   UNL     1      42.376 -15.294   1.071  1.00  0.00     0.171 HD
HETATM   25  H   UNL     1      39.116 -14.392   1.272  1.00  0.00     0.165 HD
BRANCH  22  26
HETATM   26  C   UNL     1      42.665 -16.509   2.698  1.00  0.00     0.071 A 
HETATM   27  C   UNL     1      43.199 -16.304   3.983  1.00  0.00     0.097 A 
HETATM   28  C   UNL     1      43.820 -17.376   4.647  1.00  0.00     0.077 A 
HETATM   29  C   UNL     1      43.950 -18.628   4.029  1.00  0.00     0.092 A 
HETATM   30  C   UNL     1      43.454 -18.796   2.729  1.00  0.00     0.069 A 
HETATM   31 CL   UNL     1      43.574 -20.308   1.896  1.00  0.00    -0.081 Cl
HETATM   32  C   UNL     1      42.835 -17.741   2.060  1.00  0.00     0.059 A 
BRANCH  27  33
HETATM   33  O   UNL     1      43.131 -15.027   4.478  1.00  0.00    -0.354 OA
HETATM   34  C   UNL     1      42.380 -14.820   5.667  1.00  0.00     0.210 C 
ENDBRANCH  27  33
BRANCH  29  35
HETATM   35  O   UNL     1      44.530 -19.727   4.606  1.00  0.00    -0.354 OA
HETATM   36  C   UNL     1      43.793 -20.417   5.607  1.00  0.00     0.210 C 
ENDBRANCH  29  35
ENDBRANCH  22  26
ENDBRANCH   1  20
TORSDOF 7
ENDMDL
MODEL 4
REMARK VINA RESULT:      -7.5      1.853      2.421
REMARK  7 active torsions:
REMARK  status: ('A' for Active; 'I' for Inactive)
REMARK    1  A    between atoms: C_2  and  N_3 
REMARK    2  A    between atoms: C_8  and  C_9 
REMARK    3  A    between atoms: C_9  and  N_10 
REMARK       I    between atoms: N_10  and  C_11 
REMARK       I    between atoms: C_11  and  N_12 
REMARK    4  A    between atoms: N_12  and  C_13 
REMARK    5  A    between atoms: C_14  and  O_15 
REMARK    6  A    between atoms: C_18  and  O_19 
REMARK    7  A    between atoms: C_26  and  N_27 
ROOT
HETATM    1  C   UNL     1      40.692 -13.607   0.959  1.00  0.00     0.118 C 
HETATM    2  C   UNL     1      39.758 -14.721   1.428  1.00  0.00     0.037 C 
ENDROOT
BRANCH   1   3
HETATM    3  C   UNL     1      40.151 -12.227   1.345  1.00  0.00     0.006 A 
HETATM    4  C   UNL     1      39.570 -11.285   0.380  1.00  0.00    -0.031 A 
HETATM    5  C   UNL     1      39.104 -10.135   0.981  1.00  0.00     0.017 A 
HETATM    6  C   UNL     1      39.399 -11.471  -1.108  1.00  0.00     0.068 C 
HETATM    7  C   UNL     1      38.458  -8.983   0.286  1.00  0.00     0.281 C 
HETATM    8  S   UNL     1      39.345 -10.133   2.646  1.00  0.00    -0.074 SA
HETATM    9  N   UNL     1      37.953  -9.378  -1.096  1.00  0.00    -0.067 N 
HETATM   10  H   UNL     1      37.827  -8.503  -1.619  1.00  0.00     0.280 HD
HETATM   11  C   UNL     1      39.029 -10.164  -1.835  1.00  0.00     0.240 C 
HETATM   12  C   UNL     1      40.112 -11.663   2.626  1.00  0.00     0.089 A 
BRANCH   9  13
HETATM   13  C   UNL     1      36.612 -10.081  -1.081  1.00  0.00     0.231 C 
HETATM   14  C   UNL     1      35.764  -9.574   0.073  1.00  0.00     0.034 C 
ENDBRANCH   9  13
BRANCH  12  15
HETATM   15  N   UNL     1      40.602 -12.131   3.874  1.00  0.00    -0.327 N 
HETATM   16  C   UNL     1      41.812 -11.790   4.477  1.00  0.00     0.097 A 
HETATM   17  C   UNL     1      41.937 -12.425   5.692  1.00  0.00     0.019 A 
HETATM   18  C   UNL     1      40.789 -13.211   5.860  1.00  0.00     0.019 A 
HETATM   19  C   UNL     1      40.007 -13.032   4.740  1.00  0.00     0.097 A 
ENDBRANCH  12  15
ENDBRANCH   1   3
BRANCH   1  20
HETATM   20  N   UNL     1      42.097 -13.669   1.369  1.00  0.00    -0.334 N 
HETATM   21  C   UNL     1      42.870 -14.712   1.791  1.00  0.00     0.321 C 
HETATM   22  N   UNL     1      42.249 -15.621   2.603  1.00  0.00    -0.306 N 
HETATM   23  O   UNL     1      44.072 -14.661   1.552  1.00  0.00    -0.247 OA
HETATM   24  H   UNL     1      41.534 -15.207   3.170  1.00  0.00     0.171 HD
HETATM   25  H   UNL     1      42.690 -13.049   0.828  1.00  0.00     0.165 HD
BRANCH  22  26
HETATM   26  C   UNL     1      42.917 -16.722   3.187  1.00  0.00     0.071 A 
HETATM   27  C   UNL     1      43.481 -16.692   4.475  1.00  0.00     0.097 A 
HETATM   28  C   UNL     1      44.087 -17.852   4.986  1.00  0.00     0.077 A 
HETATM   29  C   UNL     1      44.173 -19.020   4.213  1.00  0.00     0.092 A 
HETATM   30  C   UNL     1      43.649 -19.012   2.914  1.00  0.00     0.069 A 
HETATM   31 CL   UNL     1      43.714 -20.411   1.897  1.00  0.00    -0.081 Cl
HETATM   32  C   UNL     1      43.044 -17.868   2.397  1.00  0.00     0.059 A 
BRANCH  27  33
HETATM   33  O   UNL     1      43.454 -15.486   5.127  1.00  0.00    -0.354 OA
HETATM   34  C   UNL     1      43.896 -15.456   6.477  1.00  0.00     0.210 C 
ENDBRANCH  27  33
BRANCH  29  35
HETATM   35  O   UNL     1      44.736 -20.195   4.636  1.00  0.00    -0.354 OA
HETATM   36  C   UNL     1      43.980 -21.013   5.519  1.00  0.00     0.210 C 
ENDBRANCH  29  35
ENDBRANCH  22  26
ENDBRANCH   1  20
TORSDOF 7
ENDMDL
MODEL 5
REMARK VINA RESULT:      -7.3      5.814      9.523
REMARK  7 active torsions:
REMARK  status: ('A' for Active; 'I' for Inactive)
REMARK    1  A    between atoms: C_2  and  N_3 
REMARK    2  A    between atoms: C_8  and  C_9 
REMARK    3  A    between atoms: C_9  and  N_10 
REMARK       I    between atoms: N_10  and  C_11 
REMARK       I    between atoms: C_11  and  N_12 
REMARK    4  A    between atoms: N_12  and  C_13 
REMARK    5  A    between atoms: C_14  and  O_15 
REMARK    6  A    between atoms: C_18  and  O_19 
REMARK    7  A    between atoms: C_26  and  N_27 
ROOT
HETATM    1  C   UNL     1      41.580  -8.711   7.295  1.00  0.00     0.118 C 
HETATM    2  C   UNL     1      41.543  -7.203   7.056  1.00  0.00     0.037 C 
ENDROOT
BRANCH   1   3
HETATM    3  C   UNL     1      42.139  -9.042   8.682  1.00  0.00     0.006 A 
HETATM    4  C   UNL     1      41.556  -8.536   9.932  1.00  0.00    -0.031 A 
HETATM    5  C   UNL     1      42.205  -9.019  11.049  1.00  0.00     0.017 A 
HETATM    6  C   UNL     1      40.358  -7.635  10.097  1.00  0.00     0.068 C 
HETATM    7  C   UNL     1      41.864  -8.703  12.467  1.00  0.00     0.281 C 
HETATM    8  S   UNL     1      43.485 -10.039  10.661  1.00  0.00    -0.074 SA
HETATM    9  N   UNL     1      40.450  -8.146  12.587  1.00  0.00    -0.067 N 
HETATM   10  H   UNL     1      40.405  -7.666  13.494  1.00  0.00     0.280 HD
HETATM   11  C   UNL     1      40.222  -7.077  11.527  1.00  0.00     0.240 C 
HETATM   12  C   UNL     1      43.241  -9.852   8.977  1.00  0.00     0.089 A 
BRANCH   9  13
HETATM   13  C   UNL     1      39.372  -9.209  12.598  1.00  0.00     0.231 C 
HETATM   14  C   UNL     1      39.907 -10.499  13.196  1.00  0.00     0.034 C 
ENDBRANCH   9  13
BRANCH  12  15
HETATM   15  N   UNL     1      44.174 -10.514   8.135  1.00  0.00    -0.327 N 
HETATM   16  C   UNL     1      43.965 -11.692   7.421  1.00  0.00     0.097 A 
HETATM   17  C   UNL     1      45.091 -12.022   6.701  1.00  0.00     0.019 A 
HETATM   18  C   UNL     1      46.054 -11.042   6.981  1.00  0.00     0.019 A 
HETATM   19  C   UNL     1      45.484 -10.154   7.865  1.00  0.00     0.097 A 
ENDBRANCH  12  15
ENDBRANCH   1   3
BRANCH   1  20
HETATM   20  N   UNL     1      40.337  -9.467   7.121  1.00  0.00    -0.334 N 
HETATM   21  C   UNL     1      40.107 -10.736   6.673  1.00  0.00     0.321 C 
HETATM   22  N   UNL     1      40.894 -11.151   5.634  1.00  0.00    -0.306 N 
HETATM   23  O   UNL     1      39.125 -11.324   7.114  1.00  0.00    -0.247 OA
HETATM   24  H   UNL     1      41.163 -10.400   5.029  1.00  0.00     0.171 HD
HETATM   25  H   UNL     1      39.655  -9.271   7.845  1.00  0.00     0.165 HD
BRANCH  22  26
HETATM   26  C   UNL     1      40.745 -12.408   5.003  1.00  0.00     0.071 A 
HETATM   27  C   UNL     1      40.048 -12.589   3.794  1.00  0.00     0.097 A 
HETATM   28  C   UNL     1      39.991 -13.871   3.222  1.00  0.00     0.077 A 
HETATM   29  C   UNL     1      40.580 -14.973   3.859  1.00  0.00     0.092 A 
HETATM   30  C   UNL     1      41.226 -14.778   5.087  1.00  0.00     0.069 A 
HETATM   31 CL   UNL     1      41.978 -16.084   5.938  1.00  0.00    -0.081 Cl
HETATM   32  C   UNL     1      41.291 -13.511   5.665  1.00  0.00     0.059 A 
BRANCH  27  33
HETATM   33  O   UNL     1      39.407 -11.489   3.286  1.00  0.00    -0.354 OA
HETATM   34  C   UNL     1      38.577 -11.676   2.148  1.00  0.00     0.210 C 
ENDBRANCH  27  33
BRANCH  29  35
HETATM   35  O   UNL     1      40.580 -16.251   3.367  1.00  0.00    -0.354 OA
HETATM   36  C   UNL     1      41.523 -16.571   2.353  1.00  0.00     0.210 C 
ENDBRANCH  29  35
ENDBRANCH  22  26
ENDBRANCH   1  20
TORSDOF 7
ENDMDL
MODEL 6
REMARK VINA RESULT:      -7.3      4.409      8.808
REMARK  7 active torsions:
REMARK  status: ('A' for Active; 'I' for Inactive)
REMARK    1  A    between atoms: C_2  and  N_3 
REMARK    2  A    between atoms: C_8  and  C_9 
REMARK    3  A    between atoms: C_9  and  N_10 
REMARK       I    between atoms: N_10  and  C_11 
REMARK       I    between atoms: C_11  and  N_12 
REMARK    4  A    between atoms: N_12  and  C_13 
REMARK    5  A    between atoms: C_14  and  O_15 
REMARK    6  A    between atoms: C_18  and  O_19 
REMARK    7  A    between atoms: C_26  and  N_27 
ROOT
HETATM    1  C   UNL     1      41.529 -13.665   4.413  1.00  0.00     0.118 C 
HETATM    2  C   UNL     1      40.009 -13.645   4.268  1.00  0.00     0.037 C 
ENDROOT
BRANCH   1   3
HETATM    3  C   UNL     1      42.141 -14.872   3.696  1.00  0.00     0.006 A 
HETATM    4  C   UNL     1      43.056 -15.822   4.343  1.00  0.00    -0.031 A 
HETATM    5  C   UNL     1      43.424 -16.853   3.505  1.00  0.00     0.017 A 
HETATM    6  C   UNL     1      43.556 -15.803   5.766  1.00  0.00     0.068 C 
HETATM    7  C   UNL     1      44.338 -17.981   3.852  1.00  0.00     0.281 C 
HETATM    8  S   UNL     1      42.732 -16.723   1.977  1.00  0.00    -0.074 SA
HETATM    9  N   UNL     1      44.479 -18.138   5.361  1.00  0.00    -0.067 N 
HETATM   10  H   UNL     1      45.334 -18.687   5.515  1.00  0.00     0.280 HD
HETATM   11  C   UNL     1      44.724 -16.778   6.002  1.00  0.00     0.240 C 
HETATM   12  C   UNL     1      41.931 -15.261   2.367  1.00  0.00     0.089 A 
BRANCH   9  13
HETATM   13  C   UNL     1      43.343 -18.901   6.007  1.00  0.00     0.231 C 
HETATM   14  C   UNL     1      43.576 -20.397   5.887  1.00  0.00     0.034 C 
ENDBRANCH   9  13
BRANCH  12  15
HETATM   15  N   UNL     1      41.198 -14.652   1.314  1.00  0.00    -0.327 N 
HETATM   16  C   UNL     1      40.149 -15.218   0.592  1.00  0.00     0.097 A 
HETATM   17  C   UNL     1      39.670 -14.323  -0.339  1.00  0.00     0.019 A 
HETATM   18  C   UNL     1      40.450 -13.163  -0.225  1.00  0.00     0.019 A 
HETATM   19  C   UNL     1      41.379 -13.394   0.766  1.00  0.00     0.097 A 
ENDBRANCH  12  15
ENDBRANCH   1   3
BRANCH   1  20
HETATM   20  N   UNL     1      42.276 -12.474   4.002  1.00  0.00    -0.334 N 
HETATM   21  C   UNL     1      42.826 -11.457   4.729  1.00  0.00     0.321 C 
HETATM   22  N   UNL     1      42.095 -11.034   5.805  1.00  0.00    -0.306 N 
HETATM   23  O   UNL     1      43.822 -10.907   4.272  1.00  0.00    -0.247 OA
HETATM   24  H   UNL     1      41.108 -11.132   5.665  1.00  0.00     0.171 HD
HETATM   25  H   UNL     1      42.887 -12.648   3.212  1.00  0.00     0.165 HD
BRANCH  22  26
HETATM   26  C   UNL     1      42.480  -9.947   6.625  1.00  0.00     0.071 A 
HETATM   27  C   UNL     1      41.854  -8.688   6.585  1.00  0.00     0.097 A 
HETATM   28  C   UNL     1      42.280  -7.683   7.470  1.00  0.00     0.077 A 
HETATM   29  C   UNL     1      43.343  -7.906   8.357  1.00  0.00     0.092 A 
HETATM   30  C   UNL     1      43.983  -9.152   8.345  1.00  0.00     0.069 A 
HETATM   31 CL   UNL     1      45.302  -9.509   9.408  1.00  0.00    -0.081 Cl
HETATM   32  C   UNL     1      43.570 -10.158   7.473  1.00  0.00     0.059 A 
BRANCH  27  33
HETATM   33  O   UNL     1      40.898  -8.510   5.619  1.00  0.00    -0.354 OA
HETATM   34  C   UNL     1      39.733  -7.776   5.971  1.00  0.00     0.210 C 
ENDBRANCH  27  33
BRANCH  29  35
HETATM   35  O   UNL     1      43.813  -6.988   9.258  1.00  0.00    -0.354 OA
HETATM   36  C   UNL     1      42.880  -6.079   9.827  1.00  0.00     0.210 C 
ENDBRANCH  29  35
ENDBRANCH  22  26
ENDBRANCH   1  20
TORSDOF 7
ENDMDL
MODEL 7
REMARK VINA RESULT:      -7.2      3.847      7.969
REMARK  7 active torsions:
REMARK  status: ('A' for Active; 'I' for Inactive)
REMARK    1  A    between atoms: C_2  and  N_3 
REMARK    2  A    between atoms: C_8  and  C_9 
REMARK    3  A    between atoms: C_9  and  N_10 
REMARK       I    between atoms: N_10  and  C_11 
REMARK       I    between atoms: C_11  and  N_12 
REMARK    4  A    between atoms: N_12  and  C_13 
REMARK    5  A    between atoms: C_14  and  O_15 
REMARK    6  A    between atoms: C_18  and  O_19 
REMARK    7  A    between atoms: C_26  and  N_27 
ROOT
HETATM    1  C   UNL     1      43.562 -11.873   3.408  1.00  0.00     0.118 C 
HETATM    2  C   UNL     1      44.859 -11.529   4.138  1.00  0.00     0.037 C 
ENDROOT
BRANCH   1   3
HETATM    3  C   UNL     1      42.732 -12.889   4.198  1.00  0.00     0.006 A 
HETATM    4  C   UNL     1      42.626 -14.308   3.833  1.00  0.00    -0.031 A 
HETATM    5  C   UNL     1      41.867 -15.028   4.731  1.00  0.00     0.017 A 
HETATM    6  C   UNL     1      43.274 -15.015   2.668  1.00  0.00     0.068 C 
HETATM    7  C   UNL     1      41.566 -16.488   4.652  1.00  0.00     0.281 C 
HETATM    8  S   UNL     1      41.268 -14.075   5.981  1.00  0.00    -0.074 SA
HETATM    9  N   UNL     1      42.543 -17.208   3.730  1.00  0.00    -0.067 N 
HETATM   10  H   UNL     1      42.097 -18.098   3.476  1.00  0.00     0.280 HD
HETATM   11  C   UNL     1      42.702 -16.426   2.433  1.00  0.00     0.240 C 
HETATM   12  C   UNL     1      41.978 -12.649   5.353  1.00  0.00     0.089 A 
BRANCH   9  13
HETATM   13  C   UNL     1      43.866 -17.548   4.383  1.00  0.00     0.231 C 
HETATM   14  C   UNL     1      43.637 -18.152   5.757  1.00  0.00     0.034 C 
ENDBRANCH   9  13
BRANCH  12  15
HETATM   15  N   UNL     1      41.701 -11.451   6.063  1.00  0.00    -0.327 N 
HETATM   16  C   UNL     1      42.589 -10.723   6.852  1.00  0.00     0.097 A 
HETATM   17  C   UNL     1      41.969  -9.607   7.367  1.00  0.00     0.019 A 
HETATM   18  C   UNL     1      40.642  -9.635   6.915  1.00  0.00     0.019 A 
HETATM   19  C   UNL     1      40.499 -10.768   6.146  1.00  0.00     0.097 A 
ENDBRANCH  12  15
ENDBRANCH   1   3
BRANCH   1  20
HETATM   20  N   UNL     1      42.675 -10.773   3.023  1.00  0.00    -0.334 N 
HETATM   21  C   UNL     1      41.588 -10.735   2.198  1.00  0.00     0.321 C 
HETATM   22  N   UNL     1      41.674 -11.500   1.068  1.00  0.00    -0.306 N 
HETATM   23  O   UNL     1      40.716  -9.908   2.445  1.00  0.00    -0.247 OA
HETATM   24  H   UNL     1      42.613 -11.586   0.729  1.00  0.00     0.171 HD
HETATM   25  H   UNL     1      42.503 -10.124   3.784  1.00  0.00     0.165 HD
BRANCH  22  26
HETATM   26  C   UNL     1      40.671 -11.525   0.071  1.00  0.00     0.071 A 
HETATM   27  C   UNL     1      39.646 -12.487   0.028  1.00  0.00     0.097 A 
HETATM   28  C   UNL     1      38.669 -12.404  -0.979  1.00  0.00     0.077 A 
HETATM   29  C   UNL     1      38.729 -11.405  -1.960  1.00  0.00     0.092 A 
HETATM   30  C   UNL     1      39.786 -10.486  -1.927  1.00  0.00     0.069 A 
HETATM   31 CL   UNL     1      39.933  -9.223  -3.101  1.00  0.00    -0.081 Cl
HETATM   32  C   UNL     1      40.761 -10.557  -0.933  1.00  0.00     0.059 A 
BRANCH  27  33
HETATM   33  O   UNL     1      39.715 -13.496   0.954  1.00  0.00    -0.354 OA
HETATM   34  C   UNL     1      40.069 -14.793   0.493  1.00  0.00     0.210 C 
ENDBRANCH  27  33
BRANCH  29  35
HETATM   35  O   UNL     1      37.814 -11.245  -2.968  1.00  0.00    -0.354 OA
HETATM   36  C   UNL     1      36.535 -10.728  -2.627  1.00  0.00     0.210 C 
ENDBRANCH  29  35
ENDBRANCH  22  26
ENDBRANCH   1  20
TORSDOF 7
ENDMDL
MODEL 8
REMARK VINA RESULT:      -7.0      4.781      8.858
REMARK  7 active torsions:
REMARK  status: ('A' for Active; 'I' for Inactive)
REMARK    1  A    between atoms: C_2  and  N_3 
REMARK    2  A    between atoms: C_8  and  C_9 
REMARK    3  A    between atoms: C_9  and  N_10 
REMARK       I    between atoms: N_10  and  C_11 
REMARK       I    between atoms: C_11  and  N_12 
REMARK    4  A    between atoms: N_12  and  C_13 
REMARK    5  A    between atoms: C_14  and  O_15 
REMARK    6  A    between atoms: C_18  and  O_19 
REMARK    7  A    between atoms: C_26  and  N_27 
ROOT
HETATM    1  C   UNL     1      42.078 -13.840   5.448  1.00  0.00     0.118 C 
HETATM    2  C   UNL     1      40.776 -14.094   6.205  1.00  0.00     0.037 C 
ENDROOT
BRANCH   1   3
HETATM    3  C   UNL     1      42.287 -14.876   4.339  1.00  0.00     0.006 A 
HETATM    4  C   UNL     1      43.189 -16.028   4.467  1.00  0.00    -0.031 A 
HETATM    5  C   UNL     1      43.161 -16.844   3.355  1.00  0.00     0.017 A 
HETATM    6  C   UNL     1      44.048 -16.407   5.648  1.00  0.00     0.068 C 
HETATM    7  C   UNL     1      43.955 -18.094   3.164  1.00  0.00     0.281 C 
HETATM    8  S   UNL     1      42.113 -16.280   2.166  1.00  0.00    -0.074 SA
HETATM    9  N   UNL     1      44.470 -18.634   4.493  1.00  0.00    -0.067 N 
HETATM   10  H   UNL     1      45.242 -19.272   4.266  1.00  0.00     0.280 HD
HETATM   11  C   UNL     1      45.078 -17.502   5.311  1.00  0.00     0.240 C 
HETATM   12  C   UNL     1      41.675 -14.902   3.081  1.00  0.00     0.089 A 
BRANCH   9  13
HETATM   13  C   UNL     1      43.446 -19.439   5.266  1.00  0.00     0.231 C 
HETATM   14  C   UNL     1      43.872 -20.895   5.347  1.00  0.00     0.034 C 
ENDBRANCH   9  13
BRANCH  12  15
HETATM   15  N   UNL     1      40.786 -13.992   2.449  1.00  0.00    -0.327 N 
HETATM   16  C   UNL     1      39.504 -13.646   2.873  1.00  0.00     0.097 A 
HETATM   17  C   UNL     1      38.950 -12.720   2.018  1.00  0.00     0.019 A 
HETATM   18  C   UNL     1      39.893 -12.486   1.007  1.00  0.00     0.019 A 
HETATM   19  C   UNL     1      40.985 -13.280   1.278  1.00  0.00     0.097 A 
ENDBRANCH  12  15
ENDBRANCH   1   3
BRANCH   1  20
HETATM   20  N   UNL     1      42.290 -12.513   4.868  1.00  0.00    -0.334 N 
HETATM   21  C   UNL     1      42.714 -11.341   5.425  1.00  0.00     0.321 C 
HETATM   22  N   UNL     1      42.248 -11.079   6.684  1.00  0.00    -0.306 N 
HETATM   23  O   UNL     1      43.323 -10.557   4.705  1.00  0.00    -0.247 OA
HETATM   24  H   UNL     1      41.337 -11.463   6.847  1.00  0.00     0.171 HD
HETATM   25  H   UNL     1      42.659 -12.553   3.924  1.00  0.00     0.165 HD
BRANCH  22  26
HETATM   26  C   UNL     1      42.529  -9.882   7.382  1.00  0.00     0.071 A 
HETATM   27  C   UNL     1      43.669  -9.704   8.187  1.00  0.00     0.097 A 
HETATM   28  C   UNL     1      43.884  -8.461   8.807  1.00  0.00     0.077 A 
HETATM   29  C   UNL     1      42.959  -7.417   8.667  1.00  0.00     0.092 A 
HETATM   30  C   UNL     1      41.806  -7.632   7.901  1.00  0.00     0.069 A 
HETATM   31 CL   UNL     1      40.616  -6.395   7.678  1.00  0.00    -0.081 Cl
HETATM   32  C   UNL     1      41.582  -8.860   7.280  1.00  0.00     0.059 A 
BRANCH  27  33
HETATM   33  O   UNL     1      44.470 -10.803   8.364  1.00  0.00    -0.354 OA
HETATM   34  C   UNL     1      45.741 -10.802   7.727  1.00  0.00     0.210 C 
ENDBRANCH  27  33
BRANCH  29  35
HETATM   35  O   UNL     1      43.096  -6.173   9.226  1.00  0.00    -0.354 OA
HETATM   36  C   UNL     1      42.647  -5.994  10.563  1.00  0.00     0.210 C 
ENDBRANCH  29  35
ENDBRANCH  22  26
ENDBRANCH   1  20
TORSDOF 7
ENDMDL
MODEL 9
REMARK VINA RESULT:      -7.0      4.287      8.260
REMARK  7 active torsions:
REMARK  status: ('A' for Active; 'I' for Inactive)
REMARK    1  A    between atoms: C_2  and  N_3 
REMARK    2  A    between atoms: C_8  and  C_9 
REMARK    3  A    between atoms: C_9  and  N_10 
REMARK       I    between atoms: N_10  and  C_11 
REMARK       I    between atoms: C_11  and  N_12 
REMARK    4  A    between atoms: N_12  and  C_13 
REMARK    5  A    between atoms: C_14  and  O_15 
REMARK    6  A    between atoms: C_18  and  O_19 
REMARK    7  A    between atoms: C_26  and  N_27 
ROOT
HETATM    1  C   UNL     1      41.947 -11.423   4.692  1.00  0.00     0.118 C 
HETATM    2  C   UNL     1      40.472 -11.300   5.072  1.00  0.00     0.037 C 
ENDROOT
BRANCH   1   3
HETATM    3  C   UNL     1      42.551 -12.727   5.221  1.00  0.00     0.006 A 
HETATM    4  C   UNL     1      42.081 -14.059   4.820  1.00  0.00    -0.031 A 
HETATM    5  C   UNL     1      42.822 -15.073   5.391  1.00  0.00     0.017 A 
HETATM    6  C   UNL     1      40.968 -14.399   3.860  1.00  0.00     0.068 C 
HETATM    7  C   UNL     1      42.608 -16.536   5.189  1.00  0.00     0.281 C 
HETATM    8  S   UNL     1      44.043 -14.495   6.394  1.00  0.00    -0.074 SA
HETATM    9  N   UNL     1      41.776 -16.809   3.941  1.00  0.00    -0.067 N 
HETATM   10  H   UNL     1      41.407 -17.763   4.043  1.00  0.00     0.280 HD
HETATM   11  C   UNL     1      40.566 -15.885   3.913  1.00  0.00     0.240 C 
HETATM   12  C   UNL     1      43.610 -12.860   6.127  1.00  0.00     0.089 A 
BRANCH   9  13
HETATM   13  C   UNL     1      42.574 -16.780   2.654  1.00  0.00     0.231 C 
HETATM   14  C   UNL     1      43.277 -18.109   2.439  1.00  0.00     0.034 C 
ENDBRANCH   9  13
BRANCH  12  15
HETATM   15  N   UNL     1      44.355 -11.893   6.852  1.00  0.00    -0.327 N 
HETATM   16  C   UNL     1      43.950 -11.215   8.000  1.00  0.00     0.097 A 
HETATM   17  C   UNL     1      44.944 -10.367   8.432  1.00  0.00     0.019 A 
HETATM   18  C   UNL     1      46.004 -10.488   7.523  1.00  0.00     0.019 A 
HETATM   19  C   UNL     1      45.617 -11.400   6.566  1.00  0.00     0.097 A 
ENDBRANCH  12  15
ENDBRANCH   1   3
BRANCH   1  20
HETATM   20  N   UNL     1      42.306 -11.304   3.277  1.00  0.00    -0.334 N 
HETATM   21  C   UNL     1      41.544 -11.069   2.169  1.00  0.00     0.321 C 
HETATM   22  N   UNL     1      40.321 -11.680   2.148  1.00  0.00    -0.306 N 
HETATM   23  O   UNL     1      42.074 -10.483   1.230  1.00  0.00    -0.247 OA
HETATM   24  H   UNL     1      40.317 -12.554   2.637  1.00  0.00     0.171 HD
HETATM   25  H   UNL     1      43.198 -10.843   3.137  1.00  0.00     0.165 HD
BRANCH  22  26
HETATM   26  C   UNL     1      39.433 -11.602   1.050  1.00  0.00     0.071 A 
HETATM   27  C   UNL     1      39.476 -12.485  -0.044  1.00  0.00     0.097 A 
HETATM   28  C   UNL     1      38.523 -12.354  -1.069  1.00  0.00     0.077 A 
HETATM   29  C   UNL     1      37.563 -11.333  -1.034  1.00  0.00     0.092 A 
HETATM   30  C   UNL     1      37.570 -10.434   0.040  1.00  0.00     0.069 A 
HETATM   31 CL   UNL     1      36.420  -9.147   0.159  1.00  0.00    -0.081 Cl
HETATM   32  C   UNL     1      38.509 -10.554   1.064  1.00  0.00     0.059 A 
BRANCH  27  33
HETATM   33  O   UNL     1      40.508 -13.388  -0.062  1.00  0.00    -0.354 OA
HETATM   34  C   UNL     1      40.202 -14.746   0.225  1.00  0.00     0.210 C 
ENDBRANCH  27  33
BRANCH  29  35
HETATM   35  O   UNL     1      36.594 -11.140  -1.983  1.00  0.00    -0.354 OA
HETATM   36  C   UNL     1      36.975 -10.522  -3.205  1.00  0.00     0.210 C 
ENDBRANCH  29  35
ENDBRANCH  22  26
ENDBRANCH   1  20
TORSDOF 7
ENDMDL
MODEL 10
REMARK VINA RESULT:      -7.0     16.480     18.454
REMARK  7 active torsions:
REMARK  status: ('A' for Active; 'I' for Inactive)
REMARK    1  A    between atoms: C_2  and  N_3 
REMARK    2  A    between atoms: C_8  and  C_9 
REMARK    3  A    between atoms: C_9  and  N_10 
REMARK       I    between atoms: N_10  and  C_11 
REMARK       I    between atoms: C_11  and  N_12 
REMARK    4  A    between atoms: N_12  and  C_13 
REMARK    5  A    between atoms: C_14  and  O_15 
REMARK    6  A    between atoms: C_18  and  O_19 
REMARK    7  A    between atoms: C_26  and  N_27 
ROOT
HETATM    1  C   UNL     1      44.511 -31.727   0.598  1.00  0.00     0.118 C 
HETATM    2  C   UNL     1      44.849 -32.689  -0.539  1.00  0.00     0.037 C 
ENDROOT
BRANCH   1   3
HETATM    3  C   UNL     1      45.527 -30.584   0.681  1.00  0.00     0.006 A 
HETATM    4  C   UNL     1      46.300 -30.272   1.890  1.00  0.00    -0.031 A 
HETATM    5  C   UNL     1      47.188 -29.235   1.695  1.00  0.00     0.017 A 
HETATM    6  C   UNL     1      46.253 -30.972   3.226  1.00  0.00     0.068 C 
HETATM    7  C   UNL     1      48.120 -28.674   2.718  1.00  0.00     0.281 C 
HETATM    8  S   UNL     1      47.124 -28.614   0.133  1.00  0.00    -0.074 SA
HETATM    9  N   UNL     1      48.322 -29.644   3.876  1.00  0.00    -0.067 N 
HETATM   10  H   UNL     1      48.690 -29.087   4.657  1.00  0.00     0.280 HD
HETATM   11  C   UNL     1      46.977 -30.188   4.337  1.00  0.00     0.240 C 
HETATM   12  C   UNL     1      45.881 -29.692  -0.339  1.00  0.00     0.089 A 
BRANCH   9  13
HETATM   13  C   UNL     1      49.337 -30.732   3.594  1.00  0.00     0.231 C 
HETATM   14  C   UNL     1      50.626 -30.128   3.066  1.00  0.00     0.034 C 
ENDBRANCH   9  13
BRANCH  12  15
HETATM   15  N   UNL     1      45.383 -29.529  -1.659  1.00  0.00    -0.327 N 
HETATM   16  C   UNL     1      46.100 -29.671  -2.846  1.00  0.00     0.097 A 
HETATM   17  C   UNL     1      45.280 -29.454  -3.930  1.00  0.00     0.019 A 
HETATM   18  C   UNL     1      44.010 -29.141  -3.423  1.00  0.00     0.019 A 
HETATM   19  C   UNL     1      44.103 -29.174  -2.049  1.00  0.00     0.097 A 
ENDBRANCH  12  15
ENDBRANCH   1   3
BRANCH   1  20
HETATM   20  N   UNL     1      43.171 -31.138   0.628  1.00  0.00    -0.334 N 
HETATM   21  C   UNL     1      42.236 -31.069   1.621  1.00  0.00     0.321 C 
HETATM   22  N   UNL     1      42.126 -32.181   2.411  1.00  0.00    -0.306 N 
HETATM   23  O   UNL     1      41.474 -30.109   1.617  1.00  0.00    -0.247 OA
HETATM   24  H   UNL     1      42.338 -33.027   1.919  1.00  0.00     0.171 HD
HETATM   25  H   UNL     1      43.108 -30.281   0.090  1.00  0.00     0.165 HD
BRANCH  22  26
HETATM   26  C   UNL     1      41.164 -32.308   3.439  1.00  0.00     0.071 A 
HETATM   27  C   UNL     1      41.428 -32.007   4.788  1.00  0.00     0.097 A 
HETATM   28  C   UNL     1      40.394 -32.124   5.732  1.00  0.00     0.077 A 
HETATM   29  C   UNL     1      39.121 -32.576   5.355  1.00  0.00     0.092 A 
HETATM   30  C   UNL     1      38.894 -32.917   4.015  1.00  0.00     0.069 A 
HETATM   31 CL   UNL     1      37.352 -33.481   3.467  1.00  0.00    -0.081 Cl
HETATM   32  C   UNL     1      39.911 -32.804   3.068  1.00  0.00     0.059 A 
BRANCH  27  33
HETATM   33  O   UNL     1      42.722 -31.677   5.099  1.00  0.00    -0.354 OA
HETATM   34  C   UNL     1      43.373 -32.438   6.108  1.00  0.00     0.210 C 
ENDBRANCH  27  33
BRANCH  29  35
HETATM   35  O   UNL     1      38.056 -32.709   6.206  1.00  0.00    -0.354 OA
HETATM   36  C   UNL     1      38.081 -33.782   7.137  1.00  0.00     0.210 C 
ENDBRANCH  29  35
ENDBRANCH  22  26
ENDBRANCH   1  20
TORSDOF 7
ENDMDL
