MODEL 1
REMARK VINA RESULT:      -8.8      0.000      0.000
REMARK  3 active torsions:
REMARK  status: ('A' for Active; 'I' for Inactive)
REMARK    1  A    between atoms: C_3  and  N_4 
REMARK    2  A    between atoms: C_14  and  N_15 
REMARK       I    between atoms: N_15  and  C_16 
REMARK    3  A    between atoms: C_16  and  C_17 
ROOT
HETATM    1  N   UNL     1      43.137 -16.582   2.798  1.00  0.00    -0.237 N 
HETATM    2  N   UNL     1      43.760 -15.945   1.768  1.00  0.00    -0.179 NA
HETATM    3  C   UNL     1      43.312 -14.694   1.788  1.00  0.00     0.150 A 
HETATM    4  C   UNL     1      42.383 -14.477   2.811  1.00  0.00     0.008 A 
HETATM    5  C   UNL     1      42.299 -15.692   3.466  1.00  0.00     0.047 A 
HETATM    6  C   UNL     1      41.525 -15.915   4.728  1.00  0.00     0.069 C 
HETATM    7  C   UNL     1      41.178 -14.561   5.425  1.00  0.00    -0.040 C 
HETATM    8  C   UNL     1      42.401 -14.015   6.188  1.00  0.00     0.015 C 
HETATM    9  C   UNL     1      40.051 -14.809   6.446  1.00  0.00     0.015 C 
HETATM   10  C   UNL     1      40.679 -13.525   4.372  1.00  0.00     0.039 C 
HETATM   11  C   UNL     1      41.699 -13.228   3.247  1.00  0.00     0.122 C 
ENDROOT
BRANCH  11  12
HETATM   12  N   UNL     1      41.036 -12.648   2.097  1.00  0.00    -0.347 N 
HETATM   13  C   UNL     1      41.452 -11.452   1.572  1.00  0.00     0.270 C 
HETATM   14  O   UNL     1      42.434 -10.834   1.975  1.00  0.00    -0.266 OA
HETATM   15  H   UNL     1      40.160 -13.058   1.807  1.00  0.00     0.163 HD
BRANCH  13  16
HETATM   16  C   UNL     1      40.628 -10.907   0.463  1.00  0.00     0.120 A 
HETATM   17  N   UNL     1      40.611 -11.525  -0.769  1.00  0.00    -0.303 N 
HETATM   18  C   UNL     1      39.765 -10.827  -1.631  1.00  0.00     0.324 A 
HETATM   19  H   UNL     1      41.129 -12.359  -1.001  1.00  0.00     0.171 HD
HETATM   20  O   UNL     1      39.502 -11.077  -2.792  1.00  0.00    -0.247 OA
HETATM   21  N   UNL     1      39.279  -9.763  -0.858  1.00  0.00    -0.316 N 
HETATM   22  C   UNL     1      39.815  -9.838   0.406  1.00  0.00     0.128 A 
HETATM   23  H   UNL     1      38.632  -9.075  -1.212  1.00  0.00     0.170 HD
ENDBRANCH  13  16
ENDBRANCH  11  12
BRANCH   1  24
HETATM   24  C   UNL     1      43.370 -17.977   3.032  1.00  0.00     0.064 A 
HETATM   25  C   UNL     1      44.041 -18.442   4.191  1.00  0.00    -0.033 A 
HETATM   26  C   UNL     1      44.527 -17.553   5.306  1.00  0.00     0.050 C 
HETATM   27  C   UNL     1      44.262 -19.828   4.341  1.00  0.00     0.009 A 
HETATM   28  C   UNL     1      43.824 -20.740   3.385  1.00  0.00     0.001 A 
HETATM   29  C   UNL     1      43.169 -20.285   2.251  1.00  0.00     0.002 A 
HETATM   30  C   UNL     1      42.949 -18.916   2.072  1.00  0.00     0.032 A 
ENDBRANCH   1  24
TORSDOF 3
ENDMDL
MODEL 2
REMARK VINA RESULT:      -8.8      1.721      2.255
REMARK  3 active torsions:
REMARK  status: ('A' for Active; 'I' for Inactive)
REMARK    1  A    between atoms: C_3  and  N_4 
REMARK    2  A    between atoms: C_14  and  N_15 
REMARK       I    between atoms: N_15  and  C_16 
REMARK    3  A    between atoms: C_16  and  C_17 
ROOT
HETATM    1  N   UNL     1      43.106 -17.472   3.132  1.00  0.00    -0.237 N 
HETATM    2  N   UNL     1      43.592 -17.235   1.882  1.00  0.00    -0.179 NA
HETATM    3  C   UNL     1      43.039 -16.093   1.487  1.00  0.00     0.150 A 
HETATM    4  C   UNL     1      42.175 -15.559   2.447  1.00  0.00     0.008 A 
HETATM    5  C   UNL     1      42.247 -16.442   3.508  1.00  0.00     0.047 A 
HETATM    6  C   UNL     1      41.594 -16.218   4.836  1.00  0.00     0.069 C 
HETATM    7  C   UNL     1      41.183 -14.721   5.018  1.00  0.00    -0.040 C 
HETATM    8  C   UNL     1      42.408 -13.866   5.397  1.00  0.00     0.015 C 
HETATM    9  C   UNL     1      40.164 -14.628   6.169  1.00  0.00     0.015 C 
HETATM   10  C   UNL     1      40.517 -14.182   3.716  1.00  0.00     0.039 C 
HETATM   11  C   UNL     1      41.420 -14.275   2.462  1.00  0.00     0.122 C 
ENDROOT
BRANCH  11  12
HETATM   12  N   UNL     1      40.623 -14.203   1.254  1.00  0.00    -0.347 N 
HETATM   13  C   UNL     1      40.612 -13.070   0.482  1.00  0.00     0.270 C 
HETATM   14  O   UNL     1      41.311 -12.085   0.707  1.00  0.00    -0.266 OA
HETATM   15  H   UNL     1      39.950 -14.938   1.094  1.00  0.00     0.163 HD
BRANCH  13  16
HETATM   16  C   UNL     1      39.676 -13.077  -0.671  1.00  0.00     0.120 A 
HETATM   17  N   UNL     1      39.901 -13.899  -1.753  1.00  0.00    -0.303 N 
HETATM   18  C   UNL     1      38.886 -13.724  -2.694  1.00  0.00     0.324 A 
HETATM   19  H   UNL     1      40.681 -14.534  -1.841  1.00  0.00     0.171 HD
HETATM   20  O   UNL     1      38.752 -14.278  -3.768  1.00  0.00    -0.247 OA
HETATM   21  N   UNL     1      38.045 -12.758  -2.123  1.00  0.00    -0.316 N 
HETATM   22  C   UNL     1      38.545 -12.386  -0.898  1.00  0.00     0.128 A 
HETATM   23  H   UNL     1      37.208 -12.420  -2.574  1.00  0.00     0.170 HD
ENDBRANCH  13  16
ENDBRANCH  11  12
BRANCH   1  24
HETATM   24  C   UNL     1      43.477 -18.664   3.837  1.00  0.00     0.064 A 
HETATM   25  C   UNL     1      43.562 -19.923   3.191  1.00  0.00    -0.033 A 
HETATM   26  C   UNL     1      43.333 -20.140   1.718  1.00  0.00     0.050 C 
HETATM   27  C   UNL     1      43.904 -21.060   3.954  1.00  0.00     0.009 A 
HETATM   28  C   UNL     1      44.170 -20.965   5.317  1.00  0.00     0.001 A 
HETATM   29  C   UNL     1      44.085 -19.734   5.950  1.00  0.00     0.002 A 
HETATM   30  C   UNL     1      43.735 -18.595   5.219  1.00  0.00     0.032 A 
ENDBRANCH   1  24
TORSDOF 3
ENDMDL
MODEL 3
REMARK VINA RESULT:      -8.6      3.561      6.273
REMARK  3 active torsions:
REMARK  status: ('A' for Active; 'I' for Inactive)
REMARK    1  A    between atoms: C_3  and  N_4 
REMARK    2  A    between atoms: C_14  and  N_15 
REMARK       I    between atoms: N_15  and  C_16 
REMARK    3  A    between atoms: C_16  and  C_17 
ROOT
HETATM    1  N   UNL     1      43.006 -11.671   6.802  1.00  0.00    -0.237 N 
HETATM    2  N   UNL     1      41.927 -10.992   6.322  1.00  0.00    -0.179 NA
HETATM    3  C   UNL     1      41.310 -11.829   5.494  1.00  0.00     0.150 A 
HETATM    4  C   UNL     1      41.964 -13.061   5.397  1.00  0.00     0.008 A 
HETATM    5  C   UNL     1      43.037 -12.954   6.261  1.00  0.00     0.047 A 
HETATM    6  C   UNL     1      43.959 -14.083   6.602  1.00  0.00     0.069 C 
HETATM    7  C   UNL     1      43.336 -15.460   6.206  1.00  0.00    -0.040 C 
HETATM    8  C   UNL     1      42.293 -15.903   7.250  1.00  0.00     0.015 C 
HETATM    9  C   UNL     1      44.458 -16.516   6.177  1.00  0.00     0.015 C 
HETATM   10  C   UNL     1      42.694 -15.374   4.788  1.00  0.00     0.039 C 
HETATM   11  C   UNL     1      41.585 -14.301   4.663  1.00  0.00     0.122 C 
ENDROOT
BRANCH  11  12
HETATM   12  N   UNL     1      41.364 -13.957   3.273  1.00  0.00    -0.347 N 
HETATM   13  C   UNL     1      40.528 -14.706   2.485  1.00  0.00     0.270 C 
HETATM   14  O   UNL     1      39.866 -15.653   2.901  1.00  0.00    -0.266 OA
HETATM   15  H   UNL     1      41.971 -13.263   2.862  1.00  0.00     0.163 HD
BRANCH  13  16
HETATM   16  C   UNL     1      40.465 -14.319   1.052  1.00  0.00     0.120 A 
HETATM   17  N   UNL     1      39.627 -14.982   0.183  1.00  0.00    -0.303 N 
HETATM   18  C   UNL     1      39.749 -14.433  -1.094  1.00  0.00     0.324 A 
HETATM   19  H   UNL     1      39.015 -15.742   0.440  1.00  0.00     0.171 HD
HETATM   20  O   UNL     1      39.166 -14.759  -2.111  1.00  0.00    -0.247 OA
HETATM   21  N   UNL     1      40.700 -13.414  -0.947  1.00  0.00    -0.316 N 
HETATM   22  C   UNL     1      41.114 -13.365   0.363  1.00  0.00     0.128 A 
HETATM   23  H   UNL     1      41.000 -12.826  -1.709  1.00  0.00     0.170 HD
ENDBRANCH  13  16
ENDBRANCH  11  12
BRANCH   1  24
HETATM   24  C   UNL     1      43.921 -11.030   7.703  1.00  0.00     0.064 A 
HETATM   25  C   UNL     1      45.286 -10.837   7.374  1.00  0.00    -0.033 A 
HETATM   26  C   UNL     1      45.906 -11.222   6.056  1.00  0.00     0.050 C 
HETATM   27  C   UNL     1      46.135 -10.226   8.321  1.00  0.00     0.009 A 
HETATM   28  C   UNL     1      45.656  -9.801   9.557  1.00  0.00     0.001 A 
HETATM   29  C   UNL     1      44.321  -9.992   9.879  1.00  0.00     0.002 A 
HETATM   30  C   UNL     1      43.462 -10.607   8.964  1.00  0.00     0.032 A 
ENDBRANCH   1  24
TORSDOF 3
ENDMDL
MODEL 4
REMARK VINA RESULT:      -8.5      4.325      6.392
REMARK  3 active torsions:
REMARK  status: ('A' for Active; 'I' for Inactive)
REMARK    1  A    between atoms: C_3  and  N_4 
REMARK    2  A    between atoms: C_14  and  N_15 
REMARK       I    between atoms: N_15  and  C_16 
REMARK    3  A    between atoms: C_16  and  C_17 
ROOT
HETATM    1  N   UNL     1      41.588 -15.315   4.962  1.00  0.00    -0.237 N 
HETATM    2  N   UNL     1      40.790 -15.584   6.032  1.00  0.00    -0.179 NA
HETATM    3  C   UNL     1      40.188 -14.438   6.335  1.00  0.00     0.150 A 
HETATM    4  C   UNL     1      40.578 -13.393   5.492  1.00  0.00     0.008 A 
HETATM    5  C   UNL     1      41.458 -13.976   4.600  1.00  0.00     0.047 A 
HETATM    6  C   UNL     1      42.041 -13.275   3.413  1.00  0.00     0.069 C 
HETATM    7  C   UNL     1      41.237 -11.980   3.071  1.00  0.00    -0.040 C 
HETATM    8  C   UNL     1      39.940 -12.331   2.317  1.00  0.00     0.015 C 
HETATM    9  C   UNL     1      42.099 -11.096   2.149  1.00  0.00     0.015 C 
HETATM   10  C   UNL     1      40.919 -11.183   4.372  1.00  0.00     0.039 C 
HETATM   11  C   UNL     1      40.103 -11.983   5.417  1.00  0.00     0.122 C 
ENDROOT
BRANCH  11  12
HETATM   12  N   UNL     1      40.235 -11.388   6.731  1.00  0.00    -0.347 N 
HETATM   13  C   UNL     1      39.323 -10.471   7.186  1.00  0.00     0.270 C 
HETATM   14  O   UNL     1      38.315 -10.147   6.565  1.00  0.00    -0.266 OA
HETATM   15  H   UNL     1      41.103 -11.536   7.225  1.00  0.00     0.163 HD
BRANCH  13  16
HETATM   16  C   UNL     1      39.624  -9.852   8.502  1.00  0.00     0.120 A 
HETATM   17  N   UNL     1      39.223 -10.461   9.672  1.00  0.00    -0.303 N 
HETATM   18  C   UNL     1      39.625  -9.689  10.762  1.00  0.00     0.324 A 
HETATM   19  H   UNL     1      38.722 -11.335   9.723  1.00  0.00     0.171 HD
HETATM   20  O   UNL     1      39.449  -9.911  11.945  1.00  0.00    -0.247 OA
HETATM   21  N   UNL     1      40.282  -8.592  10.190  1.00  0.00    -0.316 N 
HETATM   22  C   UNL     1      40.269  -8.718   8.821  1.00  0.00     0.128 A 
HETATM   23  H   UNL     1      40.693  -7.849  10.735  1.00  0.00     0.170 HD
ENDBRANCH  13  16
ENDBRANCH  11  12
BRANCH   1  24
HETATM   24  C   UNL     1      42.420 -16.342   4.404  1.00  0.00     0.064 A 
HETATM   25  C   UNL     1      42.183 -16.882   3.115  1.00  0.00    -0.033 A 
HETATM   26  C   UNL     1      41.093 -16.416   2.185  1.00  0.00     0.050 C 
HETATM   27  C   UNL     1      43.024 -17.912   2.643  1.00  0.00     0.009 A 
HETATM   28  C   UNL     1      44.082 -18.393   3.408  1.00  0.00     0.001 A 
HETATM   29  C   UNL     1      44.313 -17.866   4.670  1.00  0.00     0.002 A 
HETATM   30  C   UNL     1      43.486 -16.854   5.167  1.00  0.00     0.032 A 
ENDBRANCH   1  24
TORSDOF 3
ENDMDL
MODEL 5
REMARK VINA RESULT:      -8.3      3.279      7.049
REMARK  3 active torsions:
REMARK  status: ('A' for Active; 'I' for Inactive)
REMARK    1  A    between atoms: C_3  and  N_4 
REMARK    2  A    between atoms: C_14  and  N_15 
REMARK       I    between atoms: N_15  and  C_16 
REMARK    3  A    between atoms: C_16  and  C_17 
ROOT
HETATM    1  N   UNL     1      40.650 -12.707   0.275  1.00  0.00    -0.237 N 
HETATM    2  N   UNL     1      41.063 -11.425   0.479  1.00  0.00    -0.179 NA
HETATM    3  C   UNL     1      41.829 -11.457   1.564  1.00  0.00     0.150 A 
HETATM    4  C   UNL     1      41.931 -12.741   2.107  1.00  0.00     0.008 A 
HETATM    5  C   UNL     1      41.189 -13.538   1.255  1.00  0.00     0.047 A 
HETATM    6  C   UNL     1      41.114 -15.030   1.350  1.00  0.00     0.069 C 
HETATM    7  C   UNL     1      42.269 -15.598   2.236  1.00  0.00    -0.040 C 
HETATM    8  C   UNL     1      43.588 -15.645   1.441  1.00  0.00     0.015 C 
HETATM    9  C   UNL     1      41.910 -17.040   2.646  1.00  0.00     0.015 C 
HETATM   10  C   UNL     1      42.433 -14.738   3.525  1.00  0.00     0.039 C 
HETATM   11  C   UNL     1      42.739 -13.246   3.252  1.00  0.00     0.122 C 
ENDROOT
BRANCH  11  12
HETATM   12  N   UNL     1      42.429 -12.441   4.416  1.00  0.00    -0.347 N 
HETATM   13  C   UNL     1      43.342 -11.555   4.925  1.00  0.00     0.270 C 
HETATM   14  O   UNL     1      44.433 -11.327   4.408  1.00  0.00    -0.266 OA
HETATM   15  H   UNL     1      41.597 -12.676   4.938  1.00  0.00     0.163 HD
BRANCH  13  16
HETATM   16  C   UNL     1      42.951 -10.866   6.182  1.00  0.00     0.120 A 
HETATM   17  N   UNL     1      43.905 -10.481   7.098  1.00  0.00    -0.303 N 
HETATM   18  C   UNL     1      43.288  -9.857   8.183  1.00  0.00     0.324 A 
HETATM   19  H   UNL     1      44.898 -10.624   6.989  1.00  0.00     0.171 HD
HETATM   20  O   UNL     1      43.809  -9.388   9.176  1.00  0.00    -0.247 OA
HETATM   21  N   UNL     1      41.921  -9.890   7.873  1.00  0.00    -0.316 N 
HETATM   22  C   UNL     1      41.746 -10.504   6.655  1.00  0.00     0.128 A 
HETATM   23  H   UNL     1      41.210  -9.506   8.475  1.00  0.00     0.170 HD
ENDBRANCH  13  16
ENDBRANCH  11  12
BRANCH   1  24
HETATM   24  C   UNL     1      39.761 -13.018  -0.806  1.00  0.00     0.064 A 
HETATM   25  C   UNL     1      38.439 -12.508  -0.862  1.00  0.00    -0.033 A 
HETATM   26  C   UNL     1      37.849 -11.564   0.153  1.00  0.00     0.050 C 
HETATM   27  C   UNL     1      37.610 -12.880  -1.941  1.00  0.00     0.009 A 
HETATM   28  C   UNL     1      38.068 -13.721  -2.952  1.00  0.00     0.001 A 
HETATM   29  C   UNL     1      39.361 -14.220  -2.897  1.00  0.00     0.002 A 
HETATM   30  C   UNL     1      40.198 -13.878  -1.831  1.00  0.00     0.032 A 
ENDBRANCH   1  24
TORSDOF 3
ENDMDL
MODEL 6
REMARK VINA RESULT:      -8.2      3.963      6.436
REMARK  3 active torsions:
REMARK  status: ('A' for Active; 'I' for Inactive)
REMARK    1  A    between atoms: C_3  and  N_4 
REMARK    2  A    between atoms: C_14  and  N_15 
REMARK       I    between atoms: N_15  and  C_16 
REMARK    3  A    between atoms: C_16  and  C_17 
ROOT
HETATM    1  N   UNL     1      42.467 -15.656   4.985  1.00  0.00    -0.237 N 
HETATM    2  N   UNL     1      42.101 -15.849   6.283  1.00  0.00    -0.179 NA
HETATM    3  C   UNL     1      41.748 -14.653   6.744  1.00  0.00     0.150 A 
HETATM    4  C   UNL     1      41.883 -13.650   5.780  1.00  0.00     0.008 A 
HETATM    5  C   UNL     1      42.321 -14.312   4.648  1.00  0.00     0.047 A 
HETATM    6  C   UNL     1      42.478 -13.670   3.306  1.00  0.00     0.069 C 
HETATM    7  C   UNL     1      41.713 -12.310   3.236  1.00  0.00    -0.040 C 
HETATM    8  C   UNL     1      40.205 -12.548   3.025  1.00  0.00     0.015 C 
HETATM    9  C   UNL     1      42.241 -11.509   2.031  1.00  0.00     0.015 C 
HETATM   10  C   UNL     1      41.963 -11.483   4.534  1.00  0.00     0.039 C 
HETATM   11  C   UNL     1      41.529 -12.203   5.833  1.00  0.00     0.122 C 
ENDROOT
BRANCH  11  12
HETATM   12  N   UNL     1      42.186 -11.618   6.984  1.00  0.00    -0.347 N 
HETATM   13  C   UNL     1      43.538 -11.390   6.985  1.00  0.00     0.270 C 
HETATM   14  O   UNL     1      44.264 -11.589   6.014  1.00  0.00    -0.266 OA
HETATM   15  H   UNL     1      41.654 -11.546   7.839  1.00  0.00     0.163 HD
BRANCH  13  16
HETATM   16  C   UNL     1      44.112 -10.886   8.259  1.00  0.00     0.120 A 
HETATM   17  N   UNL     1      43.320 -10.743   9.377  1.00  0.00    -0.303 N 
HETATM   18  C   UNL     1      44.089 -10.261  10.437  1.00  0.00     0.324 A 
HETATM   19  H   UNL     1      42.336 -10.963   9.418  1.00  0.00     0.171 HD
HETATM   20  O   UNL     1      43.733 -10.015  11.573  1.00  0.00    -0.247 OA
HETATM   21  N   UNL     1      45.376 -10.121   9.898  1.00  0.00    -0.316 N 
HETATM   22  C   UNL     1      45.362 -10.510   8.580  1.00  0.00     0.128 A 
HETATM   23  H   UNL     1      46.164  -9.789  10.433  1.00  0.00     0.170 HD
ENDBRANCH  13  16
ENDBRANCH  11  12
BRANCH   1  24
HETATM   24  C   UNL     1      42.947 -16.754   4.199  1.00  0.00     0.064 A 
HETATM   25  C   UNL     1      42.309 -17.153   2.997  1.00  0.00    -0.033 A 
HETATM   26  C   UNL     1      41.117 -16.455   2.395  1.00  0.00     0.050 C 
HETATM   27  C   UNL     1      42.819 -18.262   2.290  1.00  0.00     0.009 A 
HETATM   28  C   UNL     1      43.937 -18.958   2.741  1.00  0.00     0.001 A 
HETATM   29  C   UNL     1      44.561 -18.569   3.917  1.00  0.00     0.002 A 
HETATM   30  C   UNL     1      44.067 -17.482   4.643  1.00  0.00     0.032 A 
ENDBRANCH   1  24
TORSDOF 3
ENDMDL
MODEL 7
REMARK VINA RESULT:      -8.0      4.781      6.627
REMARK  3 active torsions:
REMARK  status: ('A' for Active; 'I' for Inactive)
REMARK    1  A    between atoms: C_3  and  N_4 
REMARK    2  A    between atoms: C_14  and  N_15 
REMARK       I    between atoms: N_15  and  C_16 
REMARK    3  A    between atoms: C_16  and  C_17 
ROOT
HETATM    1  N   UNL     1      42.012 -14.856   5.753  1.00  0.00    -0.237 N 
HETATM    2  N   UNL     1      40.655 -14.738   5.745  1.00  0.00    -0.179 NA
HETATM    3  C   UNL     1      40.400 -13.447   5.930  1.00  0.00     0.150 A 
HETATM    4  C   UNL     1      41.566 -12.689   6.077  1.00  0.00     0.008 A 
HETATM    5  C   UNL     1      42.593 -13.603   5.936  1.00  0.00     0.047 A 
HETATM    6  C   UNL     1      44.043 -13.237   5.880  1.00  0.00     0.069 C 
HETATM    7  C   UNL     1      44.231 -11.714   5.587  1.00  0.00    -0.040 C 
HETATM    8  C   UNL     1      44.027 -11.423   4.087  1.00  0.00     0.015 C 
HETATM    9  C   UNL     1      45.673 -11.316   5.957  1.00  0.00     0.015 C 
HETATM   10  C   UNL     1      43.243 -10.872   6.450  1.00  0.00     0.039 C 
HETATM   11  C   UNL     1      41.752 -11.218   6.218  1.00  0.00     0.122 C 
ENDROOT
BRANCH  11  12
HETATM   12  N   UNL     1      40.944 -10.763   7.331  1.00  0.00    -0.347 N 
HETATM   13  C   UNL     1      40.722  -9.427   7.542  1.00  0.00     0.270 C 
HETATM   14  O   UNL     1      41.116  -8.542   6.786  1.00  0.00    -0.266 OA
HETATM   15  H   UNL     1      40.699 -11.441   8.038  1.00  0.00     0.163 HD
BRANCH  13  16
HETATM   16  C   UNL     1      39.970  -9.079   8.775  1.00  0.00     0.120 A 
HETATM   17  N   UNL     1      40.309  -9.641   9.986  1.00  0.00    -0.303 N 
HETATM   18  C   UNL     1      39.461  -9.155  10.982  1.00  0.00     0.324 A 
HETATM   19  H   UNL     1      41.062 -10.299  10.125  1.00  0.00     0.171 HD
HETATM   20  O   UNL     1      39.461  -9.425  12.167  1.00  0.00    -0.247 OA
HETATM   21  N   UNL     1      38.599  -8.278  10.308  1.00  0.00    -0.316 N 
HETATM   22  C   UNL     1      38.932  -8.249   8.975  1.00  0.00     0.128 A 
HETATM   23  H   UNL     1      37.866  -7.763  10.771  1.00  0.00     0.170 HD
ENDBRANCH  13  16
ENDBRANCH  11  12
BRANCH   1  24
HETATM   24  C   UNL     1      42.626 -16.144   5.618  1.00  0.00     0.064 A 
HETATM   25  C   UNL     1      43.080 -16.632   4.366  1.00  0.00    -0.033 A 
HETATM   26  C   UNL     1      43.020 -15.853   3.078  1.00  0.00     0.050 C 
HETATM   27  C   UNL     1      43.648 -17.922   4.302  1.00  0.00     0.009 A 
HETATM   28  C   UNL     1      43.781 -18.713   5.440  1.00  0.00     0.001 A 
HETATM   29  C   UNL     1      43.336 -18.236   6.664  1.00  0.00     0.002 A 
HETATM   30  C   UNL     1      42.757 -16.967   6.752  1.00  0.00     0.032 A 
ENDBRANCH   1  24
TORSDOF 3
ENDMDL
MODEL 8
REMARK VINA RESULT:      -7.9      3.175      5.632
REMARK  3 active torsions:
REMARK  status: ('A' for Active; 'I' for Inactive)
REMARK    1  A    between atoms: C_3  and  N_4 
REMARK    2  A    between atoms: C_14  and  N_15 
REMARK       I    between atoms: N_15  and  C_16 
REMARK    3  A    between atoms: C_16  and  C_17 
ROOT
HETATM    1  N   UNL     1      41.610 -13.230   1.222  1.00  0.00    -0.237 N 
HETATM    2  N   UNL     1      41.985 -12.145   1.954  1.00  0.00    -0.179 NA
HETATM    3  C   UNL     1      41.632 -11.082   1.239  1.00  0.00     0.150 A 
HETATM    4  C   UNL     1      41.033 -11.433   0.025  1.00  0.00     0.008 A 
HETATM    5  C   UNL     1      41.003 -12.815   0.038  1.00  0.00     0.047 A 
HETATM    6  C   UNL     1      40.324 -13.652  -1.000  1.00  0.00     0.069 C 
HETATM    7  C   UNL     1      39.326 -12.801  -1.848  1.00  0.00    -0.040 C 
HETATM    8  C   UNL     1      38.014 -12.573  -1.072  1.00  0.00     0.015 C 
HETATM    9  C   UNL     1      38.988 -13.578  -3.135  1.00  0.00     0.015 C 
HETATM   10  C   UNL     1      39.976 -11.440  -2.242  1.00  0.00     0.039 C 
HETATM   11  C   UNL     1      40.420 -10.581  -1.033  1.00  0.00     0.122 C 
ENDROOT
BRANCH  11  12
HETATM   12  N   UNL     1      41.396  -9.592  -1.442  1.00  0.00    -0.347 N 
HETATM   13  C   UNL     1      41.319  -8.298  -0.995  1.00  0.00     0.270 C 
HETATM   14  O   UNL     1      40.487  -7.906  -0.181  1.00  0.00    -0.266 OA
HETATM   15  H   UNL     1      42.023  -9.837  -2.194  1.00  0.00     0.163 HD
BRANCH  13  16
HETATM   16  C   UNL     1      42.311  -7.352  -1.567  1.00  0.00     0.120 A 
HETATM   17  N   UNL     1      43.181  -6.666  -0.748  1.00  0.00    -0.303 N 
HETATM   18  C   UNL     1      44.007  -5.850  -1.521  1.00  0.00     0.324 A 
HETATM   19  H   UNL     1      43.215  -6.753   0.257  1.00  0.00     0.171 HD
HETATM   20  O   UNL     1      44.892  -5.105  -1.146  1.00  0.00    -0.247 OA
HETATM   21  N   UNL     1      43.588  -6.078  -2.839  1.00  0.00    -0.316 N 
HETATM   22  C   UNL     1      42.562  -6.994  -2.838  1.00  0.00     0.128 A 
HETATM   23  H   UNL     1      44.007  -5.625  -3.637  1.00  0.00     0.170 HD
ENDBRANCH  13  16
ENDBRANCH  11  12
BRANCH   1  24
HETATM   24  C   UNL     1      41.888 -14.554   1.697  1.00  0.00     0.064 A 
HETATM   25  C   UNL     1      40.912 -15.329   2.374  1.00  0.00    -0.033 A 
HETATM   26  C   UNL     1      39.494 -14.885   2.619  1.00  0.00     0.050 C 
HETATM   27  C   UNL     1      41.265 -16.613   2.841  1.00  0.00     0.009 A 
HETATM   28  C   UNL     1      42.540 -17.133   2.638  1.00  0.00     0.001 A 
HETATM   29  C   UNL     1      43.495 -16.375   1.977  1.00  0.00     0.002 A 
HETATM   30  C   UNL     1      43.174 -15.095   1.516  1.00  0.00     0.032 A 
ENDBRANCH   1  24
TORSDOF 3
ENDMDL
MODEL 9
REMARK VINA RESULT:      -7.9      7.283     10.691
REMARK  3 active torsions:
REMARK  status: ('A' for Active; 'I' for Inactive)
REMARK    1  A    between atoms: C_3  and  N_4 
REMARK    2  A    between atoms: C_14  and  N_15 
REMARK       I    between atoms: N_15  and  C_16 
REMARK    3  A    between atoms: C_16  and  C_17 
ROOT
HETATM    1  N   UNL     1      42.803  -9.114  11.621  1.00  0.00    -0.237 N 
HETATM    2  N   UNL     1      43.788 -10.045  11.488  1.00  0.00    -0.179 NA
HETATM    3  C   UNL     1      43.831 -10.349  10.195  1.00  0.00     0.150 A 
HETATM    4  C   UNL     1      42.878  -9.647   9.451  1.00  0.00     0.008 A 
HETATM    5  C   UNL     1      42.242  -8.839  10.375  1.00  0.00     0.047 A 
HETATM    6  C   UNL     1      41.229  -7.796  10.025  1.00  0.00     0.069 C 
HETATM    7  C   UNL     1      41.280  -7.447   8.503  1.00  0.00    -0.040 C 
HETATM    8  C   UNL     1      42.460  -6.502   8.203  1.00  0.00     0.015 C 
HETATM    9  C   UNL     1      39.978  -6.717   8.122  1.00  0.00     0.015 C 
HETATM   10  C   UNL     1      41.388  -8.750   7.654  1.00  0.00     0.039 C 
HETATM   11  C   UNL     1      42.630  -9.614   7.982  1.00  0.00     0.122 C 
ENDROOT
BRANCH  11  12
HETATM   12  N   UNL     1      42.440 -10.975   7.523  1.00  0.00    -0.347 N 
HETATM   13  C   UNL     1      43.429 -11.633   6.839  1.00  0.00     0.270 C 
HETATM   14  O   UNL     1      44.545 -11.163   6.633  1.00  0.00    -0.266 OA
HETATM   15  H   UNL     1      41.507 -11.356   7.568  1.00  0.00     0.163 HD
BRANCH  13  16
HETATM   16  C   UNL     1      43.078 -12.983   6.327  1.00  0.00     0.120 A 
HETATM   17  N   UNL     1      42.771 -14.005   7.198  1.00  0.00    -0.303 N 
HETATM   18  C   UNL     1      42.477 -15.162   6.475  1.00  0.00     0.324 A 
HETATM   19  H   UNL     1      42.756 -13.921   8.203  1.00  0.00     0.171 HD
HETATM   20  O   UNL     1      42.163 -16.256   6.903  1.00  0.00    -0.247 OA
HETATM   21  N   UNL     1      42.624 -14.783   5.134  1.00  0.00    -0.316 N 
HETATM   22  C   UNL     1      42.986 -13.458   5.074  1.00  0.00     0.128 A 
HETATM   23  H   UNL     1      42.472 -15.415   4.363  1.00  0.00     0.170 HD
ENDBRANCH  13  16
ENDBRANCH  11  12
BRANCH   1  24
HETATM   24  C   UNL     1      42.466  -8.598  12.915  1.00  0.00     0.064 A 
HETATM   25  C   UNL     1      41.343  -9.068  13.642  1.00  0.00    -0.033 A 
HETATM   26  C   UNL     1      40.430 -10.172  13.176  1.00  0.00     0.050 C 
HETATM   27  C   UNL     1      41.054  -8.493  14.897  1.00  0.00     0.009 A 
HETATM   28  C   UNL     1      41.853  -7.489  15.437  1.00  0.00     0.001 A 
HETATM   29  C   UNL     1      42.951  -7.028  14.725  1.00  0.00     0.002 A 
HETATM   30  C   UNL     1      43.251  -7.572  13.473  1.00  0.00     0.032 A 
ENDBRANCH   1  24
TORSDOF 3
ENDMDL
MODEL 10
REMARK VINA RESULT:      -7.9      4.143      7.546
REMARK  3 active torsions:
REMARK  status: ('A' for Active; 'I' for Inactive)
REMARK    1  A    between atoms: C_3  and  N_4 
REMARK    2  A    between atoms: C_14  and  N_15 
REMARK       I    between atoms: N_15  and  C_16 
REMARK    3  A    between atoms: C_16  and  C_17 
ROOT
HETATM    1  N   UNL     1      41.548 -12.315   2.682  1.00  0.00    -0.237 N 
HETATM    2  N   UNL     1      42.494 -11.338   2.753  1.00  0.00    -0.179 NA
HETATM    3  C   UNL     1      43.104 -11.505   3.921  1.00  0.00     0.150 A 
HETATM    4  C   UNL     1      42.576 -12.574   4.650  1.00  0.00     0.008 A 
HETATM    5  C   UNL     1      41.594 -13.101   3.832  1.00  0.00     0.047 A 
HETATM    6  C   UNL     1      40.835 -14.356   4.128  1.00  0.00     0.069 C 
HETATM    7  C   UNL     1      41.552 -15.204   5.227  1.00  0.00    -0.040 C 
HETATM    8  C   UNL     1      42.740 -15.979   4.625  1.00  0.00     0.015 C 
HETATM    9  C   UNL     1      40.549 -16.230   5.788  1.00  0.00     0.015 C 
HETATM   10  C   UNL     1      42.029 -14.283   6.392  1.00  0.00     0.039 C 
HETATM   11  C   UNL     1      43.001 -13.163   5.951  1.00  0.00     0.122 C 
ENDROOT
BRANCH  11  12
HETATM   12  N   UNL     1      43.039 -12.103   6.938  1.00  0.00    -0.347 N 
HETATM   13  C   UNL     1      44.232 -11.593   7.382  1.00  0.00     0.270 C 
HETATM   14  O   UNL     1      45.325 -11.933   6.938  1.00  0.00    -0.266 OA
HETATM   15  H   UNL     1      42.177 -11.876   7.412  1.00  0.00     0.163 HD
BRANCH  13  16
HETATM   16  C   UNL     1      44.145 -10.588   8.471  1.00  0.00     0.120 A 
HETATM   17  N   UNL     1      43.606 -10.923   9.694  1.00  0.00    -0.303 N 
HETATM   18  C   UNL     1      43.640  -9.814  10.540  1.00  0.00     0.324 A 
HETATM   19  H   UNL     1      43.249 -11.836   9.936  1.00  0.00     0.171 HD
HETATM   20  O   UNL     1      43.254  -9.734  11.691  1.00  0.00    -0.247 OA
HETATM   21  N   UNL     1      44.222  -8.801   9.765  1.00  0.00    -0.316 N 
HETATM   22  C   UNL     1      44.521  -9.298   8.518  1.00  0.00     0.128 A 
HETATM   23  H   UNL     1      44.386  -7.868  10.110  1.00  0.00     0.170 HD
ENDBRANCH  13  16
ENDBRANCH  11  12
BRANCH   1  24
HETATM   24  C   UNL     1      40.672 -12.392   1.549  1.00  0.00     0.064 A 
HETATM   25  C   UNL     1      39.424 -11.720   1.518  1.00  0.00    -0.033 A 
HETATM   26  C   UNL     1      38.912 -10.826   2.618  1.00  0.00     0.050 C 
HETATM   27  C   UNL     1      38.600 -11.865   0.382  1.00  0.00     0.009 A 
HETATM   28  C   UNL     1      38.993 -12.641  -0.705  1.00  0.00     0.001 A 
HETATM   29  C   UNL     1      40.212 -13.301  -0.673  1.00  0.00     0.002 A 
HETATM   30  C   UNL     1      41.041 -13.183   0.446  1.00  0.00     0.032 A 
ENDBRANCH   1  24
TORSDOF 3
ENDMDL
