MODEL 1
REMARK VINA RESULT:      -7.8      0.000      0.000
REMARK  3 active torsions:
REMARK  status: ('A' for Active; 'I' for Inactive)
REMARK    1  A    between atoms: O_2  and  C_3 
REMARK    2  A    between atoms: C_4  and  C_5 
REMARK    3  A    between atoms: C_16  and  N_17 
ROOT
HETATM    1  C   UNL     1      41.469 -15.106   5.002  1.00  0.00     0.246 C 
HETATM    2  N   UNL     1      42.186 -13.928   4.562  1.00  0.00    -0.151 N 
HETATM    3  C   UNL     1      41.878 -13.320   3.371  1.00  0.00     0.734 A 
HETATM    4  N   UNL     1      42.674 -12.289   3.186  1.00  0.00    -0.060 NA
HETATM    5  C   UNL     1      43.457 -12.197   4.308  1.00  0.00     0.103 A 
HETATM    6  C   UNL     1      43.154 -13.210   5.213  1.00  0.00     0.083 A 
HETATM    7  C   UNL     1      44.454 -11.264   4.625  1.00  0.00     0.034 A 
HETATM    8  C   UNL     1      45.114 -11.379   5.854  1.00  0.00     0.002 A 
HETATM    9  C   UNL     1      44.786 -12.401   6.749  1.00  0.00     0.002 A 
HETATM   10  C   UNL     1      43.795 -13.344   6.449  1.00  0.00     0.033 A 
HETATM   11  N   UNL     1      40.890 -13.755   2.558  1.00  0.00    -0.033 NA
HETATM   12  C   UNL     1      40.154 -14.733   2.946  1.00  0.00     0.193 C 
HETATM   13  N   UNL     1      40.328 -15.421   4.146  1.00  0.00    -0.338 N 
HETATM   14  H   UNL     1      39.687 -16.134   4.461  1.00  0.00     0.164 HD
ENDROOT
BRANCH   1  15
HETATM   15  C   UNL     1      42.315 -16.373   5.092  1.00  0.00     0.020 A 
HETATM   16  C   UNL     1      42.685 -16.853   6.372  1.00  0.00     0.078 A 
HETATM   17  C   UNL     1      43.473 -18.002   6.493  1.00  0.00     0.039 A 
HETATM   18  C   UNL     1      43.888 -18.697   5.355  1.00  0.00     0.022 A 
HETATM   19  C   UNL     1      43.504 -18.252   4.097  1.00  0.00     0.011 A 
HETATM   20  C   UNL     1      42.717 -17.109   3.958  1.00  0.00     0.033 A 
HETATM   21 BR   UNL     1      44.054 -19.202   2.559  1.00  0.00    -0.051 Br
BRANCH  16  22
HETATM   22  O   UNL     1      42.198 -16.131   7.435  1.00  0.00    -0.355 OA
HETATM   23  C   UNL     1      43.129 -15.750   8.447  1.00  0.00     0.210 C 
ENDBRANCH  16  22
ENDBRANCH   1  15
BRANCH  12  24
HETATM   24  N   UNL     1      39.118 -15.205   2.223  1.00  0.00    -0.272 NA
HETATM   25  H   UNL     1      39.420 -15.488   1.294  1.00  0.00     0.127 HD
HETATM   26  H   UNL     1      38.554 -15.921   2.661  1.00  0.00     0.127 HD
ENDBRANCH  12  24
TORSDOF 3
ENDMDL
MODEL 2
REMARK VINA RESULT:      -7.7      2.797      5.493
REMARK  3 active torsions:
REMARK  status: ('A' for Active; 'I' for Inactive)
REMARK    1  A    between atoms: O_2  and  C_3 
REMARK    2  A    between atoms: C_4  and  C_5 
REMARK    3  A    between atoms: C_16  and  N_17 
ROOT
HETATM    1  C   UNL     1      40.464 -15.108   3.745  1.00  0.00     0.246 C 
HETATM    2  N   UNL     1      41.670 -15.745   4.228  1.00  0.00    -0.151 N 
HETATM    3  C   UNL     1      42.234 -15.372   5.423  1.00  0.00     0.734 A 
HETATM    4  N   UNL     1      43.324 -16.078   5.633  1.00  0.00    -0.060 NA
HETATM    5  C   UNL     1      43.421 -16.962   4.589  1.00  0.00     0.103 A 
HETATM    6  C   UNL     1      42.371 -16.793   3.692  1.00  0.00     0.083 A 
HETATM    7  C   UNL     1      44.387 -17.948   4.343  1.00  0.00     0.034 A 
HETATM    8  C   UNL     1      44.259 -18.741   3.197  1.00  0.00     0.002 A 
HETATM    9  C   UNL     1      43.191 -18.556   2.315  1.00  0.00     0.002 A 
HETATM   10  C   UNL     1      42.218 -17.574   2.542  1.00  0.00     0.033 A 
HETATM   11  N   UNL     1      41.699 -14.423   6.223  1.00  0.00    -0.033 NA
HETATM   12  C   UNL     1      40.575 -13.897   5.894  1.00  0.00     0.193 C 
HETATM   13  N   UNL     1      39.872 -14.206   4.731  1.00  0.00    -0.338 N 
HETATM   14  H   UNL     1      38.954 -13.835   4.536  1.00  0.00     0.164 HD
ENDROOT
BRANCH   1  15
HETATM   15  C   UNL     1      40.636 -14.304   2.460  1.00  0.00     0.020 A 
HETATM   16  C   UNL     1      41.489 -13.173   2.475  1.00  0.00     0.078 A 
HETATM   17  C   UNL     1      41.658 -12.403   1.319  1.00  0.00     0.039 A 
HETATM   18  C   UNL     1      41.003 -12.750   0.136  1.00  0.00     0.022 A 
HETATM   19  C   UNL     1      40.189 -13.876   0.103  1.00  0.00     0.011 A 
HETATM   20  C   UNL     1      40.010 -14.655   1.246  1.00  0.00     0.033 A 
HETATM   21 BR   UNL     1      39.314 -14.353  -1.502  1.00  0.00    -0.051 Br
BRANCH  16  22
HETATM   22  O   UNL     1      42.124 -12.930   3.668  1.00  0.00    -0.355 OA
HETATM   23  C   UNL     1      43.373 -12.242   3.615  1.00  0.00     0.210 C 
ENDBRANCH  16  22
ENDBRANCH   1  15
BRANCH  12  24
HETATM   24  N   UNL     1      39.944 -12.978   6.652  1.00  0.00    -0.272 NA
HETATM   25  H   UNL     1      40.552 -12.185   6.846  1.00  0.00     0.127 HD
HETATM   26  H   UNL     1      39.035 -12.674   6.328  1.00  0.00     0.127 HD
ENDBRANCH  12  24
TORSDOF 3
ENDMDL
MODEL 3
REMARK VINA RESULT:      -7.6      3.248      5.744
REMARK  3 active torsions:
REMARK  status: ('A' for Active; 'I' for Inactive)
REMARK    1  A    between atoms: O_2  and  C_3 
REMARK    2  A    between atoms: C_4  and  C_5 
REMARK    3  A    between atoms: C_16  and  N_17 
ROOT
HETATM    1  C   UNL     1      42.258 -14.902   6.389  1.00  0.00     0.246 C 
HETATM    2  N   UNL     1      42.782 -15.609   5.240  1.00  0.00    -0.151 N 
HETATM    3  C   UNL     1      43.726 -16.596   5.392  1.00  0.00     0.734 A 
HETATM    4  N   UNL     1      44.055 -17.073   4.211  1.00  0.00    -0.060 NA
HETATM    5  C   UNL     1      43.261 -16.428   3.297  1.00  0.00     0.103 A 
HETATM    6  C   UNL     1      42.424 -15.509   3.923  1.00  0.00     0.083 A 
HETATM    7  C   UNL     1      43.200 -16.580   1.905  1.00  0.00     0.034 A 
HETATM    8  C   UNL     1      42.287 -15.802   1.184  1.00  0.00     0.002 A 
HETATM    9  C   UNL     1      41.452 -14.892   1.837  1.00  0.00     0.002 A 
HETATM   10  C   UNL     1      41.500 -14.723   3.226  1.00  0.00     0.033 A 
HETATM   11  N   UNL     1      44.199 -16.981   6.598  1.00  0.00    -0.033 NA
HETATM   12  C   UNL     1      43.694 -16.459   7.657  1.00  0.00     0.193 C 
HETATM   13  N   UNL     1      42.705 -15.475   7.656  1.00  0.00    -0.338 N 
HETATM   14  H   UNL     1      42.273 -15.140   8.503  1.00  0.00     0.164 HD
ENDROOT
BRANCH   1  15
HETATM   15  C   UNL     1      42.598 -13.415   6.434  1.00  0.00     0.020 A 
HETATM   16  C   UNL     1      41.567 -12.475   6.190  1.00  0.00     0.078 A 
HETATM   17  C   UNL     1      41.846 -11.104   6.207  1.00  0.00     0.039 A 
HETATM   18  C   UNL     1      43.137 -10.648   6.482  1.00  0.00     0.022 A 
HETATM   19  C   UNL     1      44.147 -11.562   6.754  1.00  0.00     0.011 A 
HETATM   20  C   UNL     1      43.886 -12.932   6.742  1.00  0.00     0.033 A 
HETATM   21 BR   UNL     1      45.890 -10.944   7.139  1.00  0.00    -0.051 Br
BRANCH  16  22
HETATM   22  O   UNL     1      40.321 -13.010   5.970  1.00  0.00    -0.355 OA
HETATM   23  C   UNL     1      39.414 -12.248   5.175  1.00  0.00     0.210 C 
ENDBRANCH  16  22
ENDBRANCH   1  15
BRANCH  12  24
HETATM   24  N   UNL     1      44.070 -16.814   8.902  1.00  0.00    -0.272 NA
HETATM   25  H   UNL     1      44.440 -17.762   8.915  1.00  0.00     0.127 HD
HETATM   26  H   UNL     1      44.683 -16.173   9.387  1.00  0.00     0.127 HD
ENDBRANCH  12  24
TORSDOF 3
ENDMDL
MODEL 4
REMARK VINA RESULT:      -7.3      4.646      6.336
REMARK  3 active torsions:
REMARK  status: ('A' for Active; 'I' for Inactive)
REMARK    1  A    between atoms: O_2  and  C_3 
REMARK    2  A    between atoms: C_4  and  C_5 
REMARK    3  A    between atoms: C_16  and  N_17 
ROOT
HETATM    1  C   UNL     1      39.289 -13.128  -0.301  1.00  0.00     0.246 C 
HETATM    2  N   UNL     1      40.076 -12.277  -1.168  1.00  0.00    -0.151 N 
HETATM    3  C   UNL     1      40.342 -12.646  -2.463  1.00  0.00     0.734 A 
HETATM    4  N   UNL     1      41.083 -11.723  -3.038  1.00  0.00    -0.060 NA
HETATM    5  C   UNL     1      41.237 -10.719  -2.116  1.00  0.00     0.103 A 
HETATM    6  C   UNL     1      40.587 -11.030  -0.926  1.00  0.00     0.083 A 
HETATM    7  C   UNL     1      41.922  -9.501  -2.231  1.00  0.00     0.034 A 
HETATM    8  C   UNL     1      41.925  -8.628  -1.137  1.00  0.00     0.002 A 
HETATM    9  C   UNL     1      41.258  -8.960   0.045  1.00  0.00     0.002 A 
HETATM   10  C   UNL     1      40.571 -10.172   0.179  1.00  0.00     0.033 A 
HETATM   11  N   UNL     1      39.878 -13.790  -3.012  1.00  0.00    -0.033 NA
HETATM   12  C   UNL     1      39.090 -14.533  -2.322  1.00  0.00     0.193 C 
HETATM   13  N   UNL     1      38.705 -14.265  -1.009  1.00  0.00    -0.338 N 
HETATM   14  H   UNL     1      38.024 -14.824  -0.518  1.00  0.00     0.164 HD
ENDROOT
BRANCH   1  15
HETATM   15  C   UNL     1      40.046 -13.697   0.896  1.00  0.00     0.020 A 
HETATM   16  C   UNL     1      39.686 -13.265   2.195  1.00  0.00     0.078 A 
HETATM   17  C   UNL     1      40.369 -13.752   3.315  1.00  0.00     0.039 A 
HETATM   18  C   UNL     1      41.400 -14.681   3.164  1.00  0.00     0.022 A 
HETATM   19  C   UNL     1      41.740 -15.135   1.896  1.00  0.00     0.011 A 
HETATM   20  C   UNL     1      41.068 -14.660   0.769  1.00  0.00     0.033 A 
HETATM   21 BR   UNL     1      43.126 -16.403   1.694  1.00  0.00    -0.051 Br
BRANCH  16  22
HETATM   22  O   UNL     1      38.634 -12.383   2.252  1.00  0.00    -0.355 OA
HETATM   23  C   UNL     1      38.768 -11.263   3.126  1.00  0.00     0.210 C 
ENDBRANCH  16  22
ENDBRANCH   1  15
BRANCH  12  24
HETATM   24  N   UNL     1      38.542 -15.668  -2.801  1.00  0.00    -0.272 NA
HETATM   25  H   UNL     1      37.563 -15.742  -2.533  1.00  0.00     0.127 HD
HETATM   26  H   UNL     1      38.667 -15.846  -3.789  1.00  0.00     0.127 HD
ENDBRANCH  12  24
TORSDOF 3
ENDMDL
MODEL 5
REMARK VINA RESULT:      -7.0      3.492      5.927
REMARK  3 active torsions:
REMARK  status: ('A' for Active; 'I' for Inactive)
REMARK    1  A    between atoms: O_2  and  C_3 
REMARK    2  A    between atoms: C_4  and  C_5 
REMARK    3  A    between atoms: C_16  and  N_17 
ROOT
HETATM    1  C   UNL     1      43.364 -11.800   4.981  1.00  0.00     0.246 C 
HETATM    2  N   UNL     1      42.659 -13.061   4.885  1.00  0.00    -0.151 N 
HETATM    3  C   UNL     1      41.839 -13.329   3.817  1.00  0.00     0.734 A 
HETATM    4  N   UNL     1      41.302 -14.521   3.965  1.00  0.00    -0.060 NA
HETATM    5  C   UNL     1      41.839 -15.049   5.112  1.00  0.00     0.103 A 
HETATM    6  C   UNL     1      42.724 -14.155   5.706  1.00  0.00     0.083 A 
HETATM    7  C   UNL     1      41.616 -16.299   5.707  1.00  0.00     0.034 A 
HETATM    8  C   UNL     1      42.301 -16.611   6.887  1.00  0.00     0.002 A 
HETATM    9  C   UNL     1      43.190 -15.699   7.461  1.00  0.00     0.002 A 
HETATM   10  C   UNL     1      43.424 -14.445   6.882  1.00  0.00     0.033 A 
HETATM   11  N   UNL     1      41.658 -12.465   2.794  1.00  0.00    -0.033 NA
HETATM   12  C   UNL     1      42.338 -11.376   2.776  1.00  0.00     0.193 C 
HETATM   13  N   UNL     1      43.233 -10.990   3.773  1.00  0.00    -0.338 N 
HETATM   14  H   UNL     1      43.811 -10.167   3.694  1.00  0.00     0.164 HD
ENDROOT
BRANCH   1  15
HETATM   15  C   UNL     1      42.939 -10.918   6.151  1.00  0.00     0.020 A 
HETATM   16  C   UNL     1      43.863 -10.689   7.200  1.00  0.00     0.078 A 
HETATM   17  C   UNL     1      43.503  -9.899   8.296  1.00  0.00     0.039 A 
HETATM   18  C   UNL     1      42.237  -9.314   8.360  1.00  0.00     0.022 A 
HETATM   19  C   UNL     1      41.335  -9.506   7.322  1.00  0.00     0.011 A 
HETATM   20  C   UNL     1      41.678 -10.291   6.220  1.00  0.00     0.033 A 
HETATM   21 BR   UNL     1      39.627  -8.702   7.403  1.00  0.00    -0.051 Br
BRANCH  16  22
HETATM   22  O   UNL     1      45.098 -11.269   7.034  1.00  0.00    -0.355 OA
HETATM   23  C   UNL     1      46.214 -10.609   7.629  1.00  0.00     0.210 C 
ENDBRANCH  16  22
ENDBRANCH   1  15
BRANCH  12  24
HETATM   24  N   UNL     1      42.257 -10.476   1.775  1.00  0.00    -0.272 NA
HETATM   25  H   UNL     1      41.288 -10.284   1.534  1.00  0.00     0.127 HD
HETATM   26  H   UNL     1      42.783  -9.620   1.895  1.00  0.00     0.127 HD
ENDBRANCH  12  24
TORSDOF 3
ENDMDL
MODEL 6
REMARK VINA RESULT:      -7.0     10.418     12.208
REMARK  3 active torsions:
REMARK  status: ('A' for Active; 'I' for Inactive)
REMARK    1  A    between atoms: O_2  and  C_3 
REMARK    2  A    between atoms: C_4  and  C_5 
REMARK    3  A    between atoms: C_16  and  N_17 
ROOT
HETATM    1  C   UNL     1      39.364  -7.925  12.699  1.00  0.00     0.246 C 
HETATM    2  N   UNL     1      40.582  -7.906  11.917  1.00  0.00    -0.151 N 
HETATM    3  C   UNL     1      41.301  -9.057  11.707  1.00  0.00     0.734 A 
HETATM    4  N   UNL     1      42.368  -8.782  10.988  1.00  0.00    -0.060 NA
HETATM    5  C   UNL     1      42.295  -7.447  10.679  1.00  0.00     0.103 A 
HETATM    6  C   UNL     1      41.158  -6.868  11.234  1.00  0.00     0.083 A 
HETATM    7  C   UNL     1      43.170  -6.659   9.919  1.00  0.00     0.034 A 
HETATM    8  C   UNL     1      42.867  -5.305   9.737  1.00  0.00     0.002 A 
HETATM    9  C   UNL     1      41.715  -4.748  10.299  1.00  0.00     0.002 A 
HETATM   10  C   UNL     1      40.830  -5.519  11.063  1.00  0.00     0.033 A 
HETATM   11  N   UNL     1      40.915 -10.262  12.183  1.00  0.00    -0.033 NA
HETATM   12  C   UNL     1      39.791 -10.355  12.794  1.00  0.00     0.193 C 
HETATM   13  N   UNL     1      38.941  -9.279  13.047  1.00  0.00    -0.338 N 
HETATM   14  H   UNL     1      38.028  -9.394  13.461  1.00  0.00     0.164 HD
ENDROOT
BRANCH   1  15
HETATM   15  C   UNL     1      39.428  -7.134  14.002  1.00  0.00     0.020 A 
HETATM   16  C   UNL     1      38.354  -6.269  14.325  1.00  0.00     0.078 A 
HETATM   17  C   UNL     1      38.387  -5.516  15.504  1.00  0.00     0.039 A 
HETATM   18  C   UNL     1      39.467  -5.622  16.381  1.00  0.00     0.022 A 
HETATM   19  C   UNL     1      40.510  -6.491  16.088  1.00  0.00     0.011 A 
HETATM   20  C   UNL     1      40.494  -7.250  14.918  1.00  0.00     0.033 A 
HETATM   21 BR   UNL     1      41.966  -6.644  17.283  1.00  0.00    -0.051 Br
BRANCH  16  22
HETATM   22  O   UNL     1      37.316  -6.259  13.426  1.00  0.00    -0.355 OA
HETATM   23  C   UNL     1      37.156  -5.088  12.626  1.00  0.00     0.210 C 
ENDBRANCH  16  22
ENDBRANCH   1  15
BRANCH  12  24
HETATM   24  N   UNL     1      39.303 -11.521  13.263  1.00  0.00    -0.272 NA
HETATM   25  H   UNL     1      38.806 -12.028  12.534  1.00  0.00     0.127 HD
HETATM   26  H   UNL     1      39.959 -12.122  13.746  1.00  0.00     0.127 HD
ENDBRANCH  12  24
TORSDOF 3
ENDMDL
MODEL 7
REMARK VINA RESULT:      -6.9     15.427     17.573
REMARK  3 active torsions:
REMARK  status: ('A' for Active; 'I' for Inactive)
REMARK    1  A    between atoms: O_2  and  C_3 
REMARK    2  A    between atoms: C_4  and  C_5 
REMARK    3  A    between atoms: C_16  and  N_17 
ROOT
HETATM    1  C   UNL     1      44.199 -29.663  -0.262  1.00  0.00     0.246 C 
HETATM    2  N   UNL     1      43.877 -31.053  -0.503  1.00  0.00    -0.151 N 
HETATM    3  C   UNL     1      43.392 -31.848   0.507  1.00  0.00     0.734 A 
HETATM    4  N   UNL     1      43.194 -33.065   0.049  1.00  0.00    -0.060 NA
HETATM    5  C   UNL     1      43.493 -33.031  -1.290  1.00  0.00     0.103 A 
HETATM    6  C   UNL     1      43.906 -31.759  -1.676  1.00  0.00     0.083 A 
HETATM    7  C   UNL     1      43.432 -34.056  -2.244  1.00  0.00     0.034 A 
HETATM    8  C   UNL     1      43.785 -33.763  -3.566  1.00  0.00     0.002 A 
HETATM    9  C   UNL     1      44.189 -32.476  -3.930  1.00  0.00     0.002 A 
HETATM   10  C   UNL     1      44.260 -31.440  -2.991  1.00  0.00     0.033 A 
HETATM   11  N   UNL     1      43.164 -31.390   1.758  1.00  0.00    -0.033 NA
HETATM   12  C   UNL     1      43.335 -30.142   2.001  1.00  0.00     0.193 C 
HETATM   13  N   UNL     1      43.787 -29.212   1.065  1.00  0.00    -0.338 N 
HETATM   14  H   UNL     1      43.837 -28.224   1.262  1.00  0.00     0.164 HD
ENDROOT
BRANCH   1  15
HETATM   15  C   UNL     1      45.677 -29.315  -0.406  1.00  0.00     0.020 A 
HETATM   16  C   UNL     1      46.061 -28.373  -1.392  1.00  0.00     0.078 A 
HETATM   17  C   UNL     1      47.409 -28.042  -1.564  1.00  0.00     0.039 A 
HETATM   18  C   UNL     1      48.388 -28.622  -0.754  1.00  0.00     0.022 A 
HETATM   19  C   UNL     1      48.018 -29.523   0.237  1.00  0.00     0.011 A 
HETATM   20  C   UNL     1      46.678 -29.863   0.422  1.00  0.00     0.033 A 
HETATM   21 BR   UNL     1      49.342 -30.296   1.341  1.00  0.00    -0.051 Br
BRANCH  16  22
HETATM   22  O   UNL     1      45.029 -27.823  -2.113  1.00  0.00    -0.355 OA
HETATM   23  C   UNL     1      45.138 -27.855  -3.536  1.00  0.00     0.210 C 
ENDBRANCH  16  22
ENDBRANCH   1  15
BRANCH  12  24
HETATM   24  N   UNL     1      43.089 -29.587   3.205  1.00  0.00    -0.272 NA
HETATM   25  H   UNL     1      43.342 -28.601   3.211  1.00  0.00     0.127 HD
HETATM   26  H   UNL     1      42.164 -29.732   3.587  1.00  0.00     0.127 HD
ENDBRANCH  12  24
TORSDOF 3
ENDMDL
MODEL 8
REMARK VINA RESULT:      -6.8      3.398      5.857
REMARK  3 active torsions:
REMARK  status: ('A' for Active; 'I' for Inactive)
REMARK    1  A    between atoms: O_2  and  C_3 
REMARK    2  A    between atoms: C_4  and  C_5 
REMARK    3  A    between atoms: C_16  and  N_17 
ROOT
HETATM    1  C   UNL     1      40.376 -14.813   3.866  1.00  0.00     0.246 C 
HETATM    2  N   UNL     1      41.576 -15.454   4.362  1.00  0.00    -0.151 N 
HETATM    3  C   UNL     1      42.118 -15.093   5.570  1.00  0.00     0.734 A 
HETATM    4  N   UNL     1      43.205 -15.800   5.791  1.00  0.00    -0.060 NA
HETATM    5  C   UNL     1      43.322 -16.672   4.739  1.00  0.00     0.103 A 
HETATM    6  C   UNL     1      42.287 -16.494   3.826  1.00  0.00     0.083 A 
HETATM    7  C   UNL     1      44.294 -17.653   4.498  1.00  0.00     0.034 A 
HETATM    8  C   UNL     1      44.187 -18.433   3.341  1.00  0.00     0.002 A 
HETATM    9  C   UNL     1      43.134 -18.240   2.443  1.00  0.00     0.002 A 
HETATM   10  C   UNL     1      42.156 -17.263   2.665  1.00  0.00     0.033 A 
HETATM   11  N   UNL     1      41.567 -14.154   6.372  1.00  0.00    -0.033 NA
HETATM   12  C   UNL     1      40.448 -13.627   6.030  1.00  0.00     0.193 C 
HETATM   13  N   UNL     1      39.765 -13.924   4.851  1.00  0.00    -0.338 N 
HETATM   14  H   UNL     1      38.851 -13.552   4.645  1.00  0.00     0.164 HD
ENDROOT
BRANCH   1  15
HETATM   15  C   UNL     1      40.569 -13.994   2.593  1.00  0.00     0.020 A 
HETATM   16  C   UNL     1      40.263 -14.594   1.347  1.00  0.00     0.078 A 
HETATM   17  C   UNL     1      40.443 -13.879   0.158  1.00  0.00     0.039 A 
HETATM   18  C   UNL     1      40.907 -12.563   0.188  1.00  0.00     0.022 A 
HETATM   19  C   UNL     1      41.180 -11.955   1.407  1.00  0.00     0.011 A 
HETATM   20  C   UNL     1      41.005 -12.653   2.602  1.00  0.00     0.033 A 
HETATM   21 BR   UNL     1      41.795 -10.169   1.447  1.00  0.00    -0.051 Br
BRANCH  16  22
HETATM   22  O   UNL     1      39.773 -15.875   1.414  1.00  0.00    -0.355 OA
HETATM   23  C   UNL     1      39.401 -16.498   0.185  1.00  0.00     0.210 C 
ENDBRANCH  16  22
ENDBRANCH   1  15
BRANCH  12  24
HETATM   24  N   UNL     1      39.803 -12.717   6.787  1.00  0.00    -0.272 NA
HETATM   25  H   UNL     1      38.942 -13.104   7.167  1.00  0.00     0.127 HD
HETATM   26  H   UNL     1      40.349 -12.260   7.505  1.00  0.00     0.127 HD
ENDBRANCH  12  24
TORSDOF 3
ENDMDL
MODEL 9
REMARK VINA RESULT:      -6.8     13.114     14.930
REMARK  3 active torsions:
REMARK  status: ('A' for Active; 'I' for Inactive)
REMARK    1  A    between atoms: O_2  and  C_3 
REMARK    2  A    between atoms: C_4  and  C_5 
REMARK    3  A    between atoms: C_16  and  N_17 
ROOT
HETATM    1  C   UNL     1      39.947  -4.909  15.490  1.00  0.00     0.246 C 
HETATM    2  N   UNL     1      40.003  -6.003  14.544  1.00  0.00    -0.151 N 
HETATM    3  C   UNL     1      38.876  -6.414  13.875  1.00  0.00     0.734 A 
HETATM    4  N   UNL     1      39.177  -7.427  13.091  1.00  0.00    -0.060 NA
HETATM    5  C   UNL     1      40.529  -7.623  13.211  1.00  0.00     0.103 A 
HETATM    6  C   UNL     1      41.088  -6.717  14.108  1.00  0.00     0.083 A 
HETATM    7  C   UNL     1      41.354  -8.562  12.575  1.00  0.00     0.034 A 
HETATM    8  C   UNL     1      42.724  -8.554  12.861  1.00  0.00     0.002 A 
HETATM    9  C   UNL     1      43.261  -7.630  13.761  1.00  0.00     0.002 A 
HETATM   10  C   UNL     1      42.454  -6.686  14.407  1.00  0.00     0.033 A 
HETATM   11  N   UNL     1      37.672  -5.822  14.033  1.00  0.00    -0.033 NA
HETATM   12  C   UNL     1      37.586  -4.783  14.781  1.00  0.00     0.193 C 
HETATM   13  N   UNL     1      38.652  -4.233  15.491  1.00  0.00    -0.338 N 
HETATM   14  H   UNL     1      38.573  -3.371  16.009  1.00  0.00     0.164 HD
ENDROOT
BRANCH   1  15
HETATM   15  C   UNL     1      40.242  -5.299  16.936  1.00  0.00     0.020 A 
HETATM   16  C   UNL     1      40.882  -4.355  17.776  1.00  0.00     0.078 A 
HETATM   17  C   UNL     1      41.182  -4.683  19.103  1.00  0.00     0.039 A 
HETATM   18  C   UNL     1      40.839  -5.935  19.616  1.00  0.00     0.022 A 
HETATM   19  C   UNL     1      40.183  -6.856  18.809  1.00  0.00     0.011 A 
HETATM   20  C   UNL     1      39.875  -6.545  17.484  1.00  0.00     0.033 A 
HETATM   21 BR   UNL     1      39.707  -8.545  19.509  1.00  0.00    -0.051 Br
BRANCH  16  22
HETATM   22  O   UNL     1      41.144  -3.136  17.200  1.00  0.00    -0.355 OA
HETATM   23  C   UNL     1      42.316  -2.448  17.635  1.00  0.00     0.210 C 
ENDBRANCH  16  22
ENDBRANCH   1  15
BRANCH  12  24
HETATM   24  N   UNL     1      36.437  -4.100  14.961  1.00  0.00    -0.272 NA
HETATM   25  H   UNL     1      36.544  -3.390  15.682  1.00  0.00     0.127 HD
HETATM   26  H   UNL     1      36.004  -3.719  14.130  1.00  0.00     0.127 HD
ENDBRANCH  12  24
TORSDOF 3
ENDMDL
MODEL 10
REMARK VINA RESULT:      -6.7     15.403     16.192
REMARK  3 active torsions:
REMARK  status: ('A' for Active; 'I' for Inactive)
REMARK    1  A    between atoms: O_2  and  C_3 
REMARK    2  A    between atoms: C_4  and  C_5 
REMARK    3  A    between atoms: C_16  and  N_17 
ROOT
HETATM    1  C   UNL     1      44.806 -29.016  -0.086  1.00  0.00     0.246 C 
HETATM    2  N   UNL     1      46.190 -29.074   0.333  1.00  0.00    -0.151 N 
HETATM    3  C   UNL     1      47.202 -28.743  -0.535  1.00  0.00     0.734 A 
HETATM    4  N   UNL     1      48.362 -28.890   0.069  1.00  0.00    -0.060 NA
HETATM    5  C   UNL     1      48.084 -29.256   1.361  1.00  0.00     0.103 A 
HETATM    6  C   UNL     1      46.711 -29.356   1.567  1.00  0.00     0.083 A 
HETATM    7  C   UNL     1      48.962 -29.517   2.422  1.00  0.00     0.034 A 
HETATM    8  C   UNL     1      48.425 -29.868   3.666  1.00  0.00     0.002 A 
HETATM    9  C   UNL     1      47.042 -29.955   3.850  1.00  0.00     0.002 A 
HETATM   10  C   UNL     1      46.149 -29.700   2.801  1.00  0.00     0.033 A 
HETATM   11  N   UNL     1      46.978 -28.328  -1.801  1.00  0.00    -0.033 NA
HETATM   12  C   UNL     1      45.768 -28.160  -2.193  1.00  0.00     0.193 C 
HETATM   13  N   UNL     1      44.643 -28.419  -1.410  1.00  0.00    -0.338 N 
HETATM   14  H   UNL     1      43.707 -28.205  -1.717  1.00  0.00     0.164 HD
ENDROOT
BRANCH   1  15
HETATM   15  C   UNL     1      44.092 -30.364  -0.120  1.00  0.00     0.020 A 
HETATM   16  C   UNL     1      43.126 -30.646   0.876  1.00  0.00     0.078 A 
HETATM   17  C   UNL     1      42.463 -31.878   0.886  1.00  0.00     0.039 A 
HETATM   18  C   UNL     1      42.733 -32.834  -0.095  1.00  0.00     0.022 A 
HETATM   19  C   UNL     1      43.656 -32.554  -1.095  1.00  0.00     0.011 A 
HETATM   20  C   UNL     1      44.325 -31.330  -1.120  1.00  0.00     0.033 A 
HETATM   21 BR   UNL     1      44.010 -33.843  -2.430  1.00  0.00    -0.051 Br
BRANCH  16  22
HETATM   22  O   UNL     1      42.894 -29.633   1.775  1.00  0.00    -0.355 OA
HETATM   23  C   UNL     1      42.135 -29.956   2.940  1.00  0.00     0.210 C 
ENDBRANCH  16  22
ENDBRANCH   1  15
BRANCH  12  24
HETATM   24  N   UNL     1      45.449 -27.705  -3.422  1.00  0.00    -0.272 NA
HETATM   25  H   UNL     1      46.236 -27.797  -4.060  1.00  0.00     0.127 HD
HETATM   26  H   UNL     1      44.599 -28.070  -3.831  1.00  0.00     0.127 HD
ENDBRANCH  12  24
TORSDOF 3
ENDMDL
