MODEL 1
REMARK VINA RESULT:     -10.0      0.000      0.000
REMARK  7 active torsions:
REMARK  status: ('A' for Active; 'I' for Inactive)
REMARK       I    between atoms: C_2  and  N_3 
REMARK       I    between atoms: C_2  and  N_12 
REMARK    1  A    between atoms: N_3  and  C_4 
REMARK    2  A    between atoms: C_16  and  C_17 
REMARK    3  A    between atoms: C_21  and  C_23 
REMARK       I    between atoms: C_23  and  N_25 
REMARK    4  A    between atoms: N_25  and  C_26 
REMARK    5  A    between atoms: C_29  and  C_30 
REMARK    6  A    between atoms: C_30  and  C_31 
REMARK    7  A    between atoms: C_31  and  N_32 
ROOT
HETATM    1  C   UNL     1      42.689 -16.416   3.925  1.00  0.00     0.037 A 
HETATM    2  C   UNL     1      43.602 -16.406   4.981  1.00  0.00     0.029 A 
HETATM    3  C   UNL     1      44.495 -17.468   5.159  1.00  0.00     0.004 A 
HETATM    4  C   UNL     1      44.480 -18.551   4.282  1.00  0.00     0.023 A 
HETATM    5  C   UNL     1      43.571 -18.573   3.223  1.00  0.00     0.046 A 
HETATM    6  C   UNL     1      42.678 -17.509   3.047  1.00  0.00     0.052 A 
HETATM    7  C   UNL     1      43.539 -19.692   2.327  1.00  0.00     0.099 C 
HETATM    8  N   UNL     1      43.503 -20.603   1.609  1.00  0.00    -0.191 NA
ENDROOT
BRANCH   1   9
HETATM    9  N   UNL     1      41.724 -15.412   3.712  1.00  0.00    -0.309 N 
HETATM   10  C   UNL     1      41.075 -15.090   2.543  1.00  0.00     0.323 C 
HETATM   11  O   UNL     1      41.062 -15.791   1.534  1.00  0.00    -0.247 OA
HETATM   12  N   UNL     1      40.440 -13.861   2.560  1.00  0.00    -0.325 N 
HETATM   13  C   UNL     1      39.686 -13.416   1.400  1.00  0.00     0.128 C 
HETATM   14  C   UNL     1      40.357 -12.885   3.650  1.00  0.00     0.122 C 
HETATM   15  C   UNL     1      39.479 -11.925   1.616  1.00  0.00     0.022 C 
HETATM   16  C   UNL     1      39.399 -11.803   3.134  1.00  0.00     0.032 C 
HETATM   17  H   UNL     1      41.461 -14.880   4.523  1.00  0.00     0.170 HD
BRANCH  14  18
HETATM   18  C   UNL     1      41.714 -12.343   4.062  1.00  0.00    -0.034 A 
HETATM   19  C   UNL     1      42.761 -12.165   3.143  1.00  0.00     0.009 A 
HETATM   20  C   UNL     1      44.018 -11.724   3.562  1.00  0.00     0.002 A 
HETATM   21  C   UNL     1      44.257 -11.469   4.912  1.00  0.00     0.017 A 
HETATM   22  C   UNL     1      43.230 -11.650   5.843  1.00  0.00     0.033 A 
HETATM   23  C   UNL     1      41.959 -12.056   5.415  1.00  0.00     0.026 A 
BRANCH  22  24
HETATM   24  C   UNL     1      43.445 -11.420   7.298  1.00  0.00     0.256 C 
HETATM   25  O   UNL     1      43.951 -12.322   7.954  1.00  0.00    -0.267 OA
HETATM   26  N   UNL     1      43.095 -10.158   7.740  1.00  0.00    -0.323 N 
HETATM   27  H   UNL     1      42.838  -9.476   7.037  1.00  0.00     0.169 HD
BRANCH  26  28
HETATM   28  C   UNL     1      43.115  -9.681   9.067  1.00  0.00     0.035 A 
HETATM   29  C   UNL     1      41.970  -9.456   9.829  1.00  0.00     0.030 A 
HETATM   30  C   UNL     1      42.069  -8.929  11.122  1.00  0.00     0.009 A 
HETATM   31  C   UNL     1      43.317  -8.629  11.681  1.00  0.00    -0.056 A 
HETATM   32  C   UNL     1      44.466  -8.869  10.922  1.00  0.00     0.009 A 
HETATM   33  C   UNL     1      44.366  -9.389   9.626  1.00  0.00     0.030 A 
BRANCH  31  34
HETATM   34  C   UNL     1      43.419  -8.002  13.054  1.00  0.00     0.068 C 
BRANCH  34  35
HETATM   35  C   UNL     1      42.048  -7.732  13.702  1.00  0.00     0.277 C 
BRANCH  35  36
HETATM   36  N   UNL     1      41.862  -6.314  14.065  1.00  0.00     0.092 N 
HETATM   37  C   UNL     1      42.092  -5.382  12.937  1.00  0.00     0.298 C 
HETATM   38  C   UNL     1      40.980  -5.387  11.875  1.00  0.00     0.198 C 
HETATM   39  O   UNL     1      39.700  -5.116  12.459  1.00  0.00    -0.388 OA
HETATM   40  C   UNL     1      39.404  -6.062  13.495  1.00  0.00     0.198 C 
HETATM   41  C   UNL     1      40.494  -6.066  14.580  1.00  0.00     0.298 C 
ENDBRANCH  35  36
ENDBRANCH  34  35
ENDBRANCH  31  34
ENDBRANCH  26  28
ENDBRANCH  22  24
ENDBRANCH  14  18
ENDBRANCH   1   9
TORSDOF 7
ENDMDL
MODEL 2
REMARK VINA RESULT:      -9.8      2.497     10.131
REMARK  7 active torsions:
REMARK  status: ('A' for Active; 'I' for Inactive)
REMARK       I    between atoms: C_2  and  N_3 
REMARK       I    between atoms: C_2  and  N_12 
REMARK    1  A    between atoms: N_3  and  C_4 
REMARK    2  A    between atoms: C_16  and  C_17 
REMARK    3  A    between atoms: C_21  and  C_23 
REMARK       I    between atoms: C_23  and  N_25 
REMARK    4  A    between atoms: N_25  and  C_26 
REMARK    5  A    between atoms: C_29  and  C_30 
REMARK    6  A    between atoms: C_30  and  C_31 
REMARK    7  A    between atoms: C_31  and  N_32 
ROOT
HETATM    1  C   UNL     1      44.354  -9.621   9.070  1.00  0.00     0.037 A 
HETATM    2  C   UNL     1      45.685  -9.216   8.953  1.00  0.00     0.029 A 
HETATM    3  C   UNL     1      46.504  -9.747   7.951  1.00  0.00     0.004 A 
HETATM    4  C   UNL     1      45.999 -10.688   7.058  1.00  0.00     0.023 A 
HETATM    5  C   UNL     1      44.670 -11.103   7.165  1.00  0.00     0.046 A 
HETATM    6  C   UNL     1      43.852 -10.570   8.169  1.00  0.00     0.052 A 
HETATM    7  C   UNL     1      44.148 -12.085   6.260  1.00  0.00     0.099 C 
HETATM    8  N   UNL     1      43.728 -12.889   5.536  1.00  0.00    -0.191 NA
ENDROOT
BRANCH   1   9
HETATM    9  N   UNL     1      43.484  -9.174  10.083  1.00  0.00    -0.309 N 
HETATM   10  C   UNL     1      42.955  -9.896  11.129  1.00  0.00     0.323 C 
HETATM   11  O   UNL     1      43.350 -11.004  11.485  1.00  0.00    -0.247 OA
HETATM   12  N   UNL     1      41.885  -9.288  11.761  1.00  0.00    -0.325 N 
HETATM   13  C   UNL     1      41.257  -9.927  12.905  1.00  0.00     0.128 C 
HETATM   14  C   UNL     1      41.266  -7.991  11.475  1.00  0.00     0.122 C 
HETATM   15  C   UNL     1      39.929  -9.208  13.075  1.00  0.00     0.022 C 
HETATM   16  C   UNL     1      40.237  -7.793  12.597  1.00  0.00     0.032 C 
HETATM   17  H   UNL     1      43.237  -8.201  10.051  1.00  0.00     0.170 HD
BRANCH  14  18
HETATM   18  C   UNL     1      40.662  -7.918  10.084  1.00  0.00    -0.034 A 
HETATM   19  C   UNL     1      40.292  -6.701   9.489  1.00  0.00     0.009 A 
HETATM   20  C   UNL     1      39.680  -6.670   8.234  1.00  0.00     0.002 A 
HETATM   21  C   UNL     1      39.410  -7.859   7.557  1.00  0.00     0.017 A 
HETATM   22  C   UNL     1      39.762  -9.082   8.138  1.00  0.00     0.033 A 
HETATM   23  C   UNL     1      40.410  -9.107   9.380  1.00  0.00     0.026 A 
BRANCH  22  24
HETATM   24  C   UNL     1      39.468 -10.378   7.468  1.00  0.00     0.256 C 
HETATM   25  O   UNL     1      38.508 -11.026   7.866  1.00  0.00    -0.267 OA
HETATM   26  N   UNL     1      40.300 -10.680   6.406  1.00  0.00    -0.323 N 
HETATM   27  H   UNL     1      40.947  -9.961   6.106  1.00  0.00     0.169 HD
BRANCH  26  28
HETATM   28  C   UNL     1      40.309 -11.862   5.638  1.00  0.00     0.035 A 
HETATM   29  C   UNL     1      40.299 -13.145   6.186  1.00  0.00     0.030 A 
HETATM   30  C   UNL     1      40.365 -14.271   5.358  1.00  0.00     0.009 A 
HETATM   31  C   UNL     1      40.432 -14.137   3.967  1.00  0.00    -0.056 A 
HETATM   32  C   UNL     1      40.428 -12.851   3.417  1.00  0.00     0.009 A 
HETATM   33  C   UNL     1      40.369 -11.725   4.246  1.00  0.00     0.030 A 
BRANCH  31  34
HETATM   34  C   UNL     1      40.566 -15.353   3.078  1.00  0.00     0.068 C 
BRANCH  34  35
HETATM   35  C   UNL     1      41.443 -16.461   3.692  1.00  0.00     0.277 C 
BRANCH  35  36
HETATM   36  N   UNL     1      42.885 -16.227   3.478  1.00  0.00     0.092 N 
HETATM   37  C   UNL     1      43.710 -16.507   4.676  1.00  0.00     0.298 C 
HETATM   38  C   UNL     1      43.871 -18.003   4.997  1.00  0.00     0.198 C 
HETATM   39  O   UNL     1      44.401 -18.722   3.878  1.00  0.00    -0.388 OA
HETATM   40  C   UNL     1      43.570 -18.548   2.722  1.00  0.00     0.198 C 
HETATM   41  C   UNL     1      43.405 -17.060   2.368  1.00  0.00     0.298 C 
ENDBRANCH  35  36
ENDBRANCH  34  35
ENDBRANCH  31  34
ENDBRANCH  26  28
ENDBRANCH  22  24
ENDBRANCH  14  18
ENDBRANCH   1   9
TORSDOF 7
ENDMDL
MODEL 3
REMARK VINA RESULT:      -9.8      2.636     10.874
REMARK  7 active torsions:
REMARK  status: ('A' for Active; 'I' for Inactive)
REMARK       I    between atoms: C_2  and  N_3 
REMARK       I    between atoms: C_2  and  N_12 
REMARK    1  A    between atoms: N_3  and  C_4 
REMARK    2  A    between atoms: C_16  and  C_17 
REMARK    3  A    between atoms: C_21  and  C_23 
REMARK       I    between atoms: C_23  and  N_25 
REMARK    4  A    between atoms: N_25  and  C_26 
REMARK    5  A    between atoms: C_29  and  C_30 
REMARK    6  A    between atoms: C_30  and  C_31 
REMARK    7  A    between atoms: C_31  and  N_32 
ROOT
HETATM    1  C   UNL     1      40.324  -9.647   7.676  1.00  0.00     0.037 A 
HETATM    2  C   UNL     1      39.315 -10.416   7.092  1.00  0.00     0.029 A 
HETATM    3  C   UNL     1      38.930 -10.196   5.766  1.00  0.00     0.004 A 
HETATM    4  C   UNL     1      39.550  -9.203   5.011  1.00  0.00     0.023 A 
HETATM    5  C   UNL     1      40.559  -8.425   5.584  1.00  0.00     0.046 A 
HETATM    6  C   UNL     1      40.943  -8.647   6.911  1.00  0.00     0.052 A 
HETATM    7  C   UNL     1      41.189  -7.389   4.818  1.00  0.00     0.099 C 
HETATM    8  N   UNL     1      41.691  -6.542   4.204  1.00  0.00    -0.191 NA
ENDROOT
BRANCH   1   9
HETATM    9  N   UNL     1      40.728  -9.771   9.019  1.00  0.00    -0.309 N 
HETATM   10  C   UNL     1      40.449  -8.931  10.073  1.00  0.00     0.323 C 
HETATM   11  O   UNL     1      39.593  -8.049  10.057  1.00  0.00    -0.247 OA
HETATM   12  N   UNL     1      41.247  -9.124  11.186  1.00  0.00    -0.325 N 
HETATM   13  C   UNL     1      41.032  -8.327  12.382  1.00  0.00     0.128 C 
HETATM   14  C   UNL     1      42.319 -10.103  11.389  1.00  0.00     0.122 C 
HETATM   15  C   UNL     1      42.289  -8.521  13.213  1.00  0.00     0.022 C 
HETATM   16  C   UNL     1      42.722  -9.940  12.861  1.00  0.00     0.032 C 
HETATM   17  H   UNL     1      41.270 -10.587   9.239  1.00  0.00     0.170 HD
BRANCH  14  18
HETATM   18  C   UNL     1      43.476  -9.920  10.423  1.00  0.00    -0.034 A 
HETATM   19  C   UNL     1      44.379  -8.849  10.527  1.00  0.00     0.009 A 
HETATM   20  C   UNL     1      45.395  -8.671   9.587  1.00  0.00     0.002 A 
HETATM   21  C   UNL     1      45.518  -9.552   8.513  1.00  0.00     0.017 A 
HETATM   22  C   UNL     1      44.622 -10.620   8.387  1.00  0.00     0.033 A 
HETATM   23  C   UNL     1      43.627 -10.817   9.353  1.00  0.00     0.026 A 
BRANCH  22  24
HETATM   24  C   UNL     1      44.694 -11.569   7.242  1.00  0.00     0.256 C 
HETATM   25  O   UNL     1      45.726 -11.596   6.583  1.00  0.00    -0.267 OA
HETATM   26  N   UNL     1      43.582 -12.374   7.090  1.00  0.00    -0.323 N 
HETATM   27  H   UNL     1      42.879 -12.334   7.818  1.00  0.00     0.169 HD
BRANCH  26  28
HETATM   28  C   UNL     1      43.335 -13.305   6.060  1.00  0.00     0.035 A 
HETATM   29  C   UNL     1      43.062 -12.948   4.740  1.00  0.00     0.030 A 
HETATM   30  C   UNL     1      42.774 -13.929   3.785  1.00  0.00     0.009 A 
HETATM   31  C   UNL     1      42.764 -15.286   4.129  1.00  0.00    -0.056 A 
HETATM   32  C   UNL     1      43.053 -15.644   5.449  1.00  0.00     0.009 A 
HETATM   33  C   UNL     1      43.334 -14.662   6.406  1.00  0.00     0.030 A 
BRANCH  31  34
HETATM   34  C   UNL     1      42.392 -16.340   3.110  1.00  0.00     0.068 C 
BRANCH  34  35
HETATM   35  C   UNL     1      42.619 -17.778   3.613  1.00  0.00     0.277 C 
BRANCH  35  36
HETATM   36  N   UNL     1      43.966 -18.286   3.289  1.00  0.00     0.092 N 
HETATM   37  C   UNL     1      44.553 -19.124   4.360  1.00  0.00     0.298 C 
HETATM   38  C   UNL     1      43.920 -20.520   4.491  1.00  0.00     0.198 C 
HETATM   39  O   UNL     1      43.972 -21.233   3.250  1.00  0.00    -0.388 OA
HETATM   40  C   UNL     1      43.326 -20.489   2.208  1.00  0.00     0.198 C 
HETATM   41  C   UNL     1      43.951 -19.093   2.045  1.00  0.00     0.298 C 
ENDBRANCH  35  36
ENDBRANCH  34  35
ENDBRANCH  31  34
ENDBRANCH  26  28
ENDBRANCH  22  24
ENDBRANCH  14  18
ENDBRANCH   1   9
TORSDOF 7
ENDMDL
MODEL 4
REMARK VINA RESULT:      -9.6      2.934     10.015
REMARK  7 active torsions:
REMARK  status: ('A' for Active; 'I' for Inactive)
REMARK       I    between atoms: C_2  and  N_3 
REMARK       I    between atoms: C_2  and  N_12 
REMARK    1  A    between atoms: N_3  and  C_4 
REMARK    2  A    between atoms: C_16  and  C_17 
REMARK    3  A    between atoms: C_21  and  C_23 
REMARK       I    between atoms: C_23  and  N_25 
REMARK    4  A    between atoms: N_25  and  C_26 
REMARK    5  A    between atoms: C_29  and  C_30 
REMARK    6  A    between atoms: C_30  and  C_31 
REMARK    7  A    between atoms: C_31  and  N_32 
ROOT
HETATM    1  C   UNL     1      40.945  -9.549   7.046  1.00  0.00     0.037 A 
HETATM    2  C   UNL     1      41.113  -8.364   6.327  1.00  0.00     0.029 A 
HETATM    3  C   UNL     1      40.780  -8.302   4.970  1.00  0.00     0.004 A 
HETATM    4  C   UNL     1      40.278  -9.427   4.319  1.00  0.00     0.023 A 
HETATM    5  C   UNL     1      40.108 -10.619   5.027  1.00  0.00     0.046 A 
HETATM    6  C   UNL     1      40.441 -10.678   6.385  1.00  0.00     0.052 A 
HETATM    7  C   UNL     1      39.608 -11.786   4.360  1.00  0.00     0.099 C 
HETATM    8  N   UNL     1      39.216 -12.734   3.818  1.00  0.00    -0.191 NA
ENDROOT
BRANCH   1   9
HETATM    9  N   UNL     1      41.308  -9.704   8.398  1.00  0.00    -0.309 N 
HETATM   10  C   UNL     1      41.090  -8.836   9.443  1.00  0.00     0.323 C 
HETATM   11  O   UNL     1      40.323  -7.876   9.406  1.00  0.00    -0.247 OA
HETATM   12  N   UNL     1      41.842  -9.099  10.574  1.00  0.00    -0.325 N 
HETATM   13  C   UNL     1      41.680  -8.279  11.762  1.00  0.00     0.128 C 
HETATM   14  C   UNL     1      42.811 -10.175  10.802  1.00  0.00     0.122 C 
HETATM   15  C   UNL     1      42.896  -8.589  12.620  1.00  0.00     0.022 C 
HETATM   16  C   UNL     1      43.197 -10.045  12.281  1.00  0.00     0.032 C 
HETATM   17  H   UNL     1      41.764 -10.568   8.632  1.00  0.00     0.170 HD
BRANCH  14  18
HETATM   18  C   UNL     1      43.999 -10.110   9.860  1.00  0.00    -0.034 A 
HETATM   19  C   UNL     1      45.118  -9.301  10.118  1.00  0.00     0.009 A 
HETATM   20  C   UNL     1      46.168  -9.213   9.202  1.00  0.00     0.002 A 
HETATM   21  C   UNL     1      46.112  -9.919   8.001  1.00  0.00     0.017 A 
HETATM   22  C   UNL     1      45.001 -10.722   7.721  1.00  0.00     0.033 A 
HETATM   23  C   UNL     1      43.966 -10.838   8.659  1.00  0.00     0.026 A 
BRANCH  22  24
HETATM   24  C   UNL     1      44.881 -11.470   6.440  1.00  0.00     0.256 C 
HETATM   25  O   UNL     1      45.882 -11.580   5.743  1.00  0.00    -0.267 OA
HETATM   26  N   UNL     1      43.635 -12.022   6.209  1.00  0.00    -0.323 N 
HETATM   27  H   UNL     1      42.960 -11.972   6.962  1.00  0.00     0.169 HD
BRANCH  26  28
HETATM   28  C   UNL     1      43.207 -12.712   5.057  1.00  0.00     0.035 A 
HETATM   29  C   UNL     1      42.793 -14.044   5.058  1.00  0.00     0.030 A 
HETATM   30  C   UNL     1      42.434 -14.677   3.863  1.00  0.00     0.009 A 
HETATM   31  C   UNL     1      42.472 -13.987   2.645  1.00  0.00    -0.056 A 
HETATM   32  C   UNL     1      42.874 -12.648   2.646  1.00  0.00     0.009 A 
HETATM   33  C   UNL     1      43.240 -12.018   3.841  1.00  0.00     0.030 A 
BRANCH  31  34
HETATM   34  C   UNL     1      42.144 -14.690   1.347  1.00  0.00     0.068 C 
BRANCH  34  35
HETATM   35  C   UNL     1      40.772 -14.293   0.771  1.00  0.00     0.277 C 
BRANCH  35  36
HETATM   36  N   UNL     1      40.871 -13.229  -0.248  1.00  0.00     0.092 N 
HETATM   37  C   UNL     1      40.232 -13.585  -1.536  1.00  0.00     0.298 C 
HETATM   38  C   UNL     1      38.695 -13.582  -1.501  1.00  0.00     0.198 C 
HETATM   39  O   UNL     1      38.185 -12.321  -1.052  1.00  0.00    -0.388 OA
HETATM   40  C   UNL     1      38.713 -11.991   0.239  1.00  0.00     0.198 C 
HETATM   41  C   UNL     1      40.251 -11.970   0.229  1.00  0.00     0.298 C 
ENDBRANCH  35  36
ENDBRANCH  34  35
ENDBRANCH  31  34
ENDBRANCH  26  28
ENDBRANCH  22  24
ENDBRANCH  14  18
ENDBRANCH   1   9
TORSDOF 7
ENDMDL
MODEL 5
REMARK VINA RESULT:      -9.5      2.088      5.097
REMARK  7 active torsions:
REMARK  status: ('A' for Active; 'I' for Inactive)
REMARK       I    between atoms: C_2  and  N_3 
REMARK       I    between atoms: C_2  and  N_12 
REMARK    1  A    between atoms: N_3  and  C_4 
REMARK    2  A    between atoms: C_16  and  C_17 
REMARK    3  A    between atoms: C_21  and  C_23 
REMARK       I    between atoms: C_23  and  N_25 
REMARK    4  A    between atoms: N_25  and  C_26 
REMARK    5  A    between atoms: C_29  and  C_30 
REMARK    6  A    between atoms: C_30  and  C_31 
REMARK    7  A    between atoms: C_31  and  N_32 
ROOT
HETATM    1  C   UNL     1      40.280 -11.759   3.927  1.00  0.00     0.037 A 
HETATM    2  C   UNL     1      39.775 -10.719   3.143  1.00  0.00     0.029 A 
HETATM    3  C   UNL     1      39.019  -9.695   3.721  1.00  0.00     0.004 A 
HETATM    4  C   UNL     1      38.758  -9.702   5.090  1.00  0.00     0.023 A 
HETATM    5  C   UNL     1      39.256 -10.737   5.885  1.00  0.00     0.046 A 
HETATM    6  C   UNL     1      40.014 -11.761   5.303  1.00  0.00     0.052 A 
HETATM    7  C   UNL     1      38.978 -10.760   7.291  1.00  0.00     0.099 C 
HETATM    8  N   UNL     1      38.742 -10.788   8.427  1.00  0.00    -0.191 NA
ENDROOT
BRANCH   1   9
HETATM    9  N   UNL     1      41.002 -12.852   3.410  1.00  0.00    -0.309 N 
HETATM   10  C   UNL     1      40.514 -13.968   2.771  1.00  0.00     0.323 C 
HETATM   11  O   UNL     1      39.371 -14.079   2.333  1.00  0.00    -0.247 OA
HETATM   12  N   UNL     1      41.414 -15.014   2.676  1.00  0.00    -0.325 N 
HETATM   13  C   UNL     1      41.037 -16.238   1.991  1.00  0.00     0.128 C 
HETATM   14  C   UNL     1      42.801 -15.077   3.146  1.00  0.00     0.122 C 
HETATM   15  C   UNL     1      42.077 -17.262   2.417  1.00  0.00     0.022 C 
HETATM   16  C   UNL     1      43.330 -16.419   2.621  1.00  0.00     0.032 C 
HETATM   17  H   UNL     1      42.001 -12.799   3.501  1.00  0.00     0.170 HD
BRANCH  14  18
HETATM   18  C   UNL     1      42.922 -14.929   4.652  1.00  0.00    -0.034 A 
HETATM   19  C   UNL     1      42.525 -15.943   5.540  1.00  0.00     0.009 A 
HETATM   20  C   UNL     1      42.589 -15.754   6.922  1.00  0.00     0.002 A 
HETATM   21  C   UNL     1      43.034 -14.540   7.443  1.00  0.00     0.017 A 
HETATM   22  C   UNL     1      43.423 -13.515   6.575  1.00  0.00     0.033 A 
HETATM   23  C   UNL     1      43.394 -13.721   5.189  1.00  0.00     0.026 A 
BRANCH  22  24
HETATM   24  C   UNL     1      43.877 -12.191   7.083  1.00  0.00     0.256 C 
HETATM   25  O   UNL     1      45.081 -11.966   7.106  1.00  0.00    -0.267 OA
HETATM   26  N   UNL     1      42.857 -11.324   7.423  1.00  0.00    -0.323 N 
HETATM   27  H   UNL     1      41.912 -11.608   7.195  1.00  0.00     0.169 HD
BRANCH  26  28
HETATM   28  C   UNL     1      42.981 -10.042   7.999  1.00  0.00     0.035 A 
HETATM   29  C   UNL     1      43.697  -9.782   9.167  1.00  0.00     0.030 A 
HETATM   30  C   UNL     1      43.729  -8.492   9.708  1.00  0.00     0.009 A 
HETATM   31  C   UNL     1      43.055  -7.435   9.084  1.00  0.00    -0.056 A 
HETATM   32  C   UNL     1      42.350  -7.693   7.905  1.00  0.00     0.009 A 
HETATM   33  C   UNL     1      42.312  -8.986   7.369  1.00  0.00     0.030 A 
BRANCH  31  34
HETATM   34  C   UNL     1      43.039  -6.055   9.703  1.00  0.00     0.068 C 
BRANCH  34  35
HETATM   35  C   UNL     1      42.357  -6.015  11.083  1.00  0.00     0.277 C 
BRANCH  35  36
HETATM   36  N   UNL     1      40.918  -6.339  11.014  1.00  0.00     0.092 N 
HETATM   37  C   UNL     1      40.575  -7.634  11.647  1.00  0.00     0.298 C 
HETATM   38  C   UNL     1      40.627  -7.620  13.184  1.00  0.00     0.198 C 
HETATM   39  O   UNL     1      39.789  -6.592  13.724  1.00  0.00    -0.388 OA
HETATM   40  C   UNL     1      40.159  -5.309  13.202  1.00  0.00     0.198 C 
HETATM   41  C   UNL     1      40.099  -5.289  11.665  1.00  0.00     0.298 C 
ENDBRANCH  35  36
ENDBRANCH  34  35
ENDBRANCH  31  34
ENDBRANCH  26  28
ENDBRANCH  22  24
ENDBRANCH  14  18
ENDBRANCH   1   9
TORSDOF 7
ENDMDL
MODEL 6
REMARK VINA RESULT:      -9.4      1.767      2.339
REMARK  7 active torsions:
REMARK  status: ('A' for Active; 'I' for Inactive)
REMARK       I    between atoms: C_2  and  N_3 
REMARK       I    between atoms: C_2  and  N_12 
REMARK    1  A    between atoms: N_3  and  C_4 
REMARK    2  A    between atoms: C_16  and  C_17 
REMARK    3  A    between atoms: C_21  and  C_23 
REMARK       I    between atoms: C_23  and  N_25 
REMARK    4  A    between atoms: N_25  and  C_26 
REMARK    5  A    between atoms: C_29  and  C_30 
REMARK    6  A    between atoms: C_30  and  C_31 
REMARK    7  A    between atoms: C_31  and  N_32 
ROOT
HETATM    1  C   UNL     1      41.807 -15.763   3.593  1.00  0.00     0.037 A 
HETATM    2  C   UNL     1      42.404 -16.146   2.390  1.00  0.00     0.029 A 
HETATM    3  C   UNL     1      43.287 -17.230   2.348  1.00  0.00     0.004 A 
HETATM    4  C   UNL     1      43.583 -17.939   3.509  1.00  0.00     0.023 A 
HETATM    5  C   UNL     1      42.995 -17.565   4.719  1.00  0.00     0.046 A 
HETATM    6  C   UNL     1      42.110 -16.480   4.759  1.00  0.00     0.052 A 
HETATM    7  C   UNL     1      43.308 -18.280   5.922  1.00  0.00     0.099 C 
HETATM    8  N   UNL     1      43.571 -18.849   6.899  1.00  0.00    -0.191 NA
ENDROOT
BRANCH   1   9
HETATM    9  N   UNL     1      40.952 -14.652   3.727  1.00  0.00    -0.309 N 
HETATM   10  C   UNL     1      40.215 -14.024   2.749  1.00  0.00     0.323 C 
HETATM   11  O   UNL     1      40.000 -14.484   1.631  1.00  0.00    -0.247 OA
HETATM   12  N   UNL     1      39.739 -12.774   3.106  1.00  0.00    -0.325 N 
HETATM   13  C   UNL     1      38.915 -12.018   2.178  1.00  0.00     0.128 C 
HETATM   14  C   UNL     1      39.902 -12.057   4.373  1.00  0.00     0.122 C 
HETATM   15  C   UNL     1      38.916 -10.599   2.720  1.00  0.00     0.022 C 
HETATM   16  C   UNL     1      39.028 -10.803   4.227  1.00  0.00     0.032 C 
HETATM   17  H   UNL     1      40.851 -14.287   4.657  1.00  0.00     0.170 HD
BRANCH  14  18
HETATM   18  C   UNL     1      41.353 -11.746   4.694  1.00  0.00    -0.034 A 
HETATM   19  C   UNL     1      42.369 -11.826   3.728  1.00  0.00     0.009 A 
HETATM   20  C   UNL     1      43.703 -11.596   4.067  1.00  0.00     0.002 A 
HETATM   21  C   UNL     1      44.050 -11.298   5.385  1.00  0.00     0.017 A 
HETATM   22  C   UNL     1      43.053 -11.224   6.363  1.00  0.00     0.033 A 
HETATM   23  C   UNL     1      41.711 -11.418   6.012  1.00  0.00     0.026 A 
BRANCH  22  24
HETATM   24  C   UNL     1      43.377 -10.939   7.788  1.00  0.00     0.256 C 
HETATM   25  O   UNL     1      44.260 -11.600   8.320  1.00  0.00    -0.267 OA
HETATM   26  N   UNL     1      42.666  -9.891   8.342  1.00  0.00    -0.323 N 
HETATM   27  H   UNL     1      42.086  -9.345   7.718  1.00  0.00     0.169 HD
BRANCH  26  28
HETATM   28  C   UNL     1      42.704  -9.446   9.679  1.00  0.00     0.035 A 
HETATM   29  C   UNL     1      43.864  -9.013  10.322  1.00  0.00     0.030 A 
HETATM   30  C   UNL     1      43.831  -8.637  11.669  1.00  0.00     0.009 A 
HETATM   31  C   UNL     1      42.636  -8.678  12.397  1.00  0.00    -0.056 A 
HETATM   32  C   UNL     1      41.471  -9.098  11.749  1.00  0.00     0.009 A 
HETATM   33  C   UNL     1      41.506  -9.480  10.403  1.00  0.00     0.030 A 
BRANCH  31  34
HETATM   34  C   UNL     1      42.615  -8.331  13.869  1.00  0.00     0.068 C 
BRANCH  34  35
HETATM   35  C   UNL     1      41.325  -7.610  14.305  1.00  0.00     0.277 C 
BRANCH  35  36
HETATM   36  N   UNL     1      41.585  -6.507  15.251  1.00  0.00     0.092 N 
HETATM   37  C   UNL     1      40.448  -5.566  15.385  1.00  0.00     0.298 C 
HETATM   38  C   UNL     1      39.251  -6.128  16.171  1.00  0.00     0.198 C 
HETATM   39  O   UNL     1      39.648  -6.579  17.471  1.00  0.00    -0.388 OA
HETATM   40  C   UNL     1      40.685  -7.564  17.373  1.00  0.00     0.198 C 
HETATM   41  C   UNL     1      41.902  -7.023  16.604  1.00  0.00     0.298 C 
ENDBRANCH  35  36
ENDBRANCH  34  35
ENDBRANCH  31  34
ENDBRANCH  26  28
ENDBRANCH  22  24
ENDBRANCH  14  18
ENDBRANCH   1   9
TORSDOF 7
ENDMDL
MODEL 7
REMARK VINA RESULT:      -9.4      2.814     10.012
REMARK  7 active torsions:
REMARK  status: ('A' for Active; 'I' for Inactive)
REMARK       I    between atoms: C_2  and  N_3 
REMARK       I    between atoms: C_2  and  N_12 
REMARK    1  A    between atoms: N_3  and  C_4 
REMARK    2  A    between atoms: C_16  and  C_17 
REMARK    3  A    between atoms: C_21  and  C_23 
REMARK       I    between atoms: C_23  and  N_25 
REMARK    4  A    between atoms: N_25  and  C_26 
REMARK    5  A    between atoms: C_29  and  C_30 
REMARK    6  A    between atoms: C_30  and  C_31 
REMARK    7  A    between atoms: C_31  and  N_32 
ROOT
HETATM    1  C   UNL     1      39.972  -9.821   7.654  1.00  0.00     0.037 A 
HETATM    2  C   UNL     1      39.399 -10.824   6.870  1.00  0.00     0.029 A 
HETATM    3  C   UNL     1      39.427 -10.740   5.475  1.00  0.00     0.004 A 
HETATM    4  C   UNL     1      40.028  -9.650   4.850  1.00  0.00     0.023 A 
HETATM    5  C   UNL     1      40.603  -8.638   5.622  1.00  0.00     0.046 A 
HETATM    6  C   UNL     1      40.574  -8.725   7.019  1.00  0.00     0.052 A 
HETATM    7  C   UNL     1      41.208  -7.505   4.986  1.00  0.00     0.099 C 
HETATM    8  N   UNL     1      41.687  -6.580   4.473  1.00  0.00    -0.191 NA
ENDROOT
BRANCH   1   9
HETATM    9  N   UNL     1      39.935  -9.807   9.062  1.00  0.00    -0.309 N 
HETATM   10  C   UNL     1      39.287  -8.917   9.887  1.00  0.00     0.323 C 
HETATM   11  O   UNL     1      38.430  -8.117   9.518  1.00  0.00    -0.247 OA
HETATM   12  N   UNL     1      39.699  -8.955  11.207  1.00  0.00    -0.325 N 
HETATM   13  C   UNL     1      39.069  -8.092  12.191  1.00  0.00     0.128 C 
HETATM   14  C   UNL     1      40.707  -9.818  11.830  1.00  0.00     0.122 C 
HETATM   15  C   UNL     1      40.006  -8.111  13.387  1.00  0.00     0.022 C 
HETATM   16  C   UNL     1      40.612  -9.509  13.330  1.00  0.00     0.032 C 
HETATM   17  H   UNL     1      40.426 -10.554   9.519  1.00  0.00     0.170 HD
BRANCH  14  18
HETATM   18  C   UNL     1      42.098  -9.609  11.258  1.00  0.00    -0.034 A 
HETATM   19  C   UNL     1      42.983  -8.645  11.771  1.00  0.00     0.009 A 
HETATM   20  C   UNL     1      44.232  -8.432  11.184  1.00  0.00     0.002 A 
HETATM   21  C   UNL     1      44.614  -9.167  10.062  1.00  0.00     0.017 A 
HETATM   22  C   UNL     1      43.742 -10.124   9.532  1.00  0.00     0.033 A 
HETATM   23  C   UNL     1      42.505 -10.362  10.145  1.00  0.00     0.026 A 
BRANCH  22  24
HETATM   24  C   UNL     1      44.093 -10.912   8.319  1.00  0.00     0.256 C 
HETATM   25  O   UNL     1      45.253 -11.282   8.188  1.00  0.00    -0.267 OA
HETATM   26  N   UNL     1      43.026 -11.195   7.487  1.00  0.00    -0.323 N 
HETATM   27  H   UNL     1      42.102 -10.951   7.821  1.00  0.00     0.169 HD
BRANCH  26  28
HETATM   28  C   UNL     1      43.066 -11.852   6.240  1.00  0.00     0.035 A 
HETATM   29  C   UNL     1      43.372 -11.217   5.037  1.00  0.00     0.030 A 
HETATM   30  C   UNL     1      43.337 -11.925   3.831  1.00  0.00     0.009 A 
HETATM   31  C   UNL     1      43.008 -13.286   3.806  1.00  0.00    -0.056 A 
HETATM   32  C   UNL     1      42.716 -13.926   5.014  1.00  0.00     0.009 A 
HETATM   33  C   UNL     1      42.743 -13.215   6.219  1.00  0.00     0.030 A 
BRANCH  31  34
HETATM   34  C   UNL     1      42.911 -14.035   2.496  1.00  0.00     0.068 C 
BRANCH  34  35
HETATM   35  C   UNL     1      41.939 -13.383   1.494  1.00  0.00     0.277 C 
BRANCH  35  36
HETATM   36  N   UNL     1      40.582 -13.958   1.565  1.00  0.00     0.092 N 
HETATM   37  C   UNL     1      39.618 -13.102   2.294  1.00  0.00     0.298 C 
HETATM   38  C   UNL     1      39.181 -11.843   1.526  1.00  0.00     0.198 C 
HETATM   39  O   UNL     1      38.641 -12.178   0.242  1.00  0.00    -0.388 OA
HETATM   40  C   UNL     1      39.589 -12.928  -0.529  1.00  0.00     0.198 C 
HETATM   41  C   UNL     1      40.030 -14.203   0.211  1.00  0.00     0.298 C 
ENDBRANCH  35  36
ENDBRANCH  34  35
ENDBRANCH  31  34
ENDBRANCH  26  28
ENDBRANCH  22  24
ENDBRANCH  14  18
ENDBRANCH   1   9
TORSDOF 7
ENDMDL
MODEL 8
REMARK VINA RESULT:      -9.3      3.001      5.949
REMARK  7 active torsions:
REMARK  status: ('A' for Active; 'I' for Inactive)
REMARK       I    between atoms: C_2  and  N_3 
REMARK       I    between atoms: C_2  and  N_12 
REMARK    1  A    between atoms: N_3  and  C_4 
REMARK    2  A    between atoms: C_16  and  C_17 
REMARK    3  A    between atoms: C_21  and  C_23 
REMARK       I    between atoms: C_23  and  N_25 
REMARK    4  A    between atoms: N_25  and  C_26 
REMARK    5  A    between atoms: C_29  and  C_30 
REMARK    6  A    between atoms: C_30  and  C_31 
REMARK    7  A    between atoms: C_31  and  N_32 
ROOT
HETATM    1  C   UNL     1      39.482 -11.049   4.059  1.00  0.00     0.037 A 
HETATM    2  C   UNL     1      39.462 -12.002   5.079  1.00  0.00     0.029 A 
HETATM    3  C   UNL     1      39.264 -11.616   6.409  1.00  0.00     0.004 A 
HETATM    4  C   UNL     1      39.085 -10.272   6.730  1.00  0.00     0.023 A 
HETATM    5  C   UNL     1      39.105  -9.309   5.719  1.00  0.00     0.046 A 
HETATM    6  C   UNL     1      39.303  -9.698   4.388  1.00  0.00     0.052 A 
HETATM    7  C   UNL     1      38.939  -7.923   6.044  1.00  0.00     0.099 C 
HETATM    8  N   UNL     1      38.818  -6.799   6.307  1.00  0.00    -0.191 NA
ENDROOT
BRANCH   1   9
HETATM    9  N   UNL     1      39.730 -11.352   2.706  1.00  0.00    -0.309 N 
HETATM   10  C   UNL     1      38.815 -11.557   1.698  1.00  0.00     0.323 C 
HETATM   11  O   UNL     1      37.622 -11.271   1.768  1.00  0.00    -0.247 OA
HETATM   12  N   UNL     1      39.335 -12.159   0.566  1.00  0.00    -0.325 N 
HETATM   13  C   UNL     1      38.484 -12.399  -0.586  1.00  0.00     0.128 C 
HETATM   14  C   UNL     1      40.713 -12.584   0.303  1.00  0.00     0.122 C 
HETATM   15  C   UNL     1      39.252 -13.393  -1.441  1.00  0.00     0.022 C 
HETATM   16  C   UNL     1      40.708 -13.035  -1.164  1.00  0.00     0.032 C 
HETATM   17  H   UNL     1      40.697 -11.404   2.440  1.00  0.00     0.170 HD
BRANCH  14  18
HETATM   18  C   UNL     1      41.194 -13.658   1.262  1.00  0.00    -0.034 A 
HETATM   19  C   UNL     1      40.929 -15.021   1.056  1.00  0.00     0.009 A 
HETATM   20  C   UNL     1      41.330 -15.980   1.989  1.00  0.00     0.002 A 
HETATM   21  C   UNL     1      41.989 -15.592   3.155  1.00  0.00     0.017 A 
HETATM   22  C   UNL     1      42.253 -14.237   3.382  1.00  0.00     0.033 A 
HETATM   23  C   UNL     1      41.883 -13.281   2.427  1.00  0.00     0.026 A 
BRANCH  22  24
HETATM   24  C   UNL     1      42.926 -13.771   4.625  1.00  0.00     0.256 C 
HETATM   25  O   UNL     1      43.268 -14.614   5.445  1.00  0.00    -0.267 OA
HETATM   26  N   UNL     1      43.149 -12.408   4.683  1.00  0.00    -0.323 N 
HETATM   27  H   UNL     1      42.947 -11.870   3.850  1.00  0.00     0.169 HD
BRANCH  26  28
HETATM   28  C   UNL     1      43.692 -11.677   5.760  1.00  0.00     0.035 A 
HETATM   29  C   UNL     1      44.995 -11.839   6.230  1.00  0.00     0.030 A 
HETATM   30  C   UNL     1      45.445 -11.114   7.339  1.00  0.00     0.009 A 
HETATM   31  C   UNL     1      44.604 -10.205   7.992  1.00  0.00    -0.056 A 
HETATM   32  C   UNL     1      43.303 -10.032   7.511  1.00  0.00     0.009 A 
HETATM   33  C   UNL     1      42.851 -10.762   6.406  1.00  0.00     0.030 A 
BRANCH  31  34
HETATM   34  C   UNL     1      45.072  -9.469   9.228  1.00  0.00     0.068 C 
BRANCH  34  35
HETATM   35  C   UNL     1      44.191  -9.735  10.464  1.00  0.00     0.277 C 
BRANCH  35  36
HETATM   36  N   UNL     1      43.435  -8.541  10.889  1.00  0.00     0.092 N 
HETATM   37  C   UNL     1      42.032  -8.532  10.413  1.00  0.00     0.298 C 
HETATM   38  C   UNL     1      41.112  -9.529  11.137  1.00  0.00     0.198 C 
HETATM   39  O   UNL     1      41.132  -9.322  12.554  1.00  0.00    -0.388 OA
HETATM   40  C   UNL     1      42.469  -9.419  13.062  1.00  0.00     0.198 C 
HETATM   41  C   UNL     1      43.408  -8.420  12.366  1.00  0.00     0.298 C 
ENDBRANCH  35  36
ENDBRANCH  34  35
ENDBRANCH  31  34
ENDBRANCH  26  28
ENDBRANCH  22  24
ENDBRANCH  14  18
ENDBRANCH   1   9
TORSDOF 7
ENDMDL
MODEL 9
REMARK VINA RESULT:      -9.3      3.173     10.480
REMARK  7 active torsions:
REMARK  status: ('A' for Active; 'I' for Inactive)
REMARK       I    between atoms: C_2  and  N_3 
REMARK       I    between atoms: C_2  and  N_12 
REMARK    1  A    between atoms: N_3  and  C_4 
REMARK    2  A    between atoms: C_16  and  C_17 
REMARK    3  A    between atoms: C_21  and  C_23 
REMARK       I    between atoms: C_23  and  N_25 
REMARK    4  A    between atoms: N_25  and  C_26 
REMARK    5  A    between atoms: C_29  and  C_30 
REMARK    6  A    between atoms: C_30  and  C_31 
REMARK    7  A    between atoms: C_31  and  N_32 
ROOT
HETATM    1  C   UNL     1      40.259  -9.648   7.666  1.00  0.00     0.037 A 
HETATM    2  C   UNL     1      39.242 -10.518   7.266  1.00  0.00     0.029 A 
HETATM    3  C   UNL     1      38.757 -10.489   5.955  1.00  0.00     0.004 A 
HETATM    4  C   UNL     1      39.282  -9.588   5.032  1.00  0.00     0.023 A 
HETATM    5  C   UNL     1      40.297  -8.711   5.419  1.00  0.00     0.046 A 
HETATM    6  C   UNL     1      40.782  -8.742   6.733  1.00  0.00     0.052 A 
HETATM    7  C   UNL     1      40.831  -7.769   4.479  1.00  0.00     0.099 C 
HETATM    8  N   UNL     1      41.255  -6.997   3.724  1.00  0.00    -0.191 NA
ENDROOT
BRANCH   1   9
HETATM    9  N   UNL     1      40.762  -9.579   8.979  1.00  0.00    -0.309 N 
HETATM   10  C   UNL     1      40.716  -8.517   9.853  1.00  0.00     0.323 C 
HETATM   11  O   UNL     1      40.010  -7.521   9.708  1.00  0.00    -0.247 OA
HETATM   12  N   UNL     1      41.573  -8.627  10.934  1.00  0.00    -0.325 N 
HETATM   13  C   UNL     1      41.597  -7.590  11.951  1.00  0.00     0.128 C 
HETATM   14  C   UNL     1      42.494  -9.717  11.269  1.00  0.00     0.122 C 
HETATM   15  C   UNL     1      42.880  -7.833  12.728  1.00  0.00     0.022 C 
HETATM   16  C   UNL     1      43.052  -9.346  12.649  1.00  0.00     0.032 C 
HETATM   17  H   UNL     1      41.187 -10.419   9.329  1.00  0.00     0.170 HD
BRANCH  14  18
HETATM   18  C   UNL     1      43.570  -9.925  10.218  1.00  0.00    -0.034 A 
HETATM   19  C   UNL     1      44.806  -9.259  10.269  1.00  0.00     0.009 A 
HETATM   20  C   UNL     1      45.752  -9.422   9.255  1.00  0.00     0.002 A 
HETATM   21  C   UNL     1      45.473 -10.241   8.161  1.00  0.00     0.017 A 
HETATM   22  C   UNL     1      44.244 -10.904   8.088  1.00  0.00     0.033 A 
HETATM   23  C   UNL     1      43.312 -10.769   9.126  1.00  0.00     0.026 A 
BRANCH  22  24
HETATM   24  C   UNL     1      43.889 -11.766   6.928  1.00  0.00     0.256 C 
HETATM   25  O   UNL     1      44.795 -12.356   6.352  1.00  0.00    -0.267 OA
HETATM   26  N   UNL     1      42.535 -11.849   6.665  1.00  0.00    -0.323 N 
HETATM   27  H   UNL     1      41.906 -11.424   7.335  1.00  0.00     0.169 HD
BRANCH  26  28
HETATM   28  C   UNL     1      41.913 -12.521   5.592  1.00  0.00     0.035 A 
HETATM   29  C   UNL     1      41.230 -13.730   5.724  1.00  0.00     0.030 A 
HETATM   30  C   UNL     1      40.685 -14.364   4.602  1.00  0.00     0.009 A 
HETATM   31  C   UNL     1      40.804 -13.796   3.328  1.00  0.00    -0.056 A 
HETATM   32  C   UNL     1      41.476 -12.577   3.198  1.00  0.00     0.009 A 
HETATM   33  C   UNL     1      42.027 -11.947   4.320  1.00  0.00     0.030 A 
BRANCH  31  34
HETATM   34  C   UNL     1      40.269 -14.513   2.108  1.00  0.00     0.068 C 
BRANCH  34  35
HETATM   35  C   UNL     1      40.757 -13.902   0.781  1.00  0.00     0.277 C 
BRANCH  35  36
HETATM   36  N   UNL     1      39.685 -13.194   0.054  1.00  0.00     0.092 N 
HETATM   37  C   UNL     1      40.075 -11.837  -0.394  1.00  0.00     0.298 C 
HETATM   38  C   UNL     1      41.060 -11.819  -1.574  1.00  0.00     0.198 C 
HETATM   39  O   UNL     1      40.551 -12.558  -2.690  1.00  0.00    -0.388 OA
HETATM   40  C   UNL     1      40.252 -13.908  -2.311  1.00  0.00     0.198 C 
HETATM   41  C   UNL     1      39.254 -13.956  -1.142  1.00  0.00     0.298 C 
ENDBRANCH  35  36
ENDBRANCH  34  35
ENDBRANCH  31  34
ENDBRANCH  26  28
ENDBRANCH  22  24
ENDBRANCH  14  18
ENDBRANCH   1   9
TORSDOF 7
ENDMDL
MODEL 10
REMARK VINA RESULT:      -9.2      2.413      5.514
REMARK  7 active torsions:
REMARK  status: ('A' for Active; 'I' for Inactive)
REMARK       I    between atoms: C_2  and  N_3 
REMARK       I    between atoms: C_2  and  N_12 
REMARK    1  A    between atoms: N_3  and  C_4 
REMARK    2  A    between atoms: C_16  and  C_17 
REMARK    3  A    between atoms: C_21  and  C_23 
REMARK       I    between atoms: C_23  and  N_25 
REMARK    4  A    between atoms: N_25  and  C_26 
REMARK    5  A    between atoms: C_29  and  C_30 
REMARK    6  A    between atoms: C_30  and  C_31 
REMARK    7  A    between atoms: C_31  and  N_32 
ROOT
HETATM    1  C   UNL     1      40.575 -10.516   4.414  1.00  0.00     0.037 A 
HETATM    2  C   UNL     1      39.305 -10.704   4.962  1.00  0.00     0.029 A 
HETATM    3  C   UNL     1      38.726  -9.721   5.771  1.00  0.00     0.004 A 
HETATM    4  C   UNL     1      39.414  -8.540   6.040  1.00  0.00     0.023 A 
HETATM    5  C   UNL     1      40.687  -8.340   5.500  1.00  0.00     0.046 A 
HETATM    6  C   UNL     1      41.263  -9.326   4.690  1.00  0.00     0.052 A 
HETATM    7  C   UNL     1      41.407  -7.134   5.787  1.00  0.00     0.099 C 
HETATM    8  N   UNL     1      41.998  -6.165   6.029  1.00  0.00    -0.191 NA
ENDROOT
BRANCH   1   9
HETATM    9  N   UNL     1      41.246 -11.480   3.637  1.00  0.00    -0.309 N 
HETATM   10  C   UNL     1      40.705 -12.390   2.757  1.00  0.00     0.323 C 
HETATM   11  O   UNL     1      39.555 -12.348   2.327  1.00  0.00    -0.247 OA
HETATM   12  N   UNL     1      41.560 -13.416   2.398  1.00  0.00    -0.325 N 
HETATM   13  C   UNL     1      41.125 -14.425   1.446  1.00  0.00     0.128 C 
HETATM   14  C   UNL     1      42.947 -13.644   2.813  1.00  0.00     0.122 C 
HETATM   15  C   UNL     1      42.124 -15.560   1.595  1.00  0.00     0.022 C 
HETATM   16  C   UNL     1      43.414 -14.840   1.971  1.00  0.00     0.032 C 
HETATM   17  H   UNL     1      42.247 -11.489   3.719  1.00  0.00     0.170 HD
BRANCH  14  18
HETATM   18  C   UNL     1      43.087 -13.868   4.308  1.00  0.00    -0.034 A 
HETATM   19  C   UNL     1      42.822 -15.109   4.909  1.00  0.00     0.009 A 
HETATM   20  C   UNL     1      42.899 -15.268   6.294  1.00  0.00     0.002 A 
HETATM   21  C   UNL     1      43.224 -14.183   7.107  1.00  0.00     0.017 A 
HETATM   22  C   UNL     1      43.481 -12.936   6.527  1.00  0.00     0.033 A 
HETATM   23  C   UNL     1      43.441 -12.789   5.134  1.00  0.00     0.026 A 
BRANCH  22  24
HETATM   24  C   UNL     1      43.804 -11.741   7.355  1.00  0.00     0.256 C 
HETATM   25  O   UNL     1      44.921 -11.672   7.853  1.00  0.00    -0.267 OA
HETATM   26  N   UNL     1      42.799 -10.795   7.416  1.00  0.00    -0.323 N 
HETATM   27  H   UNL     1      41.995 -10.933   6.816  1.00  0.00     0.169 HD
BRANCH  26  28
HETATM   28  C   UNL     1      42.789  -9.608   8.178  1.00  0.00     0.035 A 
HETATM   29  C   UNL     1      43.849  -8.703   8.221  1.00  0.00     0.030 A 
HETATM   30  C   UNL     1      43.786  -7.574   9.044  1.00  0.00     0.009 A 
HETATM   31  C   UNL     1      42.657  -7.322   9.833  1.00  0.00    -0.056 A 
HETATM   32  C   UNL     1      41.589  -8.222   9.779  1.00  0.00     0.009 A 
HETATM   33  C   UNL     1      41.656  -9.355   8.961  1.00  0.00     0.030 A 
BRANCH  31  34
HETATM   34  C   UNL     1      42.616  -6.135  10.769  1.00  0.00     0.068 C 
BRANCH  34  35
HETATM   35  C   UNL     1      41.678  -6.342  11.973  1.00  0.00     0.277 C 
BRANCH  35  36
HETATM   36  N   UNL     1      42.409  -6.429  13.253  1.00  0.00     0.092 N 
HETATM   37  C   UNL     1      41.525  -6.379  14.440  1.00  0.00     0.298 C 
HETATM   38  C   UNL     1      40.708  -7.661  14.674  1.00  0.00     0.198 C 
HETATM   39  O   UNL     1      41.557  -8.811  14.763  1.00  0.00    -0.388 OA
HETATM   40  C   UNL     1      42.361  -8.942  13.584  1.00  0.00     0.198 C 
HETATM   41  C   UNL     1      43.202  -7.678  13.335  1.00  0.00     0.298 C 
ENDBRANCH  35  36
ENDBRANCH  34  35
ENDBRANCH  31  34
ENDBRANCH  26  28
ENDBRANCH  22  24
ENDBRANCH  14  18
ENDBRANCH   1   9
TORSDOF 7
ENDMDL
