MODEL 1
REMARK VINA RESULT:      -9.9      0.000      0.000
REMARK  5 active torsions:
REMARK  status: ('A' for Active; 'I' for Inactive)
REMARK    1  A    between atoms: C_4  and  C_5 
REMARK       I    between atoms: C_5  and  N_6 
REMARK    2  A    between atoms: C_9  and  C_10 
REMARK    3  A    between atoms: C_10  and  C_11 
REMARK    4  A    between atoms: N_20  and  C_21 
REMARK    5  A    between atoms: C_21  and  C_22 
ROOT
HETATM    1  C   UNL     1      40.736 -13.829   1.061  1.00  0.00     0.148 A 
HETATM    2  N   UNL     1      42.196 -13.828   1.055  1.00  0.00    -0.320 N 
HETATM    3  C   UNL     1      42.745 -15.028   1.431  1.00  0.00     0.326 A 
HETATM    4  O   UNL     1      43.940 -15.261   1.411  1.00  0.00    -0.247 OA
HETATM    5  N   UNL     1      41.749 -15.845   1.847  1.00  0.00    -0.263 N 
HETATM    6  C   UNL     1      40.540 -15.231   1.705  1.00  0.00     0.262 A 
HETATM    7  O   UNL     1      39.469 -15.720   2.039  1.00  0.00    -0.270 OA
HETATM    8  H   UNL     1      42.782 -13.149   0.586  1.00  0.00     0.166 HD
ENDROOT
BRANCH   1   9
HETATM    9  C   UNL     1      40.214 -12.631   1.929  1.00  0.00     0.031 C 
HETATM   10  C   UNL     1      39.457 -12.994   3.222  1.00  0.00     0.028 C 
HETATM   11  C   UNL     1      40.331 -13.254   4.443  1.00  0.00     0.126 C 
HETATM   12  N   UNL     1      41.390 -12.259   4.646  1.00  0.00    -0.350 N 
HETATM   13  C   UNL     1      41.949 -12.231   5.924  1.00  0.00     0.251 C 
HETATM   14  C   UNL     1      42.133 -11.843   3.458  1.00  0.00     0.126 C 
HETATM   15  O   UNL     1      41.512 -12.910   6.861  1.00  0.00    -0.271 OA
HETATM   16  C   UNL     1      41.246 -11.536   2.259  1.00  0.00     0.028 C 
BRANCH  13  17
HETATM   17  C   UNL     1      43.139 -11.283   6.225  1.00  0.00     0.279 C 
HETATM   18  N   UNL     1      42.877 -10.500   7.540  1.00  0.00    -0.062 N 
HETATM   19  C   UNL     1      41.658  -9.611   7.446  1.00  0.00     0.270 C 
HETATM   20  H   UNL     1      42.623 -11.230   8.227  1.00  0.00     0.280 HD
HETATM   21  C   UNL     1      44.058  -9.719   8.043  1.00  0.00     0.235 C 
HETATM   22  C   UNL     1      45.268 -10.619   8.196  1.00  0.00     0.028 C 
HETATM   23  C   UNL     1      45.598 -11.316   6.888  1.00  0.00     0.004 C 
HETATM   24  C   UNL     1      44.408 -12.127   6.399  1.00  0.00     0.043 C 
ENDBRANCH  13  17
ENDBRANCH   1   9
BRANCH   1  25
HETATM   25  C   UNL     1      40.245 -13.747  -0.383  1.00  0.00    -0.003 A 
HETATM   26  C   UNL     1      40.527 -12.669  -1.221  1.00  0.00     0.126 A 
HETATM   27  N   UNL     1      40.128 -12.578  -2.511  1.00  0.00    -0.272 NA
HETATM   28  C   UNL     1      39.400 -13.599  -3.008  1.00  0.00     0.116 A 
HETATM   29  C   UNL     1      39.065 -14.720  -2.274  1.00  0.00     0.020 A 
HETATM   30  C   UNL     1      39.498 -14.795  -0.953  1.00  0.00     0.013 A 
ENDBRANCH   1  25
BRANCH   5  31
HETATM   31  C   UNL     1      41.941 -17.195   2.326  1.00  0.00     0.175 C 
BRANCH  31  32
HETATM   32  C   UNL     1      42.455 -17.217   3.746  1.00  0.00    -0.040 A 
HETATM   33  C   UNL     1      41.763 -16.539   4.761  1.00  0.00     0.012 A 
HETATM   34  C   UNL     1      42.246 -16.547   6.070  1.00  0.00     0.043 A 
HETATM   35  C   UNL     1      43.425 -17.220   6.363  1.00  0.00     0.116 A 
HETATM   36  F   UNL     1      43.887 -17.228   7.620  1.00  0.00    -0.206 F 
HETATM   37  C   UNL     1      44.134 -17.885   5.370  1.00  0.00     0.043 A 
HETATM   38  C   UNL     1      43.652 -17.882   4.060  1.00  0.00     0.012 A 
ENDBRANCH  31  32
ENDBRANCH   5  31
TORSDOF 5
ENDMDL
MODEL 2
REMARK VINA RESULT:      -9.7      1.796      2.226
REMARK  5 active torsions:
REMARK  status: ('A' for Active; 'I' for Inactive)
REMARK    1  A    between atoms: C_4  and  C_5 
REMARK       I    between atoms: C_5  and  N_6 
REMARK    2  A    between atoms: C_9  and  C_10 
REMARK    3  A    between atoms: C_10  and  C_11 
REMARK    4  A    between atoms: N_20  and  C_21 
REMARK    5  A    between atoms: C_21  and  C_22 
ROOT
HETATM    1  C   UNL     1      40.652 -12.980   2.558  1.00  0.00     0.148 A 
HETATM    2  N   UNL     1      42.106 -12.941   2.431  1.00  0.00    -0.320 N 
HETATM    3  C   UNL     1      42.651 -14.133   2.023  1.00  0.00     0.326 A 
HETATM    4  O   UNL     1      43.834 -14.287   1.776  1.00  0.00    -0.247 OA
HETATM    5  N   UNL     1      41.671 -15.065   1.991  1.00  0.00    -0.263 N 
HETATM    6  C   UNL     1      40.472 -14.506   2.319  1.00  0.00     0.262 A 
HETATM    7  O   UNL     1      39.418 -15.123   2.410  1.00  0.00    -0.270 OA
HETATM    8  H   UNL     1      42.671 -12.103   2.376  1.00  0.00     0.166 HD
ENDROOT
BRANCH   1   9
HETATM    9  C   UNL     1      40.237 -12.486   3.988  1.00  0.00     0.031 C 
HETATM   10  C   UNL     1      40.489 -13.462   5.154  1.00  0.00     0.028 C 
HETATM   11  C   UNL     1      41.890 -13.423   5.752  1.00  0.00     0.126 C 
HETATM   12  N   UNL     1      42.398 -12.070   6.003  1.00  0.00    -0.350 N 
HETATM   13  C   UNL     1      43.478 -11.989   6.882  1.00  0.00     0.251 C 
HETATM   14  C   UNL     1      42.170 -11.081   4.951  1.00  0.00     0.126 C 
HETATM   15  O   UNL     1      43.910 -12.967   7.505  1.00  0.00    -0.271 OA
HETATM   16  C   UNL     1      40.753 -11.093   4.397  1.00  0.00     0.028 C 
BRANCH  13  17
HETATM   17  C   UNL     1      44.155 -10.619   7.149  1.00  0.00     0.279 C 
HETATM   18  N   UNL     1      43.547  -9.962   8.416  1.00  0.00    -0.062 N 
HETATM   19  C   UNL     1      42.073  -9.667   8.260  1.00  0.00     0.270 C 
HETATM   20  H   UNL     1      43.597 -10.701   9.138  1.00  0.00     0.280 HD
HETATM   21  C   UNL     1      44.279  -8.739   8.893  1.00  0.00     0.235 C 
HETATM   22  C   UNL     1      45.748  -9.044   9.109  1.00  0.00     0.028 C 
HETATM   23  C   UNL     1      46.382  -9.596   7.843  1.00  0.00     0.004 C 
HETATM   24  C   UNL     1      45.654 -10.849   7.383  1.00  0.00     0.043 C 
ENDBRANCH  13  17
ENDBRANCH   1   9
BRANCH   1  25
HETATM   25  C   UNL     1      40.046 -12.115   1.455  1.00  0.00    -0.003 A 
HETATM   26  C   UNL     1      40.799 -11.576   0.411  1.00  0.00     0.126 A 
HETATM   27  N   UNL     1      40.288 -10.827  -0.593  1.00  0.00    -0.272 NA
HETATM   28  C   UNL     1      38.963 -10.581  -0.570  1.00  0.00     0.116 A 
HETATM   29  C   UNL     1      38.117 -11.066   0.408  1.00  0.00     0.020 A 
HETATM   30  C   UNL     1      38.666 -11.844   1.424  1.00  0.00     0.013 A 
ENDBRANCH   1  25
BRANCH   5  31
HETATM   31  C   UNL     1      41.864 -16.447   1.615  1.00  0.00     0.175 C 
BRANCH  31  32
HETATM   32  C   UNL     1      42.564 -17.231   2.699  1.00  0.00    -0.040 A 
HETATM   33  C   UNL     1      43.231 -18.426   2.390  1.00  0.00     0.012 A 
HETATM   34  C   UNL     1      43.866 -19.158   3.395  1.00  0.00     0.043 A 
HETATM   35  C   UNL     1      43.826 -18.703   4.706  1.00  0.00     0.116 A 
HETATM   36  F   UNL     1      44.436 -19.406   5.669  1.00  0.00    -0.206 F 
HETATM   37  C   UNL     1      43.158 -17.531   5.036  1.00  0.00     0.043 A 
HETATM   38  C   UNL     1      42.525 -16.794   4.033  1.00  0.00     0.012 A 
ENDBRANCH  31  32
ENDBRANCH   5  31
TORSDOF 5
ENDMDL
MODEL 3
REMARK VINA RESULT:      -9.6      2.743      7.662
REMARK  5 active torsions:
REMARK  status: ('A' for Active; 'I' for Inactive)
REMARK    1  A    between atoms: C_4  and  C_5 
REMARK       I    between atoms: C_5  and  N_6 
REMARK    2  A    between atoms: C_9  and  C_10 
REMARK    3  A    between atoms: C_10  and  C_11 
REMARK    4  A    between atoms: N_20  and  C_21 
REMARK    5  A    between atoms: C_21  and  C_22 
ROOT
HETATM    1  C   UNL     1      42.481 -12.725   3.995  1.00  0.00     0.148 A 
HETATM    2  N   UNL     1      43.660 -11.976   3.570  1.00  0.00    -0.320 N 
HETATM    3  C   UNL     1      44.553 -11.740   4.585  1.00  0.00     0.326 A 
HETATM    4  O   UNL     1      45.636 -11.208   4.423  1.00  0.00    -0.247 OA
HETATM    5  N   UNL     1      44.001 -12.158   5.748  1.00  0.00    -0.263 N 
HETATM    6  C   UNL     1      42.779 -12.717   5.521  1.00  0.00     0.262 A 
HETATM    7  O   UNL     1      42.036 -13.143   6.396  1.00  0.00    -0.270 OA
HETATM    8  H   UNL     1      43.966 -11.853   2.614  1.00  0.00     0.166 HD
ENDROOT
BRANCH   1   9
HETATM    9  C   UNL     1      41.186 -11.945   3.576  1.00  0.00     0.031 C 
HETATM   10  C   UNL     1      41.374 -10.775   2.591  1.00  0.00     0.028 C 
HETATM   11  C   UNL     1      41.398 -11.155   1.115  1.00  0.00     0.126 C 
HETATM   12  N   UNL     1      40.336 -12.087   0.719  1.00  0.00    -0.350 N 
HETATM   13  C   UNL     1      40.081 -12.157  -0.651  1.00  0.00     0.251 C 
HETATM   14  C   UNL     1      40.079 -13.208   1.621  1.00  0.00     0.126 C 
HETATM   15  O   UNL     1      40.622 -11.407  -1.472  1.00  0.00    -0.271 OA
HETATM   16  C   UNL     1      40.006 -12.808   3.088  1.00  0.00     0.028 C 
BRANCH  13  17
HETATM   17  C   UNL     1      39.044 -13.176  -1.192  1.00  0.00     0.279 C 
HETATM   18  N   UNL     1      38.071 -12.474  -2.177  1.00  0.00    -0.062 N 
HETATM   19  C   UNL     1      37.266 -11.383  -1.512  1.00  0.00     0.270 C 
HETATM   20  H   UNL     1      38.692 -11.981  -2.842  1.00  0.00     0.280 HD
HETATM   21  C   UNL     1      37.166 -13.409  -2.928  1.00  0.00     0.235 C 
HETATM   22  C   UNL     1      37.974 -14.472  -3.648  1.00  0.00     0.028 C 
HETATM   23  C   UNL     1      38.857 -15.236  -2.677  1.00  0.00     0.004 C 
HETATM   24  C   UNL     1      39.790 -14.287  -1.942  1.00  0.00     0.043 C 
ENDBRANCH  13  17
ENDBRANCH   1   9
BRANCH   1  25
HETATM   25  C   UNL     1      42.539 -14.117   3.370  1.00  0.00    -0.003 A 
HETATM   26  C   UNL     1      41.886 -15.223   3.915  1.00  0.00     0.126 A 
HETATM   27  N   UNL     1      41.898 -16.462   3.371  1.00  0.00    -0.272 NA
HETATM   28  C   UNL     1      42.600 -16.633   2.234  1.00  0.00     0.116 A 
HETATM   29  C   UNL     1      43.281 -15.612   1.601  1.00  0.00     0.020 A 
HETATM   30  C   UNL     1      43.244 -14.343   2.173  1.00  0.00     0.013 A 
ENDBRANCH   1  25
BRANCH   5  31
HETATM   31  C   UNL     1      44.642 -12.066   7.041  1.00  0.00     0.175 C 
BRANCH  31  32
HETATM   32  C   UNL     1      44.546 -10.674   7.616  1.00  0.00    -0.040 A 
HETATM   33  C   UNL     1      43.299 -10.043   7.739  1.00  0.00     0.012 A 
HETATM   34  C   UNL     1      43.212  -8.750   8.258  1.00  0.00     0.043 A 
HETATM   35  C   UNL     1      44.368  -8.084   8.641  1.00  0.00     0.116 A 
HETATM   36  F   UNL     1      44.283  -6.844   9.139  1.00  0.00    -0.206 F 
HETATM   37  C   UNL     1      45.615  -8.684   8.513  1.00  0.00     0.043 A 
HETATM   38  C   UNL     1      45.706  -9.979   7.999  1.00  0.00     0.012 A 
ENDBRANCH  31  32
ENDBRANCH   5  31
TORSDOF 5
ENDMDL
MODEL 4
REMARK VINA RESULT:      -9.4      2.193      6.825
REMARK  5 active torsions:
REMARK  status: ('A' for Active; 'I' for Inactive)
REMARK    1  A    between atoms: C_4  and  C_5 
REMARK       I    between atoms: C_5  and  N_6 
REMARK    2  A    between atoms: C_9  and  C_10 
REMARK    3  A    between atoms: C_10  and  C_11 
REMARK    4  A    between atoms: N_20  and  C_21 
REMARK    5  A    between atoms: C_21  and  C_22 
ROOT
HETATM    1  C   UNL     1      42.236 -13.480   4.845  1.00  0.00     0.148 A 
HETATM    2  N   UNL     1      41.151 -14.415   4.561  1.00  0.00    -0.320 N 
HETATM    3  C   UNL     1      41.229 -15.578   5.285  1.00  0.00     0.326 A 
HETATM    4  O   UNL     1      40.378 -16.450   5.258  1.00  0.00    -0.247 OA
HETATM    5  N   UNL     1      42.397 -15.582   5.968  1.00  0.00    -0.263 N 
HETATM    6  C   UNL     1      43.076 -14.419   5.754  1.00  0.00     0.262 A 
HETATM    7  O   UNL     1      44.183 -14.166   6.215  1.00  0.00    -0.270 OA
HETATM    8  H   UNL     1      40.279 -14.184   4.102  1.00  0.00     0.166 HD
ENDROOT
BRANCH   1   9
HETATM    9  C   UNL     1      42.936 -13.066   3.504  1.00  0.00     0.031 C 
HETATM   10  C   UNL     1      43.100 -14.171   2.442  1.00  0.00     0.028 C 
HETATM   11  C   UNL     1      41.898 -14.388   1.530  1.00  0.00     0.126 C 
HETATM   12  N   UNL     1      41.316 -13.151   0.999  1.00  0.00    -0.350 N 
HETATM   13  C   UNL     1      40.490 -13.306  -0.114  1.00  0.00     0.251 C 
HETATM   14  C   UNL     1      41.157 -12.046   1.943  1.00  0.00     0.126 C 
HETATM   15  O   UNL     1      40.344 -14.389  -0.694  1.00  0.00    -0.271 OA
HETATM   16  C   UNL     1      42.382 -11.805   2.814  1.00  0.00     0.028 C 
BRANCH  13  17
HETATM   17  C   UNL     1      39.747 -12.078  -0.702  1.00  0.00     0.279 C 
HETATM   18  N   UNL     1      39.874 -12.069  -2.249  1.00  0.00    -0.062 N 
HETATM   19  C   UNL     1      41.307 -11.939  -2.708  1.00  0.00     0.270 C 
HETATM   20  H   UNL     1      39.585 -13.020  -2.535  1.00  0.00     0.280 HD
HETATM   21  C   UNL     1      39.009 -11.049  -2.936  1.00  0.00     0.235 C 
HETATM   22  C   UNL     1      37.559 -11.213  -2.525  1.00  0.00     0.028 C 
HETATM   23  C   UNL     1      37.407 -11.123  -1.016  1.00  0.00     0.004 C 
HETATM   24  C   UNL     1      38.262 -12.175  -0.328  1.00  0.00     0.043 C 
ENDBRANCH  13  17
ENDBRANCH   1   9
BRANCH   1  25
HETATM   25  C   UNL     1      41.656 -12.275   5.584  1.00  0.00    -0.003 A 
HETATM   26  C   UNL     1      42.449 -11.295   6.181  1.00  0.00     0.126 A 
HETATM   27  N   UNL     1      41.966 -10.205   6.820  1.00  0.00    -0.272 NA
HETATM   28  C   UNL     1      40.627 -10.070   6.889  1.00  0.00     0.116 A 
HETATM   29  C   UNL     1      39.743 -10.972   6.330  1.00  0.00     0.020 A 
HETATM   30  C   UNL     1      40.265 -12.080   5.668  1.00  0.00     0.013 A 
ENDBRANCH   1  25
BRANCH   5  31
HETATM   31  C   UNL     1      42.836 -16.649   6.838  1.00  0.00     0.175 C 
BRANCH  31  32
HETATM   32  C   UNL     1      43.292 -17.858   6.056  1.00  0.00    -0.040 A 
HETATM   33  C   UNL     1      43.217 -19.139   6.625  1.00  0.00     0.012 A 
HETATM   34  C   UNL     1      43.652 -20.255   5.908  1.00  0.00     0.043 A 
HETATM   35  C   UNL     1      44.171 -20.090   4.630  1.00  0.00     0.116 A 
HETATM   36  F   UNL     1      44.587 -21.162   3.943  1.00  0.00    -0.206 F 
HETATM   37  C   UNL     1      44.268 -18.830   4.054  1.00  0.00     0.043 A 
HETATM   38  C   UNL     1      43.830 -17.712   4.767  1.00  0.00     0.012 A 
ENDBRANCH  31  32
ENDBRANCH   5  31
TORSDOF 5
ENDMDL
MODEL 5
REMARK VINA RESULT:      -9.3      3.206      5.693
REMARK  5 active torsions:
REMARK  status: ('A' for Active; 'I' for Inactive)
REMARK    1  A    between atoms: C_4  and  C_5 
REMARK       I    between atoms: C_5  and  N_6 
REMARK    2  A    between atoms: C_9  and  C_10 
REMARK    3  A    between atoms: C_10  and  C_11 
REMARK    4  A    between atoms: N_20  and  C_21 
REMARK    5  A    between atoms: C_21  and  C_22 
ROOT
HETATM    1  C   UNL     1      41.369 -12.203   5.287  1.00  0.00     0.148 A 
HETATM    2  N   UNL     1      40.800 -12.979   6.385  1.00  0.00    -0.320 N 
HETATM    3  C   UNL     1      40.445 -14.255   6.025  1.00  0.00     0.326 A 
HETATM    4  O   UNL     1      40.032 -15.089   6.811  1.00  0.00    -0.247 OA
HETATM    5  N   UNL     1      40.598 -14.382   4.687  1.00  0.00    -0.263 N 
HETATM    6  C   UNL     1      41.100 -13.232   4.154  1.00  0.00     0.262 A 
HETATM    7  O   UNL     1      41.301 -13.049   2.960  1.00  0.00    -0.270 OA
HETATM    8  H   UNL     1      40.878 -12.754   7.368  1.00  0.00     0.166 HD
ENDROOT
BRANCH   1   9
HETATM    9  C   UNL     1      40.589 -10.849   5.143  1.00  0.00     0.031 C 
HETATM   10  C   UNL     1      39.153 -10.818   5.702  1.00  0.00     0.028 C 
HETATM   11  C   UNL     1      39.035 -10.511   7.191  1.00  0.00     0.126 C 
HETATM   12  N   UNL     1      39.861  -9.384   7.638  1.00  0.00    -0.350 N 
HETATM   13  C   UNL     1      39.503  -8.831   8.868  1.00  0.00     0.251 C 
HETATM   14  C   UNL     1      41.228  -9.331   7.124  1.00  0.00     0.126 C 
HETATM   15  O   UNL     1      38.493  -9.179   9.491  1.00  0.00    -0.271 OA
HETATM   16  C   UNL     1      41.329  -9.588   5.627  1.00  0.00     0.028 C 
BRANCH  13  17
HETATM   17  C   UNL     1      40.364  -7.696   9.483  1.00  0.00     0.279 C 
HETATM   18  N   UNL     1      39.471  -6.469   9.812  1.00  0.00    -0.062 N 
HETATM   19  C   UNL     1      38.831  -5.876   8.578  1.00  0.00     0.270 C 
HETATM   20  H   UNL     1      38.686  -6.863  10.358  1.00  0.00     0.280 HD
HETATM   21  C   UNL     1      40.158  -5.398  10.612  1.00  0.00     0.235 C 
HETATM   22  C   UNL     1      40.751  -5.977  11.882  1.00  0.00     0.028 C 
HETATM   23  C   UNL     1      41.707  -7.115  11.568  1.00  0.00     0.004 C 
HETATM   24  C   UNL     1      40.997  -8.207  10.783  1.00  0.00     0.043 C 
ENDBRANCH  13  17
ENDBRANCH   1   9
BRANCH   1  25
HETATM   25  C   UNL     1      42.853 -11.981   5.569  1.00  0.00    -0.003 A 
HETATM   26  C   UNL     1      43.746 -11.503   4.610  1.00  0.00     0.126 A 
HETATM   27  N   UNL     1      45.060 -11.273   4.836  1.00  0.00    -0.272 NA
HETATM   28  C   UNL     1      45.532 -11.535   6.071  1.00  0.00     0.116 A 
HETATM   29  C   UNL     1      44.742 -12.004   7.102  1.00  0.00     0.020 A 
HETATM   30  C   UNL     1      43.390 -12.222   6.847  1.00  0.00     0.013 A 
ENDBRANCH   1  25
BRANCH   5  31
HETATM   31  C   UNL     1      40.316 -15.587   3.939  1.00  0.00     0.175 C 
BRANCH  31  32
HETATM   32  C   UNL     1      41.553 -16.432   3.751  1.00  0.00    -0.040 A 
HETATM   33  C   UNL     1      41.890 -16.921   2.480  1.00  0.00     0.012 A 
HETATM   34  C   UNL     1      43.026 -17.715   2.309  1.00  0.00     0.043 A 
HETATM   35  C   UNL     1      43.815 -18.030   3.407  1.00  0.00     0.116 A 
HETATM   36  F   UNL     1      44.904 -18.791   3.241  1.00  0.00    -0.206 F 
HETATM   37  C   UNL     1      43.490 -17.570   4.677  1.00  0.00     0.043 A 
HETATM   38  C   UNL     1      42.358 -16.772   4.851  1.00  0.00     0.012 A 
ENDBRANCH  31  32
ENDBRANCH   5  31
TORSDOF 5
ENDMDL
MODEL 6
REMARK VINA RESULT:      -9.2      2.233      7.271
REMARK  5 active torsions:
REMARK  status: ('A' for Active; 'I' for Inactive)
REMARK    1  A    between atoms: C_4  and  C_5 
REMARK       I    between atoms: C_5  and  N_6 
REMARK    2  A    between atoms: C_9  and  C_10 
REMARK    3  A    between atoms: C_10  and  C_11 
REMARK    4  A    between atoms: N_20  and  C_21 
REMARK    5  A    between atoms: C_21  and  C_22 
ROOT
HETATM    1  C   UNL     1      42.496 -11.704   5.860  1.00  0.00     0.148 A 
HETATM    2  N   UNL     1      41.048 -11.862   5.767  1.00  0.00    -0.320 N 
HETATM    3  C   UNL     1      40.621 -13.141   6.022  1.00  0.00     0.326 A 
HETATM    4  O   UNL     1      39.448 -13.465   6.078  1.00  0.00    -0.247 OA
HETATM    5  N   UNL     1      41.707 -13.939   6.151  1.00  0.00    -0.263 N 
HETATM    6  C   UNL     1      42.851 -13.206   6.040  1.00  0.00     0.262 A 
HETATM    7  O   UNL     1      43.982 -13.674   6.076  1.00  0.00    -0.270 OA
HETATM    8  H   UNL     1      40.370 -11.111   5.781  1.00  0.00     0.166 HD
ENDROOT
BRANCH   1   9
HETATM    9  C   UNL     1      43.039 -11.055   4.539  1.00  0.00     0.031 C 
HETATM   10  C   UNL     1      43.653 -12.015   3.502  1.00  0.00     0.028 C 
HETATM   11  C   UNL     1      42.662 -12.674   2.549  1.00  0.00     0.126 C 
HETATM   12  N   UNL     1      41.674 -11.752   1.979  1.00  0.00    -0.350 N 
HETATM   13  C   UNL     1      41.014 -12.211   0.839  1.00  0.00     0.251 C 
HETATM   14  C   UNL     1      41.069 -10.790   2.899  1.00  0.00     0.126 C 
HETATM   15  O   UNL     1      41.315 -13.268   0.271  1.00  0.00    -0.271 OA
HETATM   16  C   UNL     1      42.074 -10.100   3.810  1.00  0.00     0.028 C 
BRANCH  13  17
HETATM   17  C   UNL     1      39.883 -11.359   0.205  1.00  0.00     0.279 C 
HETATM   18  N   UNL     1      40.382 -10.707  -1.112  1.00  0.00    -0.062 N 
HETATM   19  C   UNL     1      41.534  -9.756  -0.883  1.00  0.00     0.270 C 
HETATM   20  H   UNL     1      40.787 -11.492  -1.650  1.00  0.00     0.280 HD
HETATM   21  C   UNL     1      39.305 -10.041  -1.922  1.00  0.00     0.235 C 
HETATM   22  C   UNL     1      38.174 -11.009  -2.206  1.00  0.00     0.028 C 
HETATM   23  C   UNL     1      37.608 -11.580  -0.917  1.00  0.00     0.004 C 
HETATM   24  C   UNL     1      38.697 -12.277  -0.117  1.00  0.00     0.043 C 
ENDBRANCH  13  17
ENDBRANCH   1   9
BRANCH   1  25
HETATM   25  C   UNL     1      42.812 -10.852   7.088  1.00  0.00    -0.003 A 
HETATM   26  C   UNL     1      41.940  -9.882   7.585  1.00  0.00     0.126 A 
HETATM   27  N   UNL     1      42.180  -9.130   8.684  1.00  0.00    -0.272 NA
HETATM   28  C   UNL     1      43.347  -9.330   9.330  1.00  0.00     0.116 A 
HETATM   29  C   UNL     1      44.283 -10.265   8.934  1.00  0.00     0.020 A 
HETATM   30  C   UNL     1      44.008 -11.035   7.807  1.00  0.00     0.013 A 
ENDBRANCH   1  25
BRANCH   5  31
HETATM   31  C   UNL     1      41.655 -15.359   6.418  1.00  0.00     0.175 C 
BRANCH  31  32
HETATM   32  C   UNL     1      42.061 -16.170   5.211  1.00  0.00    -0.040 A 
HETATM   33  C   UNL     1      43.195 -16.997   5.262  1.00  0.00     0.012 A 
HETATM   34  C   UNL     1      43.578 -17.736   4.142  1.00  0.00     0.043 A 
HETATM   35  C   UNL     1      42.840 -17.641   2.970  1.00  0.00     0.116 A 
HETATM   36  F   UNL     1      43.208 -18.351   1.897  1.00  0.00    -0.206 F 
HETATM   37  C   UNL     1      41.724 -16.817   2.893  1.00  0.00     0.043 A 
HETATM   38  C   UNL     1      41.334 -16.079   4.013  1.00  0.00     0.012 A 
ENDBRANCH  31  32
ENDBRANCH   5  31
TORSDOF 5
ENDMDL
MODEL 7
REMARK VINA RESULT:      -8.9      2.432      6.921
REMARK  5 active torsions:
REMARK  status: ('A' for Active; 'I' for Inactive)
REMARK    1  A    between atoms: C_4  and  C_5 
REMARK       I    between atoms: C_5  and  N_6 
REMARK    2  A    between atoms: C_9  and  C_10 
REMARK    3  A    between atoms: C_10  and  C_11 
REMARK    4  A    between atoms: N_20  and  C_21 
REMARK    5  A    between atoms: C_21  and  C_22 
ROOT
HETATM    1  C   UNL     1      41.519 -12.268   5.139  1.00  0.00     0.148 A 
HETATM    2  N   UNL     1      40.674 -12.830   6.189  1.00  0.00    -0.320 N 
HETATM    3  C   UNL     1      40.341 -14.144   5.978  1.00  0.00     0.326 A 
HETATM    4  O   UNL     1      39.715 -14.820   6.775  1.00  0.00    -0.247 OA
HETATM    5  N   UNL     1      40.788 -14.509   4.754  1.00  0.00    -0.263 N 
HETATM    6  C   UNL     1      41.459 -13.479   4.166  1.00  0.00     0.262 A 
HETATM    7  O   UNL     1      41.937 -13.514   3.039  1.00  0.00    -0.270 OA
HETATM    8  H   UNL     1      40.539 -12.435   7.111  1.00  0.00     0.166 HD
ENDROOT
BRANCH   1   9
HETATM    9  C   UNL     1      40.868 -10.951   4.589  1.00  0.00     0.031 C 
HETATM   10  C   UNL     1      41.699 -10.143   3.574  1.00  0.00     0.028 C 
HETATM   11  C   UNL     1      41.576 -10.588   2.122  1.00  0.00     0.126 C 
HETATM   12  N   UNL     1      40.197 -10.834   1.684  1.00  0.00    -0.350 N 
HETATM   13  C   UNL     1      40.003 -10.861   0.303  1.00  0.00     0.251 C 
HETATM   14  C   UNL     1      39.339 -11.571   2.610  1.00  0.00     0.126 C 
HETATM   15  O   UNL     1      40.897 -10.583  -0.505  1.00  0.00    -0.271 OA
HETATM   16  C   UNL     1      39.431 -11.083   4.049  1.00  0.00     0.028 C 
BRANCH  13  17
HETATM   17  C   UNL     1      38.604 -11.204  -0.273  1.00  0.00     0.279 C 
HETATM   18  N   UNL     1      38.020  -9.975  -1.020  1.00  0.00    -0.062 N 
HETATM   19  C   UNL     1      37.807  -8.792  -0.104  1.00  0.00     0.270 C 
HETATM   20  H   UNL     1      38.775  -9.683  -1.664  1.00  0.00     0.280 HD
HETATM   21  C   UNL     1      36.770 -10.262  -1.804  1.00  0.00     0.235 C 
HETATM   22  C   UNL     1      36.995 -11.410  -2.768  1.00  0.00     0.028 C 
HETATM   23  C   UNL     1      37.471 -12.652  -2.036  1.00  0.00     0.004 C 
HETATM   24  C   UNL     1      38.751 -12.362  -1.268  1.00  0.00     0.043 C 
ENDBRANCH  13  17
ENDBRANCH   1   9
BRANCH   1  25
HETATM   25  C   UNL     1      42.911 -12.020   5.719  1.00  0.00    -0.003 A 
HETATM   26  C   UNL     1      43.198 -12.131   7.079  1.00  0.00     0.126 A 
HETATM   27  N   UNL     1      44.424 -11.942   7.619  1.00  0.00    -0.272 NA
HETATM   28  C   UNL     1      45.427 -11.615   6.781  1.00  0.00     0.116 A 
HETATM   29  C   UNL     1      45.263 -11.483   5.416  1.00  0.00     0.020 A 
HETATM   30  C   UNL     1      43.994 -11.694   4.883  1.00  0.00     0.013 A 
ENDBRANCH   1  25
BRANCH   5  31
HETATM   31  C   UNL     1      40.618 -15.823   4.176  1.00  0.00     0.175 C 
BRANCH  31  32
HETATM   32  C   UNL     1      41.895 -16.627   4.226  1.00  0.00    -0.040 A 
HETATM   33  C   UNL     1      42.563 -16.819   5.446  1.00  0.00     0.012 A 
HETATM   34  C   UNL     1      43.752 -17.549   5.490  1.00  0.00     0.043 A 
HETATM   35  C   UNL     1      44.278 -18.077   4.319  1.00  0.00     0.116 A 
HETATM   36  F   UNL     1      45.418 -18.779   4.363  1.00  0.00    -0.206 F 
HETATM   37  C   UNL     1      43.641 -17.886   3.099  1.00  0.00     0.043 A 
HETATM   38  C   UNL     1      42.450 -17.159   3.051  1.00  0.00     0.012 A 
ENDBRANCH  31  32
ENDBRANCH   5  31
TORSDOF 5
ENDMDL
MODEL 8
REMARK VINA RESULT:      -8.8      2.969      6.315
REMARK  5 active torsions:
REMARK  status: ('A' for Active; 'I' for Inactive)
REMARK    1  A    between atoms: C_4  and  C_5 
REMARK       I    between atoms: C_5  and  N_6 
REMARK    2  A    between atoms: C_9  and  C_10 
REMARK    3  A    between atoms: C_10  and  C_11 
REMARK    4  A    between atoms: N_20  and  C_21 
REMARK    5  A    between atoms: C_21  and  C_22 
ROOT
HETATM    1  C   UNL     1      40.765 -13.690   3.902  1.00  0.00     0.148 A 
HETATM    2  N   UNL     1      40.197 -14.698   4.794  1.00  0.00    -0.320 N 
HETATM    3  C   UNL     1      41.129 -15.570   5.297  1.00  0.00     0.326 A 
HETATM    4  O   UNL     1      40.875 -16.429   6.122  1.00  0.00    -0.247 OA
HETATM    5  N   UNL     1      42.316 -15.325   4.694  1.00  0.00    -0.263 N 
HETATM    6  C   UNL     1      42.205 -14.270   3.838  1.00  0.00     0.262 A 
HETATM    7  O   UNL     1      43.112 -13.854   3.128  1.00  0.00    -0.270 OA
HETATM    8  H   UNL     1      39.287 -14.649   5.235  1.00  0.00     0.166 HD
ENDROOT
BRANCH   1   9
HETATM    9  C   UNL     1      39.991 -13.702   2.537  1.00  0.00     0.031 C 
HETATM   10  C   UNL     1      38.789 -12.744   2.419  1.00  0.00     0.028 C 
HETATM   11  C   UNL     1      39.126 -11.317   2.002  1.00  0.00     0.126 C 
HETATM   12  N   UNL     1      40.059 -11.225   0.874  1.00  0.00    -0.350 N 
HETATM   13  C   UNL     1      40.092  -9.992   0.222  1.00  0.00     0.251 C 
HETATM   14  C   UNL     1      41.211 -12.126   0.903  1.00  0.00     0.126 C 
HETATM   15  O   UNL     1      39.311  -9.072   0.491  1.00  0.00    -0.271 OA
HETATM   16  C   UNL     1      40.855 -13.560   1.270  1.00  0.00     0.028 C 
BRANCH  13  17
HETATM   17  C   UNL     1      41.109  -9.753  -0.925  1.00  0.00     0.279 C 
HETATM   18  N   UNL     1      40.357  -9.463  -2.251  1.00  0.00    -0.062 N 
HETATM   19  C   UNL     1      39.504 -10.628  -2.696  1.00  0.00     0.270 C 
HETATM   20  H   UNL     1      39.683  -8.716  -2.007  1.00  0.00     0.280 HD
HETATM   21  C   UNL     1      41.239  -8.999  -3.376  1.00  0.00     0.235 C 
HETATM   22  C   UNL     1      42.053  -7.792  -2.955  1.00  0.00     0.028 C 
HETATM   23  C   UNL     1      42.874  -8.094  -1.713  1.00  0.00     0.004 C 
HETATM   24  C   UNL     1      41.972  -8.535  -0.571  1.00  0.00     0.043 C 
ENDBRANCH  13  17
ENDBRANCH   1   9
BRANCH   1  25
HETATM   25  C   UNL     1      40.685 -12.331   4.595  1.00  0.00    -0.003 A 
HETATM   26  C   UNL     1      41.581 -11.293   4.337  1.00  0.00     0.126 A 
HETATM   27  N   UNL     1      41.522 -10.072   4.915  1.00  0.00    -0.272 NA
HETATM   28  C   UNL     1      40.534  -9.854   5.806  1.00  0.00     0.116 A 
HETATM   29  C   UNL     1      39.586 -10.803   6.136  1.00  0.00     0.020 A 
HETATM   30  C   UNL     1      39.662 -12.049   5.519  1.00  0.00     0.013 A 
ENDBRANCH   1  25
BRANCH   5  31
HETATM   31  C   UNL     1      43.537 -16.050   4.962  1.00  0.00     0.175 C 
BRANCH  31  32
HETATM   32  C   UNL     1      43.586 -17.361   4.214  1.00  0.00    -0.040 A 
HETATM   33  C   UNL     1      44.059 -18.521   4.847  1.00  0.00     0.012 A 
HETATM   34  C   UNL     1      44.117 -19.729   4.151  1.00  0.00     0.043 A 
HETATM   35  C   UNL     1      43.716 -19.777   2.823  1.00  0.00     0.116 A 
HETATM   36  F   UNL     1      43.772 -20.937   2.156  1.00  0.00    -0.206 F 
HETATM   37  C   UNL     1      43.259 -18.637   2.172  1.00  0.00     0.043 A 
HETATM   38  C   UNL     1      43.195 -17.427   2.866  1.00  0.00     0.012 A 
ENDBRANCH  31  32
ENDBRANCH   5  31
TORSDOF 5
ENDMDL
MODEL 9
REMARK VINA RESULT:      -8.8      2.579      7.533
REMARK  5 active torsions:
REMARK  status: ('A' for Active; 'I' for Inactive)
REMARK    1  A    between atoms: C_4  and  C_5 
REMARK       I    between atoms: C_5  and  N_6 
REMARK    2  A    between atoms: C_9  and  C_10 
REMARK    3  A    between atoms: C_10  and  C_11 
REMARK    4  A    between atoms: N_20  and  C_21 
REMARK    5  A    between atoms: C_21  and  C_22 
ROOT
HETATM    1  C   UNL     1      40.436 -10.897   5.800  1.00  0.00     0.148 A 
HETATM    2  N   UNL     1      39.731 -12.161   5.990  1.00  0.00    -0.320 N 
HETATM    3  C   UNL     1      40.563 -13.252   6.024  1.00  0.00     0.326 A 
HETATM    4  O   UNL     1      40.184 -14.385   6.257  1.00  0.00    -0.247 OA
HETATM    5  N   UNL     1      41.818 -12.844   5.721  1.00  0.00    -0.263 N 
HETATM    6  C   UNL     1      41.847 -11.493   5.539  1.00  0.00     0.262 A 
HETATM    7  O   UNL     1      42.843 -10.857   5.216  1.00  0.00    -0.270 OA
HETATM    8  H   UNL     1      38.782 -12.262   6.329  1.00  0.00     0.166 HD
ENDROOT
BRANCH   1   9
HETATM    9  C   UNL     1      39.813 -10.128   4.582  1.00  0.00     0.031 C 
HETATM   10  C   UNL     1      40.804  -9.553   3.551  1.00  0.00     0.028 C 
HETATM   11  C   UNL     1      41.258 -10.523   2.466  1.00  0.00     0.126 C 
HETATM   12  N   UNL     1      40.169 -11.299   1.861  1.00  0.00    -0.350 N 
HETATM   13  C   UNL     1      40.467 -11.893   0.635  1.00  0.00     0.251 C 
HETATM   14  C   UNL     1      39.173 -11.852   2.777  1.00  0.00     0.126 C 
HETATM   15  O   UNL     1      41.529 -11.691   0.033  1.00  0.00    -0.271 OA
HETATM   16  C   UNL     1      38.689 -10.859   3.824  1.00  0.00     0.028 C 
BRANCH  13  17
HETATM   17  C   UNL     1      39.423 -12.813  -0.051  1.00  0.00     0.279 C 
HETATM   18  N   UNL     1      38.759 -12.071  -1.241  1.00  0.00    -0.062 N 
HETATM   19  C   UNL     1      37.996 -10.843  -0.800  1.00  0.00     0.270 C 
HETATM   20  H   UNL     1      39.555 -11.708  -1.794  1.00  0.00     0.280 HD
HETATM   21  C   UNL     1      37.894 -12.940  -2.110  1.00  0.00     0.235 C 
HETATM   22  C   UNL     1      38.672 -14.144  -2.606  1.00  0.00     0.028 C 
HETATM   23  C   UNL     1      39.245 -14.938  -1.444  1.00  0.00     0.004 C 
HETATM   24  C   UNL     1      40.141 -14.059  -0.585  1.00  0.00     0.043 C 
ENDBRANCH  13  17
ENDBRANCH   1   9
BRANCH   1  25
HETATM   25  C   UNL     1      40.344 -10.091   7.094  1.00  0.00    -0.003 A 
HETATM   26  C   UNL     1      39.152  -9.915   7.797  1.00  0.00     0.126 A 
HETATM   27  N   UNL     1      39.043  -9.229   8.958  1.00  0.00    -0.272 NA
HETATM   28  C   UNL     1      40.165  -8.672   9.456  1.00  0.00     0.116 A 
HETATM   29  C   UNL     1      41.402  -8.785   8.852  1.00  0.00     0.020 A 
HETATM   30  C   UNL     1      41.490  -9.506   7.664  1.00  0.00     0.013 A 
ENDBRANCH   1  25
BRANCH   5  31
HETATM   31  C   UNL     1      42.969 -13.714   5.651  1.00  0.00     0.175 C 
BRANCH  31  32
HETATM   32  C   UNL     1      43.027 -14.463   4.342  1.00  0.00    -0.040 A 
HETATM   33  C   UNL     1      43.153 -15.861   4.330  1.00  0.00     0.012 A 
HETATM   34  C   UNL     1      43.221 -16.552   3.119  1.00  0.00     0.043 A 
HETATM   35  C   UNL     1      43.175 -15.848   1.923  1.00  0.00     0.116 A 
HETATM   36  F   UNL     1      43.239 -16.513   0.762  1.00  0.00    -0.206 F 
HETATM   37  C   UNL     1      43.065 -14.464   1.912  1.00  0.00     0.043 A 
HETATM   38  C   UNL     1      42.993 -13.769   3.121  1.00  0.00     0.012 A 
ENDBRANCH  31  32
ENDBRANCH   5  31
TORSDOF 5
ENDMDL
MODEL 10
REMARK VINA RESULT:      -8.7      3.103      5.348
REMARK  5 active torsions:
REMARK  status: ('A' for Active; 'I' for Inactive)
REMARK    1  A    between atoms: C_4  and  C_5 
REMARK       I    between atoms: C_5  and  N_6 
REMARK    2  A    between atoms: C_9  and  C_10 
REMARK    3  A    between atoms: C_10  and  C_11 
REMARK    4  A    between atoms: N_20  and  C_21 
REMARK    5  A    between atoms: C_21  and  C_22 
ROOT
HETATM    1  C   UNL     1      41.404 -11.950   3.834  1.00  0.00     0.148 A 
HETATM    2  N   UNL     1      42.625 -11.387   3.264  1.00  0.00    -0.320 N 
HETATM    3  C   UNL     1      43.756 -11.708   3.971  1.00  0.00     0.326 A 
HETATM    4  O   UNL     1      44.883 -11.409   3.617  1.00  0.00    -0.247 OA
HETATM    5  N   UNL     1      43.388 -12.353   5.102  1.00  0.00    -0.263 N 
HETATM    6  C   UNL     1      42.035 -12.516   5.137  1.00  0.00     0.262 A 
HETATM    7  O   UNL     1      41.421 -13.031   6.063  1.00  0.00    -0.270 OA
HETATM    8  H   UNL     1      42.724 -11.025   2.324  1.00  0.00     0.166 HD
ENDROOT
BRANCH   1   9
HETATM    9  C   UNL     1      40.354 -10.806   4.057  1.00  0.00     0.031 C 
HETATM   10  C   UNL     1      39.055 -11.197   4.789  1.00  0.00     0.028 C 
HETATM   11  C   UNL     1      39.127 -11.172   6.312  1.00  0.00     0.126 C 
HETATM   12  N   UNL     1      39.771  -9.974   6.863  1.00  0.00    -0.350 N 
HETATM   13  C   UNL     1      39.518  -9.725   8.212  1.00  0.00     0.251 C 
HETATM   14  C   UNL     1      40.994  -9.526   6.199  1.00  0.00     0.126 C 
HETATM   15  O   UNL     1      38.717 -10.392   8.878  1.00  0.00    -0.271 OA
HETATM   16  C   UNL     1      40.893  -9.505   4.681  1.00  0.00     0.028 C 
BRANCH  13  17
HETATM   17  C   UNL     1      40.221  -8.539   8.922  1.00  0.00     0.279 C 
HETATM   18  N   UNL     1      39.178  -7.458   9.312  1.00  0.00    -0.062 N 
HETATM   19  C   UNL     1      38.488  -6.863   8.106  1.00  0.00     0.270 C 
HETATM   20  H   UNL     1      38.440  -7.982   9.812  1.00  0.00     0.280 HD
HETATM   21  C   UNL     1      39.714  -6.369  10.199  1.00  0.00     0.235 C 
HETATM   22  C   UNL     1      40.355  -6.958  11.441  1.00  0.00     0.028 C 
HETATM   23  C   UNL     1      41.450  -7.945  11.074  1.00  0.00     0.004 C 
HETATM   24  C   UNL     1      40.894  -9.059  10.200  1.00  0.00     0.043 C 
ENDBRANCH  13  17
ENDBRANCH   1   9
BRANCH   1  25
HETATM   25  C   UNL     1      40.882 -13.031   2.889  1.00  0.00    -0.003 A 
HETATM   26  C   UNL     1      40.547 -12.780   1.559  1.00  0.00     0.126 A 
HETATM   27  N   UNL     1      40.107 -13.720   0.691  1.00  0.00    -0.272 NA
HETATM   28  C   UNL     1      39.975 -14.979   1.155  1.00  0.00     0.116 A 
HETATM   29  C   UNL     1      40.282 -15.347   2.451  1.00  0.00     0.020 A 
HETATM   30  C   UNL     1      40.745 -14.363   3.321  1.00  0.00     0.013 A 
ENDBRANCH   1  25
BRANCH   5  31
HETATM   31  C   UNL     1      44.307 -12.843   6.104  1.00  0.00     0.175 C 
BRANCH  31  32
HETATM   32  C   UNL     1      44.712 -11.756   7.071  1.00  0.00    -0.040 A 
HETATM   33  C   UNL     1      45.963 -11.130   6.949  1.00  0.00     0.012 A 
HETATM   34  C   UNL     1      46.344 -10.135   7.851  1.00  0.00     0.043 A 
HETATM   35  C   UNL     1      45.483  -9.775   8.880  1.00  0.00     0.116 A 
HETATM   36  F   UNL     1      45.850  -8.820   9.744  1.00  0.00    -0.206 F 
HETATM   37  C   UNL     1      44.248 -10.392   9.028  1.00  0.00     0.043 A 
HETATM   38  C   UNL     1      43.861 -11.385   8.125  1.00  0.00     0.012 A 
ENDBRANCH  31  32
ENDBRANCH   5  31
TORSDOF 5
ENDMDL
