MODEL 1
REMARK VINA RESULT:      -8.4      0.000      0.000
REMARK  3 active torsions:
REMARK  status: ('A' for Active; 'I' for Inactive)
REMARK    1  A    between atoms: C_3  and  N_4 
REMARK    2  A    between atoms: C_10  and  O_11 
REMARK    3  A    between atoms: C_14  and  C_15 
ROOT
HETATM    1  N   UNL     1      43.192 -16.574   3.079  1.00  0.00    -0.212 N 
HETATM    2  N   UNL     1      43.470 -15.901   1.931  1.00  0.00    -0.177 NA
HETATM    3  C   UNL     1      43.024 -14.671   2.149  1.00  0.00     0.152 C 
HETATM    4  C   UNL     1      42.496 -14.480   3.449  1.00  0.00     0.027 C 
HETATM    5  C   UNL     1      42.708 -15.707   4.075  1.00  0.00     0.163 C 
HETATM    6  N   UNL     1      42.625 -16.103   5.372  1.00  0.00    -0.208 NA
HETATM    7  C   UNL     1      41.605 -15.725   6.063  1.00  0.00     0.149 C 
HETATM    8  C   UNL     1      40.464 -14.846   5.652  1.00  0.00     0.161 C 
HETATM    9  S   UNL     1      41.062 -13.139   5.556  1.00  0.00    -0.146 SA
HETATM   10  C   UNL     1      41.990 -13.156   3.966  1.00  0.00     0.124 C 
ENDROOT
BRANCH  10  11
HETATM   11  C   UNL     1      41.147 -12.422   2.937  1.00  0.00     0.028 A 
HETATM   12  C   UNL     1      41.792 -11.245   2.269  1.00  0.00     0.253 A 
HETATM   13  O   UNL     1      42.948 -10.908   2.502  1.00  0.00    -0.268 OA
HETATM   14  N   UNL     1      41.025 -10.568   1.350  1.00  0.00    -0.333 N 
HETATM   15  C   UNL     1      39.747 -10.918   1.006  1.00  0.00     0.091 A 
HETATM   16  H   UNL     1      41.470  -9.770   0.911  1.00  0.00     0.168 HD
HETATM   17  C   UNL     1      39.170 -11.981   1.574  1.00  0.00     0.018 A 
HETATM   18  C   UNL     1      39.894 -12.751   2.559  1.00  0.00     0.015 A 
ENDBRANCH  10  11
BRANCH   1  19
HETATM   19  C   UNL     1      43.441 -17.974   3.131  1.00  0.00     0.099 A 
HETATM   20  C   UNL     1      42.825 -18.810   2.182  1.00  0.00     0.035 A 
HETATM   21  C   UNL     1      43.060 -20.187   2.190  1.00  0.00     0.002 A 
HETATM   22  C   UNL     1      43.894 -20.748   3.154  1.00  0.00     0.003 A 
HETATM   23  C   UNL     1      44.478 -19.931   4.121  1.00  0.00     0.045 A 
HETATM   24  C   UNL     1      44.246 -18.555   4.112  1.00  0.00     0.145 A 
HETATM   25  F   UNL     1      44.734 -17.854   5.145  1.00  0.00    -0.204 F 
ENDBRANCH   1  19
BRANCH   7  26
HETATM   26  O   UNL     1      41.540 -16.160   7.332  1.00  0.00    -0.347 OA
HETATM   27  H   UNL     1      41.490 -17.131   7.299  1.00  0.00     0.219 HD
ENDBRANCH   7  26
TORSDOF 3
ENDMDL
MODEL 2
REMARK VINA RESULT:      -8.3      3.064      6.769
REMARK  3 active torsions:
REMARK  status: ('A' for Active; 'I' for Inactive)
REMARK    1  A    between atoms: C_3  and  N_4 
REMARK    2  A    between atoms: C_10  and  O_11 
REMARK    3  A    between atoms: C_14  and  C_15 
ROOT
HETATM    1  N   UNL     1      40.112 -14.182   1.066  1.00  0.00    -0.212 N 
HETATM    2  N   UNL     1      39.701 -15.423   1.442  1.00  0.00    -0.177 NA
HETATM    3  C   UNL     1      40.290 -15.629   2.612  1.00  0.00     0.152 C 
HETATM    4  C   UNL     1      41.054 -14.526   3.067  1.00  0.00     0.027 C 
HETATM    5  C   UNL     1      40.842 -13.554   2.092  1.00  0.00     0.163 C 
HETATM    6  N   UNL     1      41.113 -12.223   2.048  1.00  0.00    -0.208 NA
HETATM    7  C   UNL     1      42.269 -11.821   2.451  1.00  0.00     0.149 C 
HETATM    8  C   UNL     1      43.396 -12.623   3.024  1.00  0.00     0.161 C 
HETATM    9  S   UNL     1      42.952 -13.115   4.709  1.00  0.00    -0.146 SA
HETATM   10  C   UNL     1      41.763 -14.485   4.398  1.00  0.00     0.124 C 
ENDROOT
BRANCH  10  11
HETATM   11  C   UNL     1      42.477 -15.789   4.709  1.00  0.00     0.028 A 
HETATM   12  C   UNL     1      42.165 -16.418   6.034  1.00  0.00     0.253 A 
HETATM   13  O   UNL     1      41.351 -15.936   6.814  1.00  0.00    -0.268 OA
HETATM   14  N   UNL     1      42.823 -17.590   6.324  1.00  0.00    -0.333 N 
HETATM   15  C   UNL     1      43.706 -18.208   5.480  1.00  0.00     0.091 A 
HETATM   16  H   UNL     1      42.609 -18.000   7.226  1.00  0.00     0.168 HD
HETATM   17  C   UNL     1      43.972 -17.673   4.285  1.00  0.00     0.018 A 
HETATM   18  C   UNL     1      43.335 -16.437   3.893  1.00  0.00     0.015 A 
ENDBRANCH  10  11
BRANCH   1  19
HETATM   19  C   UNL     1      39.747 -13.698  -0.221  1.00  0.00     0.099 A 
HETATM   20  C   UNL     1      40.401 -14.218  -1.352  1.00  0.00     0.035 A 
HETATM   21  C   UNL     1      40.056 -13.782  -2.635  1.00  0.00     0.002 A 
HETATM   22  C   UNL     1      39.074 -12.809  -2.801  1.00  0.00     0.003 A 
HETATM   23  C   UNL     1      38.448 -12.262  -1.682  1.00  0.00     0.045 A 
HETATM   24  C   UNL     1      38.789 -12.699  -0.401  1.00  0.00     0.145 A 
HETATM   25  F   UNL     1      38.241 -12.039   0.628  1.00  0.00    -0.204 F 
ENDBRANCH   1  19
BRANCH   7  26
HETATM   26  O   UNL     1      42.514 -10.503   2.365  1.00  0.00    -0.347 OA
HETATM   27  H   UNL     1      43.037 -10.259   3.148  1.00  0.00     0.219 HD
ENDBRANCH   7  26
TORSDOF 3
ENDMDL
MODEL 3
REMARK VINA RESULT:      -8.2      3.055      4.653
REMARK  3 active torsions:
REMARK  status: ('A' for Active; 'I' for Inactive)
REMARK    1  A    between atoms: C_3  and  N_4 
REMARK    2  A    between atoms: C_10  and  O_11 
REMARK    3  A    between atoms: C_14  and  C_15 
ROOT
HETATM    1  N   UNL     1      41.291 -14.838   2.350  1.00  0.00    -0.212 N 
HETATM    2  N   UNL     1      40.629 -15.585   1.427  1.00  0.00    -0.177 NA
HETATM    3  C   UNL     1      40.432 -14.759   0.408  1.00  0.00     0.152 C 
HETATM    4  C   UNL     1      40.998 -13.475   0.599  1.00  0.00     0.027 C 
HETATM    5  C   UNL     1      41.643 -13.579   1.830  1.00  0.00     0.163 C 
HETATM    6  N   UNL     1      42.538 -12.780   2.469  1.00  0.00    -0.208 NA
HETATM    7  C   UNL     1      42.318 -11.511   2.491  1.00  0.00     0.149 C 
HETATM    8  C   UNL     1      41.199 -10.739   1.860  1.00  0.00     0.161 C 
HETATM    9  S   UNL     1      41.478 -10.685   0.071  1.00  0.00    -0.146 SA
HETATM   10  C   UNL     1      40.971 -12.380  -0.437  1.00  0.00     0.124 C 
ENDROOT
BRANCH  10  11
HETATM   11  C   UNL     1      39.618 -12.267  -1.119  1.00  0.00     0.028 A 
HETATM   12  C   UNL     1      39.537 -12.783  -2.525  1.00  0.00     0.253 A 
HETATM   13  O   UNL     1      40.493 -13.304  -3.089  1.00  0.00    -0.268 OA
HETATM   14  N   UNL     1      38.318 -12.666  -3.149  1.00  0.00    -0.333 N 
HETATM   15  C   UNL     1      37.199 -12.140  -2.562  1.00  0.00     0.091 A 
HETATM   16  H   UNL     1      38.279 -13.010  -4.101  1.00  0.00     0.168 HD
HETATM   17  C   UNL     1      37.250 -11.702  -1.301  1.00  0.00     0.018 A 
HETATM   18  C   UNL     1      38.490 -11.775  -0.565  1.00  0.00     0.015 A 
ENDBRANCH  10  11
BRANCH   1  19
HETATM   19  C   UNL     1      41.555 -15.402   3.629  1.00  0.00     0.099 A 
HETATM   20  C   UNL     1      40.692 -15.097   4.697  1.00  0.00     0.035 A 
HETATM   21  C   UNL     1      40.908 -15.648   5.964  1.00  0.00     0.002 A 
HETATM   22  C   UNL     1      41.996 -16.489   6.184  1.00  0.00     0.003 A 
HETATM   23  C   UNL     1      42.876 -16.766   5.139  1.00  0.00     0.045 A 
HETATM   24  C   UNL     1      42.660 -16.219   3.873  1.00  0.00     0.145 A 
HETATM   25  F   UNL     1      43.616 -16.423   2.956  1.00  0.00    -0.204 F 
ENDBRANCH   1  19
BRANCH   7  26
HETATM   26  O   UNL     1      43.206 -10.754   3.156  1.00  0.00    -0.347 OA
HETATM   27  H   UNL     1      42.703 -10.213   3.788  1.00  0.00     0.219 HD
ENDBRANCH   7  26
TORSDOF 3
ENDMDL
MODEL 4
REMARK VINA RESULT:      -8.0      3.446      4.802
REMARK  3 active torsions:
REMARK  status: ('A' for Active; 'I' for Inactive)
REMARK    1  A    between atoms: C_3  and  N_4 
REMARK    2  A    between atoms: C_10  and  O_11 
REMARK    3  A    between atoms: C_14  and  C_15 
ROOT
HETATM    1  N   UNL     1      43.350 -15.361   5.104  1.00  0.00    -0.212 N 
HETATM    2  N   UNL     1      43.707 -15.364   6.417  1.00  0.00    -0.177 NA
HETATM    3  C   UNL     1      43.607 -14.096   6.792  1.00  0.00     0.152 C 
HETATM    4  C   UNL     1      43.135 -13.235   5.772  1.00  0.00     0.027 C 
HETATM    5  C   UNL     1      42.876 -14.097   4.708  1.00  0.00     0.163 C 
HETATM    6  N   UNL     1      42.215 -13.932   3.532  1.00  0.00    -0.208 NA
HETATM    7  C   UNL     1      42.446 -12.867   2.845  1.00  0.00     0.149 C 
HETATM    8  C   UNL     1      43.340 -11.711   3.174  1.00  0.00     0.161 C 
HETATM    9  S   UNL     1      42.553 -10.730   4.476  1.00  0.00    -0.146 SA
HETATM   10  C   UNL     1      42.871 -11.763   5.966  1.00  0.00     0.124 C 
ENDROOT
BRANCH  10  11
HETATM   11  C   UNL     1      43.968 -11.084   6.768  1.00  0.00     0.028 A 
HETATM   12  C   UNL     1      43.519 -10.093   7.800  1.00  0.00     0.253 A 
HETATM   13  O   UNL     1      42.335  -9.864   8.021  1.00  0.00    -0.268 OA
HETATM   14  N   UNL     1      44.512  -9.464   8.515  1.00  0.00    -0.333 N 
HETATM   15  C   UNL     1      45.849  -9.708   8.355  1.00  0.00     0.091 A 
HETATM   16  H   UNL     1      44.196  -8.791   9.204  1.00  0.00     0.168 HD
HETATM   17  C   UNL     1      46.261 -10.608   7.458  1.00  0.00     0.018 A 
HETATM   18  C   UNL     1      45.293 -11.315   6.652  1.00  0.00     0.015 A 
ENDBRANCH  10  11
BRANCH   1  19
HETATM   19  C   UNL     1      43.465 -16.568   4.359  1.00  0.00     0.099 A 
HETATM   20  C   UNL     1      43.082 -16.569   3.006  1.00  0.00     0.035 A 
HETATM   21  C   UNL     1      43.197 -17.730   2.236  1.00  0.00     0.002 A 
HETATM   22  C   UNL     1      43.674 -18.905   2.812  1.00  0.00     0.003 A 
HETATM   23  C   UNL     1      44.020 -18.921   4.162  1.00  0.00     0.045 A 
HETATM   24  C   UNL     1      43.908 -17.761   4.931  1.00  0.00     0.145 A 
HETATM   25  F   UNL     1      44.134 -17.884   6.246  1.00  0.00    -0.204 F 
ENDBRANCH   1  19
BRANCH   7  26
HETATM   26  O   UNL     1      41.798 -12.751   1.674  1.00  0.00    -0.347 OA
HETATM   27  H   UNL     1      41.864 -13.611   1.225  1.00  0.00     0.219 HD
ENDBRANCH   7  26
TORSDOF 3
ENDMDL
MODEL 5
REMARK VINA RESULT:      -8.0      2.868      3.730
REMARK  3 active torsions:
REMARK  status: ('A' for Active; 'I' for Inactive)
REMARK    1  A    between atoms: C_3  and  N_4 
REMARK    2  A    between atoms: C_10  and  O_11 
REMARK    3  A    between atoms: C_14  and  C_15 
ROOT
HETATM    1  N   UNL     1      42.105 -15.782   5.122  1.00  0.00    -0.212 N 
HETATM    2  N   UNL     1      42.346 -15.077   6.259  1.00  0.00    -0.177 NA
HETATM    3  C   UNL     1      41.590 -13.993   6.147  1.00  0.00     0.152 C 
HETATM    4  C   UNL     1      40.794 -13.974   4.975  1.00  0.00     0.027 C 
HETATM    5  C   UNL     1      41.069 -15.199   4.370  1.00  0.00     0.163 C 
HETATM    6  N   UNL     1      40.477 -15.872   3.348  1.00  0.00    -0.208 NA
HETATM    7  C   UNL     1      40.161 -15.216   2.286  1.00  0.00     0.149 C 
HETATM    8  C   UNL     1      40.315 -13.753   2.003  1.00  0.00     0.161 C 
HETATM    9  S   UNL     1      39.071 -12.850   2.961  1.00  0.00    -0.146 SA
HETATM   10  C   UNL     1      39.801 -12.887   4.650  1.00  0.00     0.124 C 
ENDROOT
BRANCH  10  11
HETATM   11  C   UNL     1      40.349 -11.501   4.942  1.00  0.00     0.028 A 
HETATM   12  C   UNL     1      39.826 -10.825   6.174  1.00  0.00     0.253 A 
HETATM   13  O   UNL     1      39.030 -11.367   6.933  1.00  0.00    -0.268 OA
HETATM   14  N   UNL     1      40.309  -9.563   6.431  1.00  0.00    -0.333 N 
HETATM   15  C   UNL     1      41.235  -8.920   5.654  1.00  0.00     0.091 A 
HETATM   16  H   UNL     1      39.942  -9.115   7.261  1.00  0.00     0.168 HD
HETATM   17  C   UNL     1      41.729  -9.522   4.568  1.00  0.00     0.018 A 
HETATM   18  C   UNL     1      41.276 -10.846   4.212  1.00  0.00     0.015 A 
ENDBRANCH  10  11
BRANCH   1  19
HETATM   19  C   UNL     1      42.862 -16.961   4.871  1.00  0.00     0.099 A 
HETATM   20  C   UNL     1      43.028 -17.894   5.910  1.00  0.00     0.035 A 
HETATM   21  C   UNL     1      43.749 -19.073   5.697  1.00  0.00     0.002 A 
HETATM   22  C   UNL     1      44.328 -19.322   4.455  1.00  0.00     0.003 A 
HETATM   23  C   UNL     1      44.199 -18.385   3.432  1.00  0.00     0.045 A 
HETATM   24  C   UNL     1      43.477 -17.208   3.643  1.00  0.00     0.145 A 
HETATM   25  F   UNL     1      43.505 -16.298   2.660  1.00  0.00    -0.204 F 
ENDBRANCH   1  19
BRANCH   7  26
HETATM   26  O   UNL     1      39.605 -15.918   1.285  1.00  0.00    -0.347 OA
HETATM   27  H   UNL     1      38.875 -16.433   1.669  1.00  0.00     0.219 HD
ENDBRANCH   7  26
TORSDOF 3
ENDMDL
MODEL 6
REMARK VINA RESULT:      -8.0      8.528     10.523
REMARK  3 active torsions:
REMARK  status: ('A' for Active; 'I' for Inactive)
REMARK    1  A    between atoms: C_3  and  N_4 
REMARK    2  A    between atoms: C_10  and  O_11 
REMARK    3  A    between atoms: C_14  and  C_15 
ROOT
HETATM    1  N   UNL     1      43.661 -10.365   9.631  1.00  0.00    -0.212 N 
HETATM    2  N   UNL     1      43.868 -10.988  10.822  1.00  0.00    -0.177 NA
HETATM    3  C   UNL     1      43.040 -10.382  11.663  1.00  0.00     0.152 C 
HETATM    4  C   UNL     1      42.231  -9.393  11.052  1.00  0.00     0.027 C 
HETATM    5  C   UNL     1      42.580  -9.468   9.705  1.00  0.00     0.163 C 
HETATM    6  N   UNL     1      42.023  -8.945   8.581  1.00  0.00    -0.208 NA
HETATM    7  C   UNL     1      41.652  -7.711   8.600  1.00  0.00     0.149 C 
HETATM    8  C   UNL     1      41.705  -6.730   9.731  1.00  0.00     0.161 C 
HETATM    9  S   UNL     1      40.415  -7.163  10.925  1.00  0.00    -0.146 SA
HETATM   10  C   UNL     1      41.164  -8.612  11.777  1.00  0.00     0.124 C 
ENDROOT
BRANCH  10  11
HETATM   11  C   UNL     1      41.622  -8.150  13.149  1.00  0.00     0.028 A 
HETATM   12  C   UNL     1      41.000  -8.841  14.325  1.00  0.00     0.253 A 
HETATM   13  O   UNL     1      40.194  -9.757  14.199  1.00  0.00    -0.268 OA
HETATM   14  N   UNL     1      41.401  -8.412  15.569  1.00  0.00    -0.333 N 
HETATM   15  C   UNL     1      42.331  -7.431  15.782  1.00  0.00     0.091 A 
HETATM   16  H   UNL     1      40.967  -8.881  16.355  1.00  0.00     0.168 HD
HETATM   17  C   UNL     1      42.914  -6.826  14.743  1.00  0.00     0.018 A 
HETATM   18  C   UNL     1      42.551  -7.202  13.396  1.00  0.00     0.015 A 
ENDBRANCH  10  11
BRANCH   1  19
HETATM   19  C   UNL     1      44.492 -10.704   8.526  1.00  0.00     0.099 A 
HETATM   20  C   UNL     1      44.064 -11.706   7.637  1.00  0.00     0.035 A 
HETATM   21  C   UNL     1      44.844 -12.053   6.530  1.00  0.00     0.002 A 
HETATM   22  C   UNL     1      46.065 -11.421   6.310  1.00  0.00     0.003 A 
HETATM   23  C   UNL     1      46.513 -10.454   7.208  1.00  0.00     0.045 A 
HETATM   24  C   UNL     1      45.734 -10.104   8.312  1.00  0.00     0.145 A 
HETATM   25  F   UNL     1      46.285  -9.263   9.198  1.00  0.00    -0.204 F 
ENDBRANCH   1  19
BRANCH   7  26
HETATM   26  O   UNL     1      41.133  -7.219   7.463  1.00  0.00    -0.347 OA
HETATM   27  H   UNL     1      40.540  -7.900   7.102  1.00  0.00     0.219 HD
ENDBRANCH   7  26
TORSDOF 3
ENDMDL
MODEL 7
REMARK VINA RESULT:      -8.0     14.879     15.899
REMARK  3 active torsions:
REMARK  status: ('A' for Active; 'I' for Inactive)
REMARK    1  A    between atoms: C_3  and  N_4 
REMARK    2  A    between atoms: C_10  and  O_11 
REMARK    3  A    between atoms: C_14  and  C_15 
ROOT
HETATM    1  N   UNL     1      47.955 -29.616   0.948  1.00  0.00    -0.212 N 
HETATM    2  N   UNL     1      48.501 -29.373  -0.274  1.00  0.00    -0.177 NA
HETATM    3  C   UNL     1      47.462 -29.138  -1.063  1.00  0.00     0.152 C 
HETATM    4  C   UNL     1      46.217 -29.162  -0.387  1.00  0.00     0.027 C 
HETATM    5  C   UNL     1      46.569 -29.375   0.944  1.00  0.00     0.163 C 
HETATM    6  N   UNL     1      45.868 -29.287   2.105  1.00  0.00    -0.208 NA
HETATM    7  C   UNL     1      44.690 -29.805   2.148  1.00  0.00     0.149 C 
HETATM    8  C   UNL     1      43.920 -30.485   1.058  1.00  0.00     0.161 C 
HETATM    9  S   UNL     1      43.352 -29.226  -0.113  1.00  0.00    -0.146 SA
HETATM   10  C   UNL     1      44.895 -28.859  -1.046  1.00  0.00     0.124 C 
ENDROOT
BRANCH  10  11
HETATM   11  C   UNL     1      44.771 -29.512  -2.412  1.00  0.00     0.028 A 
HETATM   12  C   UNL     1      44.969 -28.615  -3.598  1.00  0.00     0.253 A 
HETATM   13  O   UNL     1      45.254 -27.428  -3.484  1.00  0.00    -0.268 OA
HETATM   14  N   UNL     1      44.839 -29.201  -4.835  1.00  0.00    -0.333 N 
HETATM   15  C   UNL     1      44.570 -30.529  -5.035  1.00  0.00     0.091 A 
HETATM   16  H   UNL     1      44.967 -28.583  -5.628  1.00  0.00     0.168 HD
HETATM   17  C   UNL     1      44.419 -31.344  -3.987  1.00  0.00     0.018 A 
HETATM   18  C   UNL     1      44.528 -30.819  -2.646  1.00  0.00     0.015 A 
ENDBRANCH  10  11
BRANCH   1  19
HETATM   19  C   UNL     1      48.807 -30.025   2.011  1.00  0.00     0.099 A 
HETATM   20  C   UNL     1      49.322 -31.334   2.005  1.00  0.00     0.035 A 
HETATM   21  C   UNL     1      50.178 -31.766   3.022  1.00  0.00     0.002 A 
HETATM   22  C   UNL     1      50.510 -30.906   4.066  1.00  0.00     0.003 A 
HETATM   23  C   UNL     1      49.974 -29.621   4.100  1.00  0.00     0.045 A 
HETATM   24  C   UNL     1      49.122 -29.187   3.082  1.00  0.00     0.145 A 
HETATM   25  F   UNL     1      48.544 -27.989   3.248  1.00  0.00    -0.204 F 
ENDBRANCH   1  19
BRANCH   7  26
HETATM   26  O   UNL     1      44.037 -29.726   3.320  1.00  0.00    -0.347 OA
HETATM   27  H   UNL     1      44.642 -30.058   4.006  1.00  0.00     0.219 HD
ENDBRANCH   7  26
TORSDOF 3
ENDMDL
MODEL 8
REMARK VINA RESULT:      -7.9      3.612      5.331
REMARK  3 active torsions:
REMARK  status: ('A' for Active; 'I' for Inactive)
REMARK    1  A    between atoms: C_3  and  N_4 
REMARK    2  A    between atoms: C_10  and  O_11 
REMARK    3  A    between atoms: C_14  and  C_15 
ROOT
HETATM    1  N   UNL     1      41.674 -13.231   1.887  1.00  0.00    -0.212 N 
HETATM    2  N   UNL     1      42.312 -12.215   2.527  1.00  0.00    -0.177 NA
HETATM    3  C   UNL     1      41.889 -11.117   1.914  1.00  0.00     0.152 C 
HETATM    4  C   UNL     1      40.931 -11.364   0.901  1.00  0.00     0.027 C 
HETATM    5  C   UNL     1      40.728 -12.741   0.969  1.00  0.00     0.163 C 
HETATM    6  N   UNL     1      39.790 -13.559   0.421  1.00  0.00    -0.208 NA
HETATM    7  C   UNL     1      39.485 -13.395  -0.819  1.00  0.00     0.149 C 
HETATM    8  C   UNL     1      39.995 -12.372  -1.786  1.00  0.00     0.161 C 
HETATM    9  S   UNL     1      39.260 -10.771  -1.368  1.00  0.00    -0.146 SA
HETATM   10  C   UNL     1      40.247 -10.280   0.107  1.00  0.00     0.124 C 
ENDROOT
BRANCH  10  11
HETATM   11  C   UNL     1      41.213  -9.192  -0.331  1.00  0.00     0.028 A 
HETATM   12  C   UNL     1      41.113  -7.884   0.396  1.00  0.00     0.253 A 
HETATM   13  O   UNL     1      40.327  -7.703   1.319  1.00  0.00    -0.268 OA
HETATM   14  N   UNL     1      41.975  -6.893  -0.011  1.00  0.00    -0.333 N 
HETATM   15  C   UNL     1      42.910  -7.042  -1.000  1.00  0.00     0.091 A 
HETATM   16  H   UNL     1      41.892  -6.011   0.482  1.00  0.00     0.168 HD
HETATM   17  C   UNL     1      43.027  -8.210  -1.637  1.00  0.00     0.018 A 
HETATM   18  C   UNL     1      42.159  -9.310  -1.286  1.00  0.00     0.015 A 
ENDBRANCH  10  11
BRANCH   1  19
HETATM   19  C   UNL     1      42.002 -14.572   2.230  1.00  0.00     0.099 A 
HETATM   20  C   UNL     1      42.999 -15.237   1.494  1.00  0.00     0.035 A 
HETATM   21  C   UNL     1      43.362 -16.549   1.814  1.00  0.00     0.002 A 
HETATM   22  C   UNL     1      42.722 -17.216   2.855  1.00  0.00     0.003 A 
HETATM   23  C   UNL     1      41.707 -16.577   3.565  1.00  0.00     0.045 A 
HETATM   24  C   UNL     1      41.345 -15.266   3.248  1.00  0.00     0.145 A 
HETATM   25  F   UNL     1      40.278 -14.763   3.884  1.00  0.00    -0.204 F 
ENDBRANCH   1  19
BRANCH   7  26
HETATM   26  O   UNL     1      38.577 -14.240  -1.335  1.00  0.00    -0.347 OA
HETATM   27  H   UNL     1      38.686 -14.221  -2.301  1.00  0.00     0.219 HD
ENDBRANCH   7  26
TORSDOF 3
ENDMDL
MODEL 9
REMARK VINA RESULT:      -7.9      3.970      6.096
REMARK  3 active torsions:
REMARK  status: ('A' for Active; 'I' for Inactive)
REMARK    1  A    between atoms: C_3  and  N_4 
REMARK    2  A    between atoms: C_10  and  O_11 
REMARK    3  A    between atoms: C_14  and  C_15 
ROOT
HETATM    1  N   UNL     1      43.070 -11.733   6.047  1.00  0.00    -0.212 N 
HETATM    2  N   UNL     1      42.502 -11.041   5.023  1.00  0.00    -0.177 NA
HETATM    3  C   UNL     1      41.702 -11.918   4.431  1.00  0.00     0.152 C 
HETATM    4  C   UNL     1      41.673 -13.182   5.070  1.00  0.00     0.027 C 
HETATM    5  C   UNL     1      42.495 -13.009   6.182  1.00  0.00     0.163 C 
HETATM    6  N   UNL     1      42.708 -13.762   7.293  1.00  0.00    -0.208 NA
HETATM    7  C   UNL     1      42.869 -15.032   7.149  1.00  0.00     0.149 C 
HETATM    8  C   UNL     1      42.817 -15.851   5.896  1.00  0.00     0.161 C 
HETATM    9  S   UNL     1      41.090 -15.986   5.371  1.00  0.00    -0.146 SA
HETATM   10  C   UNL     1      40.792 -14.326   4.633  1.00  0.00     0.124 C 
ENDROOT
BRANCH  10  11
HETATM   11  C   UNL     1      40.773 -14.493   3.123  1.00  0.00     0.028 A 
HETATM   12  C   UNL     1      39.640 -13.833   2.396  1.00  0.00     0.253 A 
HETATM   13  O   UNL     1      38.791 -13.161   2.973  1.00  0.00    -0.268 OA
HETATM   14  N   UNL     1      39.612 -13.998   1.031  1.00  0.00    -0.333 N 
HETATM   15  C   UNL     1      40.552 -14.693   0.319  1.00  0.00     0.091 A 
HETATM   16  H   UNL     1      38.837 -13.555   0.553  1.00  0.00     0.168 HD
HETATM   17  C   UNL     1      41.582 -15.262   0.952  1.00  0.00     0.018 A 
HETATM   18  C   UNL     1      41.694 -15.152   2.388  1.00  0.00     0.015 A 
ENDBRANCH  10  11
BRANCH   1  19
HETATM   19  C   UNL     1      44.085 -11.103   6.820  1.00  0.00     0.099 A 
HETATM   20  C   UNL     1      45.431 -11.421   6.563  1.00  0.00     0.035 A 
HETATM   21  C   UNL     1      46.457 -10.809   7.289  1.00  0.00     0.002 A 
HETATM   22  C   UNL     1      46.151  -9.892   8.292  1.00  0.00     0.003 A 
HETATM   23  C   UNL     1      44.819  -9.601   8.579  1.00  0.00     0.045 A 
HETATM   24  C   UNL     1      43.793 -10.209   7.852  1.00  0.00     0.145 A 
HETATM   25  F   UNL     1      42.541  -9.980   8.268  1.00  0.00    -0.204 F 
ENDBRANCH   1  19
BRANCH   7  26
HETATM   26  O   UNL     1      43.107 -15.741   8.265  1.00  0.00    -0.347 OA
HETATM   27  H   UNL     1      42.367 -16.363   8.371  1.00  0.00     0.219 HD
ENDBRANCH   7  26
TORSDOF 3
ENDMDL
MODEL 10
REMARK VINA RESULT:      -7.8      2.574      3.637
REMARK  3 active torsions:
REMARK  status: ('A' for Active; 'I' for Inactive)
REMARK    1  A    between atoms: C_3  and  N_4 
REMARK    2  A    between atoms: C_10  and  O_11 
REMARK    3  A    between atoms: C_14  and  C_15 
ROOT
HETATM    1  N   UNL     1      41.922 -15.150   2.037  1.00  0.00    -0.212 N 
HETATM    2  N   UNL     1      40.949 -15.513   1.158  1.00  0.00    -0.177 NA
HETATM    3  C   UNL     1      40.518 -14.368   0.646  1.00  0.00     0.152 C 
HETATM    4  C   UNL     1      41.218 -13.232   1.121  1.00  0.00     0.027 C 
HETATM    5  C   UNL     1      42.199 -13.773   1.951  1.00  0.00     0.163 C 
HETATM    6  N   UNL     1      43.309 -13.242   2.529  1.00  0.00    -0.208 NA
HETATM    7  C   UNL     1      43.210 -12.091   3.098  1.00  0.00     0.149 C 
HETATM    8  C   UNL     1      42.019 -11.187   3.192  1.00  0.00     0.161 C 
HETATM    9  S   UNL     1      41.740 -10.436   1.568  1.00  0.00    -0.146 SA
HETATM   10  C   UNL     1      40.964 -11.825   0.642  1.00  0.00     0.124 C 
ENDROOT
BRANCH  10  11
HETATM   11  C   UNL     1      39.482 -11.520   0.516  1.00  0.00     0.028 A 
HETATM   12  C   UNL     1      38.949 -11.376  -0.878  1.00  0.00     0.253 A 
HETATM   13  O   UNL     1      39.653 -11.532  -1.870  1.00  0.00    -0.268 OA
HETATM   14  N   UNL     1      37.610 -11.082  -0.993  1.00  0.00    -0.333 N 
HETATM   15  C   UNL     1      36.758 -10.943   0.069  1.00  0.00     0.091 A 
HETATM   16  H   UNL     1      37.265 -10.979  -1.940  1.00  0.00     0.168 HD
HETATM   17  C   UNL     1      37.214 -11.095   1.316  1.00  0.00     0.018 A 
HETATM   18  C   UNL     1      38.609 -11.396   1.539  1.00  0.00     0.015 A 
ENDBRANCH  10  11
BRANCH   1  19
HETATM   19  C   UNL     1      42.518 -16.151   2.853  1.00  0.00     0.099 A 
HETATM   20  C   UNL     1      43.188 -17.222   2.235  1.00  0.00     0.035 A 
HETATM   21  C   UNL     1      43.802 -18.214   3.004  1.00  0.00     0.002 A 
HETATM   22  C   UNL     1      43.735 -18.162   4.394  1.00  0.00     0.003 A 
HETATM   23  C   UNL     1      43.040 -17.125   5.013  1.00  0.00     0.045 A 
HETATM   24  C   UNL     1      42.429 -16.131   4.246  1.00  0.00     0.145 A 
HETATM   25  F   UNL     1      41.672 -15.241   4.903  1.00  0.00    -0.204 F 
ENDBRANCH   1  19
BRANCH   7  26
HETATM   26  O   UNL     1      44.319 -11.610   3.685  1.00  0.00    -0.347 OA
HETATM   27  H   UNL     1      45.027 -12.259   3.530  1.00  0.00     0.219 HD
ENDBRANCH   7  26
TORSDOF 3
ENDMDL
