MODEL 1
REMARK VINA RESULT:      -8.5      0.000      0.000
REMARK  5 active torsions:
REMARK  status: ('A' for Active; 'I' for Inactive)
REMARK    1  A    between atoms: C_2  and  O_3 
REMARK    2  A    between atoms: O_3  and  C_4 
REMARK    3  A    between atoms: C_5  and  N_6 
REMARK       I    between atoms: N_6  and  C_7 
REMARK    4  A    between atoms: C_7  and  C_8 
REMARK    5  A    between atoms: C_9  and  C_10 
ROOT
HETATM    1  N   UNL     1      43.521 -11.686   7.611  1.00  0.00    -0.321 N 
HETATM    2  C   UNL     1      44.694 -11.094   8.033  1.00  0.00     0.245 C 
HETATM    3  O   UNL     1      45.793 -11.127   7.500  1.00  0.00    -0.268 OA
HETATM    4  H   UNL     1      42.667 -11.318   8.005  1.00  0.00     0.169 HD
ENDROOT
BRANCH   1   5
HETATM    5  C   UNL     1      43.343 -12.627   6.569  1.00  0.00     0.071 A 
HETATM    6  C   UNL     1      43.359 -12.342   5.184  1.00  0.00     0.096 A 
HETATM    7  C   UNL     1      43.127 -13.347   4.230  1.00  0.00     0.049 A 
HETATM    8  C   UNL     1      42.976 -14.647   4.669  1.00  0.00    -0.020 A 
HETATM    9  C   UNL     1      43.028 -14.942   6.018  1.00  0.00     0.078 A 
HETATM   10  C   UNL     1      42.709 -15.884   3.902  1.00  0.00     0.073 C 
HETATM   11  C   UNL     1      43.203 -13.964   6.978  1.00  0.00     0.069 A 
HETATM   12  O   UNL     1      42.882 -16.276   6.297  1.00  0.00    -0.345 OA
HETATM   13  C   UNL     1      42.978 -16.925   5.001  1.00  0.00     0.129 C 
HETATM   14  C   UNL     1      44.359 -17.565   4.880  1.00  0.00     0.040 C 
BRANCH   6  15
HETATM   15  O   UNL     1      43.627 -11.084   4.717  1.00  0.00    -0.349 OA
BRANCH  15  16
HETATM   16  C   UNL     1      42.496 -10.489   4.074  1.00  0.00     0.171 C 
HETATM   17  C   UNL     1      41.770  -9.603   5.070  1.00  0.00     0.034 C 
ENDBRANCH  15  16
ENDBRANCH   6  15
ENDBRANCH   1   5
BRANCH   2  18
HETATM   18  C   UNL     1      44.476 -10.279   9.262  1.00  0.00     0.077 C 
HETATM   19  C   UNL     1      43.452 -10.571  10.076  1.00  0.00     0.043 C 
BRANCH  19  20
HETATM   20  C   UNL     1      43.202  -9.791  11.238  1.00  0.00     0.077 A 
HETATM   21  O   UNL     1      42.234 -10.087  12.176  1.00  0.00    -0.310 OA
HETATM   22  C   UNL     1      42.276  -9.144  13.150  1.00  0.00     0.086 A 
HETATM   23  C   UNL     1      43.266  -8.214  12.878  1.00  0.00     0.000 A 
HETATM   24  C   UNL     1      41.451  -9.102  14.272  1.00  0.00     0.038 A 
HETATM   25  C   UNL     1      43.848  -8.631  11.655  1.00  0.00     0.051 A 
HETATM   26  C   UNL     1      43.467  -7.157  13.784  1.00  0.00     0.014 A 
HETATM   27  C   UNL     1      42.655  -7.088  14.924  1.00  0.00     0.001 A 
HETATM   28  C   UNL     1      41.664  -8.043  15.162  1.00  0.00     0.003 A 
ENDBRANCH  19  20
ENDBRANCH   2  18
TORSDOF 5
ENDMDL
MODEL 2
REMARK VINA RESULT:      -8.5      1.601      9.129
REMARK  5 active torsions:
REMARK  status: ('A' for Active; 'I' for Inactive)
REMARK    1  A    between atoms: C_2  and  O_3 
REMARK    2  A    between atoms: O_3  and  C_4 
REMARK    3  A    between atoms: C_5  and  N_6 
REMARK       I    between atoms: N_6  and  C_7 
REMARK    4  A    between atoms: C_7  and  C_8 
REMARK    5  A    between atoms: C_9  and  C_10 
ROOT
HETATM    1  N   UNL     1      43.763 -10.932   8.471  1.00  0.00    -0.321 N 
HETATM    2  C   UNL     1      44.929 -11.194   7.783  1.00  0.00     0.245 C 
HETATM    3  O   UNL     1      46.058 -10.795   8.028  1.00  0.00    -0.268 OA
HETATM    4  H   UNL     1      42.994 -11.567   8.306  1.00  0.00     0.169 HD
ENDROOT
BRANCH   1   5
HETATM    5  C   UNL     1      43.551  -9.992   9.508  1.00  0.00     0.071 A 
HETATM    6  C   UNL     1      43.525  -8.586   9.360  1.00  0.00     0.096 A 
HETATM    7  C   UNL     1      43.350  -7.739  10.467  1.00  0.00     0.049 A 
HETATM    8  C   UNL     1      43.109  -8.311  11.699  1.00  0.00    -0.020 A 
HETATM    9  C   UNL     1      43.066  -9.684  11.839  1.00  0.00     0.078 A 
HETATM   10  C   UNL     1      42.908  -7.673  13.019  1.00  0.00     0.073 C 
HETATM   11  C   UNL     1      43.285 -10.539  10.775  1.00  0.00     0.069 A 
HETATM   12  O   UNL     1      42.796 -10.102  13.116  1.00  0.00    -0.345 OA
HETATM   13  C   UNL     1      42.401  -8.889  13.812  1.00  0.00     0.129 C 
HETATM   14  C   UNL     1      40.882  -8.895  13.974  1.00  0.00     0.040 C 
BRANCH   6  15
HETATM   15  O   UNL     1      43.641  -7.997   8.130  1.00  0.00    -0.349 OA
BRANCH  15  16
HETATM   16  C   UNL     1      42.399  -7.457   7.666  1.00  0.00     0.171 C 
HETATM   17  C   UNL     1      41.795  -8.408   6.649  1.00  0.00     0.034 C 
ENDBRANCH  15  16
ENDBRANCH   6  15
ENDBRANCH   1   5
BRANCH   2  18
HETATM   18  C   UNL     1      44.693 -12.146   6.661  1.00  0.00     0.077 C 
HETATM   19  C   UNL     1      43.655 -12.992   6.718  1.00  0.00     0.043 C 
BRANCH  19  20
HETATM   20  C   UNL     1      43.424 -13.931   5.676  1.00  0.00     0.077 A 
HETATM   21  O   UNL     1      43.204 -13.587   4.359  1.00  0.00    -0.310 OA
HETATM   22  C   UNL     1      43.031 -14.726   3.640  1.00  0.00     0.086 A 
HETATM   23  C   UNL     1      43.135 -15.835   4.463  1.00  0.00     0.000 A 
HETATM   24  C   UNL     1      42.786 -14.789   2.271  1.00  0.00     0.038 A 
HETATM   25  C   UNL     1      43.380 -15.319   5.761  1.00  0.00     0.051 A 
HETATM   26  C   UNL     1      42.990 -17.113   3.895  1.00  0.00     0.014 A 
HETATM   27  C   UNL     1      42.746 -17.211   2.518  1.00  0.00     0.001 A 
HETATM   28  C   UNL     1      42.643 -16.068   1.721  1.00  0.00     0.003 A 
ENDBRANCH  19  20
ENDBRANCH   2  18
TORSDOF 5
ENDMDL
MODEL 3
REMARK VINA RESULT:      -8.2      2.317      9.618
REMARK  5 active torsions:
REMARK  status: ('A' for Active; 'I' for Inactive)
REMARK    1  A    between atoms: C_2  and  O_3 
REMARK    2  A    between atoms: O_3  and  C_4 
REMARK    3  A    between atoms: C_5  and  N_6 
REMARK       I    between atoms: N_6  and  C_7 
REMARK    4  A    between atoms: C_7  and  C_8 
REMARK    5  A    between atoms: C_9  and  C_10 
ROOT
HETATM    1  N   UNL     1      42.849 -12.947   5.996  1.00  0.00    -0.321 N 
HETATM    2  C   UNL     1      41.654 -13.635   5.945  1.00  0.00     0.245 C 
HETATM    3  O   UNL     1      40.547 -13.257   6.298  1.00  0.00    -0.268 OA
HETATM    4  H   UNL     1      43.590 -13.295   5.404  1.00  0.00     0.169 HD
ENDROOT
BRANCH   1   5
HETATM    5  C   UNL     1      43.121 -11.715   6.638  1.00  0.00     0.071 A 
HETATM    6  C   UNL     1      42.531 -10.469   6.323  1.00  0.00     0.096 A 
HETATM    7  C   UNL     1      42.907  -9.294   6.996  1.00  0.00     0.049 A 
HETATM    8  C   UNL     1      43.802  -9.394   8.042  1.00  0.00    -0.020 A 
HETATM    9  C   UNL     1      44.330 -10.620   8.399  1.00  0.00     0.078 A 
HETATM   10  C   UNL     1      44.378  -8.338   8.903  1.00  0.00     0.073 C 
HETATM   11  C   UNL     1      44.015 -11.781   7.719  1.00  0.00     0.069 A 
HETATM   12  O   UNL     1      45.185 -10.563   9.468  1.00  0.00    -0.345 OA
HETATM   13  C   UNL     1      45.013  -9.218   9.992  1.00  0.00     0.129 C 
HETATM   14  C   UNL     1      44.161  -9.297  11.257  1.00  0.00     0.040 C 
BRANCH   6  15
HETATM   15  O   UNL     1      41.553 -10.362   5.372  1.00  0.00    -0.349 OA
BRANCH  15  16
HETATM   16  C   UNL     1      42.086 -10.091   4.072  1.00  0.00     0.171 C 
HETATM   17  C   UNL     1      41.561 -11.129   3.096  1.00  0.00     0.034 C 
ENDBRANCH  15  16
ENDBRANCH   6  15
ENDBRANCH   1   5
BRANCH   2  18
HETATM   18  C   UNL     1      41.825 -14.969   5.303  1.00  0.00     0.077 C 
HETATM   19  C   UNL     1      43.057 -15.476   5.149  1.00  0.00     0.043 C 
BRANCH  19  20
HETATM   20  C   UNL     1      43.251 -16.732   4.511  1.00  0.00     0.077 A 
HETATM   21  O   UNL     1      43.668 -17.874   5.163  1.00  0.00    -0.310 OA
HETATM   22  C   UNL     1      43.739 -18.883   4.257  1.00  0.00     0.086 A 
HETATM   23  C   UNL     1      43.372 -18.430   3.001  1.00  0.00     0.000 A 
HETATM   24  C   UNL     1      44.123 -20.193   4.535  1.00  0.00     0.038 A 
HETATM   25  C   UNL     1      43.067 -17.056   3.171  1.00  0.00     0.051 A 
HETATM   26  C   UNL     1      43.377 -19.339   1.928  1.00  0.00     0.014 A 
HETATM   27  C   UNL     1      43.755 -20.666   2.175  1.00  0.00     0.001 A 
HETATM   28  C   UNL     1      44.123 -21.084   3.456  1.00  0.00     0.003 A 
ENDBRANCH  19  20
ENDBRANCH   2  18
TORSDOF 5
ENDMDL
MODEL 4
REMARK VINA RESULT:      -8.1      8.681     11.332
REMARK  5 active torsions:
REMARK  status: ('A' for Active; 'I' for Inactive)
REMARK    1  A    between atoms: C_2  and  O_3 
REMARK    2  A    between atoms: O_3  and  C_4 
REMARK    3  A    between atoms: C_5  and  N_6 
REMARK       I    between atoms: N_6  and  C_7 
REMARK    4  A    between atoms: C_7  and  C_8 
REMARK    5  A    between atoms: C_9  and  C_10 
ROOT
HETATM    1  N   UNL     1      41.144 -13.593  -0.151  1.00  0.00    -0.321 N 
HETATM    2  C   UNL     1      40.440 -13.818   1.014  1.00  0.00     0.245 C 
HETATM    3  O   UNL     1      39.508 -13.174   1.473  1.00  0.00    -0.268 OA
HETATM    4  H   UNL     1      41.671 -14.374  -0.513  1.00  0.00     0.169 HD
ENDROOT
BRANCH   1   5
HETATM    5  C   UNL     1      41.088 -12.462  -1.001  1.00  0.00     0.071 A 
HETATM    6  C   UNL     1      40.678 -12.462  -2.354  1.00  0.00     0.096 A 
HETATM    7  C   UNL     1      40.701 -11.287  -3.124  1.00  0.00     0.049 A 
HETATM    8  C   UNL     1      41.045 -10.103  -2.503  1.00  0.00    -0.020 A 
HETATM    9  C   UNL     1      41.380 -10.085  -1.163  1.00  0.00     0.078 A 
HETATM   10  C   UNL     1      41.167  -8.739  -3.062  1.00  0.00     0.073 C 
HETATM   11  C   UNL     1      41.414 -11.235  -0.399  1.00  0.00     0.069 A 
HETATM   12  O   UNL     1      41.676  -8.835  -0.685  1.00  0.00    -0.345 OA
HETATM   13  C   UNL     1      41.271  -7.938  -1.754  1.00  0.00     0.129 C 
HETATM   14  C   UNL     1      39.949  -7.281  -1.359  1.00  0.00     0.040 C 
BRANCH   6  15
HETATM   15  O   UNL     1      40.218 -13.600  -2.960  1.00  0.00    -0.349 OA
BRANCH  15  16
HETATM   16  C   UNL     1      38.809 -13.552  -3.208  1.00  0.00     0.171 C 
HETATM   17  C   UNL     1      38.287 -14.969  -3.372  1.00  0.00     0.034 C 
ENDBRANCH  15  16
ENDBRANCH   6  15
ENDBRANCH   1   5
BRANCH   2  18
HETATM   18  C   UNL     1      40.903 -15.062   1.693  1.00  0.00     0.077 C 
HETATM   19  C   UNL     1      42.213 -15.345   1.734  1.00  0.00     0.043 C 
BRANCH  19  20
HETATM   20  C   UNL     1      42.679 -16.540   2.347  1.00  0.00     0.077 A 
HETATM   21  O   UNL     1      42.714 -17.768   1.719  1.00  0.00    -0.310 OA
HETATM   22  C   UNL     1      43.221 -18.680   2.588  1.00  0.00     0.086 A 
HETATM   23  C   UNL     1      43.530 -18.076   3.795  1.00  0.00     0.000 A 
HETATM   24  C   UNL     1      43.412 -20.033   2.319  1.00  0.00     0.038 A 
HETATM   25  C   UNL     1      43.176 -16.712   3.635  1.00  0.00     0.051 A 
HETATM   26  C   UNL     1      44.076 -18.863   4.824  1.00  0.00     0.014 A 
HETATM   27  C   UNL     1      44.284 -20.229   4.585  1.00  0.00     0.001 A 
HETATM   28  C   UNL     1      43.956 -20.803   3.354  1.00  0.00     0.003 A 
ENDBRANCH  19  20
ENDBRANCH   2  18
TORSDOF 5
ENDMDL
MODEL 5
REMARK VINA RESULT:      -7.8      8.658     11.192
REMARK  5 active torsions:
REMARK  status: ('A' for Active; 'I' for Inactive)
REMARK    1  A    between atoms: C_2  and  O_3 
REMARK    2  A    between atoms: O_3  and  C_4 
REMARK    3  A    between atoms: C_5  and  N_6 
REMARK       I    between atoms: N_6  and  C_7 
REMARK    4  A    between atoms: C_7  and  C_8 
REMARK    5  A    between atoms: C_9  and  C_10 
ROOT
HETATM    1  N   UNL     1      39.667 -13.613   0.988  1.00  0.00    -0.321 N 
HETATM    2  C   UNL     1      40.983 -13.686   1.394  1.00  0.00     0.245 C 
HETATM    3  O   UNL     1      41.807 -12.786   1.457  1.00  0.00    -0.268 OA
HETATM    4  H   UNL     1      39.067 -14.374   1.274  1.00  0.00     0.169 HD
ENDROOT
BRANCH   1   5
HETATM    5  C   UNL     1      39.003 -12.527   0.368  1.00  0.00     0.071 A 
HETATM    6  C   UNL     1      38.855 -12.332  -1.025  1.00  0.00     0.096 A 
HETATM    7  C   UNL     1      38.213 -11.193  -1.538  1.00  0.00     0.049 A 
HETATM    8  C   UNL     1      37.640 -10.306  -0.649  1.00  0.00    -0.020 A 
HETATM    9  C   UNL     1      37.721 -10.526   0.712  1.00  0.00     0.078 A 
HETATM   10  C   UNL     1      36.927  -9.035  -0.902  1.00  0.00     0.073 C 
HETATM   11  C   UNL     1      38.392 -11.612   1.242  1.00  0.00     0.069 A 
HETATM   12  O   UNL     1      37.088  -9.572   1.465  1.00  0.00    -0.345 OA
HETATM   13  C   UNL     1      36.335  -8.794   0.497  1.00  0.00     0.129 C 
HETATM   14  C   UNL     1      34.864  -9.197   0.591  1.00  0.00     0.040 C 
BRANCH   6  15
HETATM   15  O   UNL     1      39.307 -13.257  -1.926  1.00  0.00    -0.349 OA
BRANCH  15  16
HETATM   16  C   UNL     1      38.361 -13.508  -2.970  1.00  0.00     0.171 C 
HETATM   17  C   UNL     1      38.347 -14.994  -3.279  1.00  0.00     0.034 C 
ENDBRANCH  15  16
ENDBRANCH   6  15
ENDBRANCH   1   5
BRANCH   2  18
HETATM   18  C   UNL     1      41.330 -15.058   1.860  1.00  0.00     0.077 C 
HETATM   19  C   UNL     1      42.584 -15.328   2.250  1.00  0.00     0.043 C 
BRANCH  19  20
HETATM   20  C   UNL     1      42.950 -16.636   2.668  1.00  0.00     0.077 A 
HETATM   21  O   UNL     1      43.385 -16.948   3.940  1.00  0.00    -0.310 OA
HETATM   22  C   UNL     1      43.638 -18.281   3.993  1.00  0.00     0.086 A 
HETATM   23  C   UNL     1      43.376 -18.870   2.767  1.00  0.00     0.000 A 
HETATM   24  C   UNL     1      44.094 -18.974   5.112  1.00  0.00     0.038 A 
HETATM   25  C   UNL     1      42.943 -17.813   1.927  1.00  0.00     0.051 A 
HETATM   26  C   UNL     1      43.573 -20.255   2.628  1.00  0.00     0.014 A 
HETATM   27  C   UNL     1      44.029 -20.982   3.736  1.00  0.00     0.001 A 
HETATM   28  C   UNL     1      44.286 -20.351   4.956  1.00  0.00     0.003 A 
ENDBRANCH  19  20
ENDBRANCH   2  18
TORSDOF 5
ENDMDL
MODEL 6
REMARK VINA RESULT:      -7.8      3.834      9.842
REMARK  5 active torsions:
REMARK  status: ('A' for Active; 'I' for Inactive)
REMARK    1  A    between atoms: C_2  and  O_3 
REMARK    2  A    between atoms: O_3  and  C_4 
REMARK    3  A    between atoms: C_5  and  N_6 
REMARK       I    between atoms: N_6  and  C_7 
REMARK    4  A    between atoms: C_7  and  C_8 
REMARK    5  A    between atoms: C_9  and  C_10 
ROOT
HETATM    1  N   UNL     1      42.065 -12.602   5.349  1.00  0.00    -0.321 N 
HETATM    2  C   UNL     1      42.162 -12.821   3.991  1.00  0.00     0.245 C 
HETATM    3  O   UNL     1      42.235 -11.994   3.094  1.00  0.00    -0.268 OA
HETATM    4  H   UNL     1      42.307 -13.380   5.946  1.00  0.00     0.169 HD
ENDROOT
BRANCH   1   5
HETATM    5  C   UNL     1      41.836 -11.378   6.023  1.00  0.00     0.071 A 
HETATM    6  C   UNL     1      42.833 -10.515   6.534  1.00  0.00     0.096 A 
HETATM    7  C   UNL     1      42.495  -9.341   7.228  1.00  0.00     0.049 A 
HETATM    8  C   UNL     1      41.162  -8.994   7.321  1.00  0.00    -0.020 A 
HETATM    9  C   UNL     1      40.187  -9.798   6.764  1.00  0.00     0.078 A 
HETATM   10  C   UNL     1      40.526  -7.841   7.996  1.00  0.00     0.073 C 
HETATM   11  C   UNL     1      40.491 -10.984   6.122  1.00  0.00     0.069 A 
HETATM   12  O   UNL     1      38.915  -9.313   6.919  1.00  0.00    -0.345 OA
HETATM   13  C   UNL     1      39.107  -7.961   7.416  1.00  0.00     0.129 C 
HETATM   14  C   UNL     1      38.854  -6.983   6.270  1.00  0.00     0.040 C 
BRANCH   6  15
HETATM   15  O   UNL     1      44.164 -10.774   6.350  1.00  0.00    -0.349 OA
BRANCH  15  16
HETATM   16  C   UNL     1      44.750 -11.436   7.475  1.00  0.00     0.171 C 
HETATM   17  C   UNL     1      45.953 -10.639   7.946  1.00  0.00     0.034 C 
ENDBRANCH  15  16
ENDBRANCH   6  15
ENDBRANCH   1   5
BRANCH   2  18
HETATM   18  C   UNL     1      42.251 -14.276   3.683  1.00  0.00     0.077 C 
HETATM   19  C   UNL     1      43.236 -15.008   4.223  1.00  0.00     0.043 C 
BRANCH  19  20
HETATM   20  C   UNL     1      43.364 -16.391   3.921  1.00  0.00     0.077 A 
HETATM   21  O   UNL     1      43.801 -17.342   4.820  1.00  0.00    -0.310 OA
HETATM   22  C   UNL     1      43.793 -18.552   4.205  1.00  0.00     0.086 A 
HETATM   23  C   UNL     1      43.351 -18.424   2.899  1.00  0.00     0.000 A 
HETATM   24  C   UNL     1      44.169 -19.759   4.789  1.00  0.00     0.038 A 
HETATM   25  C   UNL     1      43.084 -17.043   2.725  1.00  0.00     0.051 A 
HETATM   26  C   UNL     1      43.266 -19.578   2.099  1.00  0.00     0.014 A 
HETATM   27  C   UNL     1      43.635 -20.810   2.658  1.00  0.00     0.001 A 
HETATM   28  C   UNL     1      44.080 -20.897   3.979  1.00  0.00     0.003 A 
ENDBRANCH  19  20
ENDBRANCH   2  18
TORSDOF 5
ENDMDL
MODEL 7
REMARK VINA RESULT:      -7.8      3.954      6.135
REMARK  5 active torsions:
REMARK  status: ('A' for Active; 'I' for Inactive)
REMARK    1  A    between atoms: C_2  and  O_3 
REMARK    2  A    between atoms: O_3  and  C_4 
REMARK    3  A    between atoms: C_5  and  N_6 
REMARK       I    between atoms: N_6  and  C_7 
REMARK    4  A    between atoms: C_7  and  C_8 
REMARK    5  A    between atoms: C_9  and  C_10 
ROOT
HETATM    1  N   UNL     1      41.278 -12.697   3.076  1.00  0.00    -0.321 N 
HETATM    2  C   UNL     1      42.594 -12.551   3.463  1.00  0.00     0.245 C 
HETATM    3  O   UNL     1      43.604 -12.830   2.835  1.00  0.00    -0.268 OA
HETATM    4  H   UNL     1      40.597 -12.154   3.589  1.00  0.00     0.169 HD
ENDROOT
BRANCH   1   5
HETATM    5  C   UNL     1      40.771 -13.377   1.942  1.00  0.00     0.071 A 
HETATM    6  C   UNL     1      40.441 -14.750   1.878  1.00  0.00     0.096 A 
HETATM    7  C   UNL     1      39.985 -15.336   0.685  1.00  0.00     0.049 A 
HETATM    8  C   UNL     1      39.773 -14.519  -0.407  1.00  0.00    -0.020 A 
HETATM    9  C   UNL     1      40.028 -13.164  -0.331  1.00  0.00     0.078 A 
HETATM   10  C   UNL     1      39.319 -14.860  -1.774  1.00  0.00     0.073 C 
HETATM   11  C   UNL     1      40.526 -12.574   0.815  1.00  0.00     0.069 A 
HETATM   12  O   UNL     1      39.749 -12.483  -1.486  1.00  0.00    -0.345 OA
HETATM   13  C   UNL     1      39.033 -13.446  -2.305  1.00  0.00     0.129 C 
HETATM   14  C   UNL     1      37.546 -13.095  -2.275  1.00  0.00     0.040 C 
BRANCH   6  15
HETATM   15  O   UNL     1      40.527 -15.557   2.980  1.00  0.00    -0.349 OA
BRANCH  15  16
HETATM   16  C   UNL     1      41.641 -16.453   2.913  1.00  0.00     0.171 C 
HETATM   17  C   UNL     1      42.566 -16.181   4.086  1.00  0.00     0.034 C 
ENDBRANCH  15  16
ENDBRANCH   6  15
ENDBRANCH   1   5
BRANCH   2  18
HETATM   18  C   UNL     1      42.694 -11.901   4.801  1.00  0.00     0.077 C 
HETATM   19  C   UNL     1      43.896 -11.758   5.379  1.00  0.00     0.043 C 
BRANCH  19  20
HETATM   20  C   UNL     1      44.018 -11.171   6.667  1.00  0.00     0.077 A 
HETATM   21  O   UNL     1      42.989 -10.532   7.327  1.00  0.00    -0.310 OA
HETATM   22  C   UNL     1      43.450 -10.102   8.529  1.00  0.00     0.086 A 
HETATM   23  C   UNL     1      44.782 -10.447   8.685  1.00  0.00     0.000 A 
HETATM   24  C   UNL     1      42.704  -9.413   9.482  1.00  0.00     0.038 A 
HETATM   25  C   UNL     1      45.138 -11.123   7.491  1.00  0.00     0.051 A 
HETATM   26  C   UNL     1      45.437 -10.090   9.877  1.00  0.00     0.014 A 
HETATM   27  C   UNL     1      44.713  -9.397  10.858  1.00  0.00     0.001 A 
HETATM   28  C   UNL     1      43.370  -9.064  10.662  1.00  0.00     0.003 A 
ENDBRANCH  19  20
ENDBRANCH   2  18
TORSDOF 5
ENDMDL
MODEL 8
REMARK VINA RESULT:      -7.6      7.697     10.950
REMARK  5 active torsions:
REMARK  status: ('A' for Active; 'I' for Inactive)
REMARK    1  A    between atoms: C_2  and  O_3 
REMARK    2  A    between atoms: O_3  and  C_4 
REMARK    3  A    between atoms: C_5  and  N_6 
REMARK       I    between atoms: N_6  and  C_7 
REMARK    4  A    between atoms: C_7  and  C_8 
REMARK    5  A    between atoms: C_9  and  C_10 
ROOT
HETATM    1  N   UNL     1      40.668 -13.343   0.250  1.00  0.00    -0.321 N 
HETATM    2  C   UNL     1      41.611 -13.447   1.251  1.00  0.00     0.245 C 
HETATM    3  O   UNL     1      42.173 -12.548   1.859  1.00  0.00    -0.268 OA
HETATM    4  H   UNL     1      40.110 -14.166   0.074  1.00  0.00     0.169 HD
ENDROOT
BRANCH   1   5
HETATM    5  C   UNL     1      40.260 -12.181  -0.448  1.00  0.00     0.071 A 
HETATM    6  C   UNL     1      39.373 -11.192   0.036  1.00  0.00     0.096 A 
HETATM    7  C   UNL     1      38.998 -10.096  -0.759  1.00  0.00     0.049 A 
HETATM    8  C   UNL     1      39.589  -9.951  -1.998  1.00  0.00    -0.020 A 
HETATM    9  C   UNL     1      40.508 -10.878  -2.449  1.00  0.00     0.078 A 
HETATM   10  C   UNL     1      39.376  -8.920  -3.036  1.00  0.00     0.073 C 
HETATM   11  C   UNL     1      40.854 -11.991  -1.707  1.00  0.00     0.069 A 
HETATM   12  O   UNL     1      41.023 -10.588  -3.686  1.00  0.00    -0.345 OA
HETATM   13  C   UNL     1      40.569  -9.234  -3.954  1.00  0.00     0.129 C 
HETATM   14  C   UNL     1      41.742  -8.279  -3.742  1.00  0.00     0.040 C 
BRANCH   6  15
HETATM   15  O   UNL     1      38.867 -11.248   1.307  1.00  0.00    -0.349 OA
BRANCH  15  16
HETATM   16  C   UNL     1      39.460 -10.275   2.172  1.00  0.00     0.171 C 
HETATM   17  C   UNL     1      38.391  -9.716   3.094  1.00  0.00     0.034 C 
ENDBRANCH  15  16
ENDBRANCH   6  15
ENDBRANCH   1   5
BRANCH   2  18
HETATM   18  C   UNL     1      41.859 -14.871   1.614  1.00  0.00     0.077 C 
HETATM   19  C   UNL     1      42.860 -15.175   2.454  1.00  0.00     0.043 C 
BRANCH  19  20
HETATM   20  C   UNL     1      43.139 -16.528   2.792  1.00  0.00     0.077 A 
HETATM   21  O   UNL     1      43.535 -16.945   4.046  1.00  0.00    -0.310 OA
HETATM   22  C   UNL     1      43.706 -18.292   4.017  1.00  0.00     0.086 A 
HETATM   23  C   UNL     1      43.425 -18.785   2.753  1.00  0.00     0.000 A 
HETATM   24  C   UNL     1      44.103 -19.080   5.094  1.00  0.00     0.038 A 
HETATM   25  C   UNL     1      43.070 -17.653   1.977  1.00  0.00     0.051 A 
HETATM   26  C   UNL     1      43.540 -20.168   2.528  1.00  0.00     0.014 A 
HETATM   27  C   UNL     1      43.934 -20.991   3.593  1.00  0.00     0.001 A 
HETATM   28  C   UNL     1      44.212 -20.454   4.853  1.00  0.00     0.003 A 
ENDBRANCH  19  20
ENDBRANCH   2  18
TORSDOF 5
ENDMDL
MODEL 9
REMARK VINA RESULT:      -7.6      6.201     10.323
REMARK  5 active torsions:
REMARK  status: ('A' for Active; 'I' for Inactive)
REMARK    1  A    between atoms: C_2  and  O_3 
REMARK    2  A    between atoms: O_3  and  C_4 
REMARK    3  A    between atoms: C_5  and  N_6 
REMARK       I    between atoms: N_6  and  C_7 
REMARK    4  A    between atoms: C_7  and  C_8 
REMARK    5  A    between atoms: C_9  and  C_10 
ROOT
HETATM    1  N   UNL     1      41.816 -15.071   2.131  1.00  0.00    -0.321 N 
HETATM    2  C   UNL     1      40.717 -15.161   1.303  1.00  0.00     0.245 C 
HETATM    3  O   UNL     1      39.753 -15.906   1.402  1.00  0.00    -0.268 OA
HETATM    4  H   UNL     1      42.357 -14.220   2.067  1.00  0.00     0.169 HD
ENDROOT
BRANCH   1   5
HETATM    5  C   UNL     1      42.191 -15.940   3.185  1.00  0.00     0.071 A 
HETATM    6  C   UNL     1      41.632 -15.956   4.484  1.00  0.00     0.096 A 
HETATM    7  C   UNL     1      42.109 -16.834   5.472  1.00  0.00     0.049 A 
HETATM    8  C   UNL     1      43.077 -17.753   5.121  1.00  0.00    -0.020 A 
HETATM    9  C   UNL     1      43.578 -17.788   3.835  1.00  0.00     0.078 A 
HETATM   10  C   UNL     1      43.763 -18.770   5.947  1.00  0.00     0.073 C 
HETATM   11  C   UNL     1      43.162 -16.901   2.860  1.00  0.00     0.069 A 
HETATM   12  O   UNL     1      44.516 -18.767   3.633  1.00  0.00    -0.345 OA
HETATM   13  C   UNL     1      44.443 -19.583   4.833  1.00  0.00     0.129 C 
HETATM   14  C   UNL     1      43.689 -20.869   4.498  1.00  0.00     0.040 C 
BRANCH   6  15
HETATM   15  O   UNL     1      40.589 -15.138   4.822  1.00  0.00    -0.349 OA
BRANCH  15  16
HETATM   16  C   UNL     1      40.854 -14.377   6.004  1.00  0.00     0.171 C 
HETATM   17  C   UNL     1      41.597 -13.110   5.621  1.00  0.00     0.034 C 
ENDBRANCH  15  16
ENDBRANCH   6  15
ENDBRANCH   1   5
BRANCH   2  18
HETATM   18  C   UNL     1      40.769 -14.137   0.222  1.00  0.00     0.077 C 
HETATM   19  C   UNL     1      41.060 -12.864   0.530  1.00  0.00     0.043 C 
BRANCH  19  20
HETATM   20  C   UNL     1      41.085 -11.861  -0.477  1.00  0.00     0.077 A 
HETATM   21  O   UNL     1      41.646 -10.611  -0.309  1.00  0.00    -0.310 OA
HETATM   22  C   UNL     1      41.501  -9.917  -1.467  1.00  0.00     0.086 A 
HETATM   23  C   UNL     1      40.849 -10.689  -2.413  1.00  0.00     0.000 A 
HETATM   24  C   UNL     1      41.942  -8.614  -1.689  1.00  0.00     0.038 A 
HETATM   25  C   UNL     1      40.583 -11.925  -1.773  1.00  0.00     0.051 A 
HETATM   26  C   UNL     1      40.613 -10.140  -3.686  1.00  0.00     0.014 A 
HETATM   27  C   UNL     1      41.047  -8.831  -3.943  1.00  0.00     0.001 A 
HETATM   28  C   UNL     1      41.698  -8.082  -2.960  1.00  0.00     0.003 A 
ENDBRANCH  19  20
ENDBRANCH   2  18
TORSDOF 5
ENDMDL
MODEL 10
REMARK VINA RESULT:      -7.5     19.373     21.291
REMARK  5 active torsions:
REMARK  status: ('A' for Active; 'I' for Inactive)
REMARK    1  A    between atoms: C_2  and  O_3 
REMARK    2  A    between atoms: O_3  and  C_4 
REMARK    3  A    between atoms: C_5  and  N_6 
REMARK       I    between atoms: N_6  and  C_7 
REMARK    4  A    between atoms: C_7  and  C_8 
REMARK    5  A    between atoms: C_9  and  C_10 
ROOT
HETATM    1  N   UNL     1      48.343 -29.621   1.828  1.00  0.00    -0.321 N 
HETATM    2  C   UNL     1      48.547 -28.758   2.885  1.00  0.00     0.245 C 
HETATM    3  O   UNL     1      48.228 -27.582   2.975  1.00  0.00    -0.268 OA
HETATM    4  H   UNL     1      48.405 -30.608   2.038  1.00  0.00     0.169 HD
ENDROOT
BRANCH   1   5
HETATM    5  C   UNL     1      47.885 -29.313   0.524  1.00  0.00     0.071 A 
HETATM    6  C   UNL     1      48.680 -29.276  -0.645  1.00  0.00     0.096 A 
HETATM    7  C   UNL     1      48.133 -28.915  -1.888  1.00  0.00     0.049 A 
HETATM    8  C   UNL     1      46.774 -28.686  -1.965  1.00  0.00    -0.020 A 
HETATM    9  C   UNL     1      45.980 -28.788  -0.839  1.00  0.00     0.078 A 
HETATM   10  C   UNL     1      45.944 -28.281  -3.120  1.00  0.00     0.073 C 
HETATM   11  C   UNL     1      46.503 -29.091   0.404  1.00  0.00     0.069 A 
HETATM   12  O   UNL     1      44.651 -28.555  -1.077  1.00  0.00    -0.345 OA
HETATM   13  C   UNL     1      44.547 -28.528  -2.526  1.00  0.00     0.129 C 
HETATM   14  C   UNL     1      43.933 -29.847  -2.992  1.00  0.00     0.040 C 
BRANCH   6  15
HETATM   15  O   UNL     1      50.005 -29.616  -0.618  1.00  0.00    -0.349 OA
BRANCH  15  16
HETATM   16  C   UNL     1      50.218 -31.002  -0.903  1.00  0.00     0.171 C 
HETATM   17  C   UNL     1      51.412 -31.495  -0.106  1.00  0.00     0.034 C 
ENDBRANCH  15  16
ENDBRANCH   6  15
ENDBRANCH   1   5
BRANCH   2  18
HETATM   18  C   UNL     1      49.183 -29.457   4.038  1.00  0.00     0.077 C 
HETATM   19  C   UNL     1      50.168 -30.338   3.816  1.00  0.00     0.043 C 
BRANCH  19  20
HETATM   20  C   UNL     1      50.771 -31.043   4.894  1.00  0.00     0.077 A 
HETATM   21  O   UNL     1      51.970 -30.688   5.475  1.00  0.00    -0.310 OA
HETATM   22  C   UNL     1      52.241 -31.567   6.474  1.00  0.00     0.086 A 
HETATM   23  C   UNL     1      51.231 -32.510   6.571  1.00  0.00     0.000 A 
HETATM   24  C   UNL     1      53.366 -31.538   7.295  1.00  0.00     0.038 A 
HETATM   25  C   UNL     1      50.301 -32.171   5.557  1.00  0.00     0.051 A 
HETATM   26  C   UNL     1      51.331 -33.506   7.559  1.00  0.00     0.014 A 
HETATM   27  C   UNL     1      52.450 -33.503   8.404  1.00  0.00     0.001 A 
HETATM   28  C   UNL     1      53.450 -32.536   8.271  1.00  0.00     0.003 A 
ENDBRANCH  19  20
ENDBRANCH   2  18
TORSDOF 5
ENDMDL
