MODEL 1
REMARK VINA RESULT:      -8.9      0.000      0.000
REMARK  5 active torsions:
REMARK  status: ('A' for Active; 'I' for Inactive)
REMARK    1  A    between atoms: C_9  and  C_10 
REMARK       I    between atoms: C_10  and  N_11 
REMARK    2  A    between atoms: N_11  and  C_12 
REMARK    3  A    between atoms: C_12  and  C_13 
REMARK    4  A    between atoms: C_15  and  O_16 
REMARK    5  A    between atoms: O_16  and  C_17 
ROOT
HETATM    1  C   UNL     1      43.105 -15.374   5.295  1.00  0.00     0.273 C 
HETATM    2  N   UNL     1      42.917 -14.438   6.287  1.00  0.00    -0.351 N 
HETATM    3  O   UNL     1      43.146 -15.096   4.100  1.00  0.00    -0.266 OA
HETATM    4  H   UNL     1      42.842 -14.810   7.229  1.00  0.00     0.163 HD
ENDROOT
BRANCH   2   5
HETATM    5  C   UNL     1      42.723 -13.040   6.022  1.00  0.00     0.161 C 
BRANCH   5   6
HETATM    6  C   UNL     1      43.885 -12.218   6.499  1.00  0.00    -0.035 A 
HETATM    7  C   UNL     1      44.013 -11.886   7.851  1.00  0.00     0.066 A 
HETATM    8  C   UNL     1      45.086 -11.104   8.250  1.00  0.00     0.164 A 
HETATM    9  N   UNL     1      46.042 -10.660   7.408  1.00  0.00    -0.237 NA
HETATM   10  C   UNL     1      45.919 -11.016   6.112  1.00  0.00     0.120 A 
HETATM   11  C   UNL     1      44.875 -11.782   5.615  1.00  0.00     0.028 A 
BRANCH   8  12
HETATM   12  O   UNL     1      45.142 -10.787   9.592  1.00  0.00    -0.329 OA
BRANCH  12  13
HETATM   13  C   UNL     1      43.908 -10.340  10.151  1.00  0.00     0.130 C 
HETATM   14  C   UNL     1      43.698 -10.874  11.569  1.00  0.00     0.032 C 
HETATM   15  C   UNL     1      42.882  -9.790  12.247  1.00  0.00     0.002 C 
HETATM   16  C   UNL     1      43.544  -8.513  11.756  1.00  0.00     0.002 C 
HETATM   17  C   UNL     1      43.962  -8.810  10.317  1.00  0.00     0.032 C 
ENDBRANCH  12  13
ENDBRANCH   8  12
ENDBRANCH   5   6
ENDBRANCH   2   5
BRANCH   1  18
HETATM   18  C   UNL     1      43.263 -16.742   5.818  1.00  0.00     0.157 A 
HETATM   19  C   UNL     1      43.472 -17.937   5.070  1.00  0.00     0.029 A 
HETATM   20  C   UNL     1      43.583 -18.276   3.706  1.00  0.00     0.023 A 
HETATM   21  C   UNL     1      43.582 -18.945   6.019  1.00  0.00     0.063 A 
HETATM   22  C   UNL     1      43.795 -19.616   3.339  1.00  0.00    -0.061 A 
HETATM   23  C   UNL     1      43.917 -19.998   1.892  1.00  0.00     0.048 C 
HETATM   24  C   UNL     1      43.910 -20.598   4.331  1.00  0.00     0.009 A 
HETATM   25  C   UNL     1      43.805 -20.284   5.690  1.00  0.00     0.032 A 
HETATM   26  N   UNL     1      43.429 -18.321   7.226  1.00  0.00    -0.277 N 
HETATM   27  H   UNL     1      43.453 -18.750   8.144  1.00  0.00     0.189 HD
HETATM   28  N   UNL     1      43.229 -16.993   7.147  1.00  0.00    -0.168 NA
ENDBRANCH   1  18
TORSDOF 5
ENDMDL
MODEL 2
REMARK VINA RESULT:      -8.8      1.711      2.225
REMARK  5 active torsions:
REMARK  status: ('A' for Active; 'I' for Inactive)
REMARK    1  A    between atoms: C_9  and  C_10 
REMARK       I    between atoms: C_10  and  N_11 
REMARK    2  A    between atoms: N_11  and  C_12 
REMARK    3  A    between atoms: C_12  and  C_13 
REMARK    4  A    between atoms: C_15  and  O_16 
REMARK    5  A    between atoms: O_16  and  C_17 
ROOT
HETATM    1  C   UNL     1      43.153 -14.759   6.579  1.00  0.00     0.273 C 
HETATM    2  N   UNL     1      43.082 -13.570   5.890  1.00  0.00    -0.351 N 
HETATM    3  O   UNL     1      42.933 -14.859   7.783  1.00  0.00    -0.266 OA
HETATM    4  H   UNL     1      43.346 -13.616   4.911  1.00  0.00     0.163 HD
ENDROOT
BRANCH   2   5
HETATM    5  C   UNL     1      42.770 -12.316   6.517  1.00  0.00     0.161 C 
BRANCH   5   6
HETATM    6  C   UNL     1      44.001 -11.642   7.054  1.00  0.00    -0.035 A 
HETATM    7  C   UNL     1      44.004 -11.087   8.337  1.00  0.00     0.066 A 
HETATM    8  C   UNL     1      45.150 -10.451   8.788  1.00  0.00     0.164 A 
HETATM    9  N   UNL     1      46.286 -10.356   8.067  1.00  0.00    -0.237 NA
HETATM   10  C   UNL     1      46.274 -10.925   6.842  1.00  0.00     0.120 A 
HETATM   11  C   UNL     1      45.173 -11.569   6.298  1.00  0.00     0.028 A 
BRANCH   8  12
HETATM   12  O   UNL     1      45.083  -9.900  10.051  1.00  0.00    -0.329 OA
BRANCH  12  13
HETATM   13  C   UNL     1      43.769  -9.827  10.600  1.00  0.00     0.130 C 
HETATM   14  C   UNL     1      43.596 -10.769  11.793  1.00  0.00     0.032 C 
HETATM   15  C   UNL     1      42.578 -10.063  12.668  1.00  0.00     0.002 C 
HETATM   16  C   UNL     1      43.028  -8.613  12.607  1.00  0.00     0.002 C 
HETATM   17  C   UNL     1      43.550  -8.419  11.184  1.00  0.00     0.032 C 
ENDBRANCH  12  13
ENDBRANCH   8  12
ENDBRANCH   5   6
ENDBRANCH   2   5
BRANCH   1  18
HETATM   18  C   UNL     1      43.506 -15.901   5.719  1.00  0.00     0.157 A 
HETATM   19  C   UNL     1      42.889 -16.286   4.492  1.00  0.00     0.029 A 
HETATM   20  C   UNL     1      41.821 -15.816   3.701  1.00  0.00     0.023 A 
HETATM   21  C   UNL     1      43.598 -17.400   4.064  1.00  0.00     0.063 A 
HETATM   22  C   UNL     1      41.496 -16.484   2.508  1.00  0.00    -0.061 A 
HETATM   23  C   UNL     1      40.363 -16.000   1.650  1.00  0.00     0.048 C 
HETATM   24  C   UNL     1      42.245 -17.599   2.109  1.00  0.00     0.009 A 
HETATM   25  C   UNL     1      43.309 -18.081   2.878  1.00  0.00     0.032 A 
HETATM   26  N   UNL     1      44.549 -17.613   5.023  1.00  0.00    -0.277 N 
HETATM   27  H   UNL     1      45.248 -18.346   5.038  1.00  0.00     0.189 HD
HETATM   28  N   UNL     1      44.522 -16.734   6.041  1.00  0.00    -0.168 NA
ENDBRANCH   1  18
TORSDOF 5
ENDMDL
MODEL 3
REMARK VINA RESULT:      -8.8      2.116      9.136
REMARK  5 active torsions:
REMARK  status: ('A' for Active; 'I' for Inactive)
REMARK    1  A    between atoms: C_9  and  C_10 
REMARK       I    between atoms: C_10  and  N_11 
REMARK    2  A    between atoms: N_11  and  C_12 
REMARK    3  A    between atoms: C_12  and  C_13 
REMARK    4  A    between atoms: C_15  and  O_16 
REMARK    5  A    between atoms: O_16  and  C_17 
ROOT
HETATM    1  C   UNL     1      43.783 -13.043   6.703  1.00  0.00     0.273 C 
HETATM    2  N   UNL     1      42.890 -12.765   5.693  1.00  0.00    -0.351 N 
HETATM    3  O   UNL     1      43.851 -14.132   7.266  1.00  0.00    -0.266 OA
HETATM    4  H   UNL     1      42.897 -11.807   5.356  1.00  0.00     0.163 HD
ENDROOT
BRANCH   2   5
HETATM    5  C   UNL     1      41.927 -13.715   5.212  1.00  0.00     0.161 C 
BRANCH   5   6
HETATM    6  C   UNL     1      42.427 -14.449   4.001  1.00  0.00    -0.035 A 
HETATM    7  C   UNL     1      42.238 -15.828   3.878  1.00  0.00     0.066 A 
HETATM    8  C   UNL     1      42.736 -16.474   2.757  1.00  0.00     0.164 A 
HETATM    9  N   UNL     1      43.377 -15.843   1.752  1.00  0.00    -0.237 NA
HETATM   10  C   UNL     1      43.523 -14.507   1.873  1.00  0.00     0.120 A 
HETATM   11  C   UNL     1      43.073 -13.775   2.962  1.00  0.00     0.028 A 
BRANCH   8  12
HETATM   12  O   UNL     1      42.542 -17.840   2.707  1.00  0.00    -0.329 OA
BRANCH  12  13
HETATM   13  C   UNL     1      43.699 -18.618   3.006  1.00  0.00     0.130 C 
HETATM   14  C   UNL     1      43.911 -18.768   4.514  1.00  0.00     0.032 C 
HETATM   15  C   UNL     1      44.581 -20.122   4.652  1.00  0.00     0.002 C 
HETATM   16  C   UNL     1      43.806 -20.983   3.669  1.00  0.00     0.002 C 
HETATM   17  C   UNL     1      43.476 -20.055   2.501  1.00  0.00     0.032 C 
ENDBRANCH  12  13
ENDBRANCH   8  12
ENDBRANCH   5   6
ENDBRANCH   2   5
BRANCH   1  18
HETATM   18  C   UNL     1      44.656 -11.902   7.029  1.00  0.00     0.157 A 
HETATM   19  C   UNL     1      44.579 -11.050   8.170  1.00  0.00     0.029 A 
HETATM   20  C   UNL     1      43.746 -10.941   9.302  1.00  0.00     0.023 A 
HETATM   21  C   UNL     1      45.630 -10.155   8.025  1.00  0.00     0.063 A 
HETATM   22  C   UNL     1      43.992  -9.932  10.249  1.00  0.00    -0.061 A 
HETATM   23  C   UNL     1      43.118  -9.798  11.462  1.00  0.00     0.048 C 
HETATM   24  C   UNL     1      45.071  -9.056  10.068  1.00  0.00     0.009 A 
HETATM   25  C   UNL     1      45.911  -9.148   8.953  1.00  0.00     0.032 A 
HETATM   26  N   UNL     1      46.241 -10.502   6.853  1.00  0.00    -0.277 N 
HETATM   27  H   UNL     1      47.050 -10.062   6.430  1.00  0.00     0.189 HD
HETATM   28  N   UNL     1      45.679 -11.548   6.219  1.00  0.00    -0.168 NA
ENDBRANCH   1  18
TORSDOF 5
ENDMDL
MODEL 4
REMARK VINA RESULT:      -8.7      1.834      2.422
REMARK  5 active torsions:
REMARK  status: ('A' for Active; 'I' for Inactive)
REMARK    1  A    between atoms: C_9  and  C_10 
REMARK       I    between atoms: C_10  and  N_11 
REMARK    2  A    between atoms: N_11  and  C_12 
REMARK    3  A    between atoms: C_12  and  C_13 
REMARK    4  A    between atoms: C_15  and  O_16 
REMARK    5  A    between atoms: O_16  and  C_17 
ROOT
HETATM    1  C   UNL     1      42.517 -14.078   5.229  1.00  0.00     0.273 C 
HETATM    2  N   UNL     1      42.623 -12.723   5.011  1.00  0.00    -0.351 N 
HETATM    3  O   UNL     1      42.267 -14.570   6.325  1.00  0.00    -0.266 OA
HETATM    4  H   UNL     1      42.894 -12.451   4.071  1.00  0.00     0.163 HD
ENDROOT
BRANCH   2   5
HETATM    5  C   UNL     1      42.480 -11.746   6.053  1.00  0.00     0.161 C 
BRANCH   5   6
HETATM    6  C   UNL     1      43.802 -11.400   6.677  1.00  0.00    -0.035 A 
HETATM    7  C   UNL     1      43.886 -11.089   8.038  1.00  0.00     0.066 A 
HETATM    8  C   UNL     1      45.119 -10.751   8.572  1.00  0.00     0.164 A 
HETATM    9  N   UNL     1      46.264 -10.730   7.858  1.00  0.00    -0.237 NA
HETATM   10  C   UNL     1      46.169 -11.064   6.554  1.00  0.00     0.120 A 
HETATM   11  C   UNL     1      44.979 -11.401   5.926  1.00  0.00     0.028 A 
BRANCH   8  12
HETATM   12  O   UNL     1      45.133 -10.426   9.913  1.00  0.00    -0.329 OA
BRANCH  12  13
HETATM   13  C   UNL     1      43.848 -10.172  10.478  1.00  0.00     0.130 C 
HETATM   14  C   UNL     1      43.623 -10.970  11.765  1.00  0.00     0.032 C 
HETATM   15  C   UNL     1      42.702 -10.084  12.582  1.00  0.00     0.002 C 
HETATM   16  C   UNL     1      43.285  -8.698  12.364  1.00  0.00     0.002 C 
HETATM   17  C   UNL     1      43.780  -8.699  10.919  1.00  0.00     0.032 C 
ENDBRANCH  12  13
ENDBRANCH   8  12
ENDBRANCH   5   6
ENDBRANCH   2   5
BRANCH   1  18
HETATM   18  C   UNL     1      42.721 -14.874   4.006  1.00  0.00     0.157 A 
HETATM   19  C   UNL     1      43.098 -16.246   3.919  1.00  0.00     0.029 A 
HETATM   20  C   UNL     1      43.407 -17.275   4.831  1.00  0.00     0.023 A 
HETATM   21  C   UNL     1      43.131 -16.527   2.559  1.00  0.00     0.063 A 
HETATM   22  C   UNL     1      43.746 -18.551   4.349  1.00  0.00    -0.061 A 
HETATM   23  C   UNL     1      44.079 -19.661   5.303  1.00  0.00     0.048 C 
HETATM   24  C   UNL     1      43.758 -18.792   2.968  1.00  0.00     0.009 A 
HETATM   25  C   UNL     1      43.452 -17.786   2.045  1.00  0.00     0.032 A 
HETATM   26  N   UNL     1      42.797 -15.354   1.941  1.00  0.00    -0.277 N 
HETATM   27  H   UNL     1      42.722 -15.187   0.944  1.00  0.00     0.189 HD
HETATM   28  N   UNL     1      42.548 -14.331   2.779  1.00  0.00    -0.168 NA
ENDBRANCH   1  18
TORSDOF 5
ENDMDL
MODEL 5
REMARK VINA RESULT:      -8.6      3.221      5.819
REMARK  5 active torsions:
REMARK  status: ('A' for Active; 'I' for Inactive)
REMARK    1  A    between atoms: C_9  and  C_10 
REMARK       I    between atoms: C_10  and  N_11 
REMARK    2  A    between atoms: N_11  and  C_12 
REMARK    3  A    between atoms: C_12  and  C_13 
REMARK    4  A    between atoms: C_15  and  O_16 
REMARK    5  A    between atoms: O_16  and  C_17 
ROOT
HETATM    1  C   UNL     1      43.267 -15.711   7.075  1.00  0.00     0.273 C 
HETATM    2  N   UNL     1      43.664 -14.633   6.317  1.00  0.00    -0.351 N 
HETATM    3  O   UNL     1      42.824 -15.611   8.215  1.00  0.00    -0.266 OA
HETATM    4  H   UNL     1      44.069 -14.859   5.414  1.00  0.00     0.163 HD
ENDROOT
BRANCH   2   5
HETATM    5  C   UNL     1      43.625 -13.279   6.795  1.00  0.00     0.161 C 
BRANCH   5   6
HETATM    6  C   UNL     1      42.840 -12.387   5.876  1.00  0.00    -0.035 A 
HETATM    7  C   UNL     1      41.870 -12.924   5.024  1.00  0.00     0.066 A 
HETATM    8  C   UNL     1      41.184 -12.072   4.172  1.00  0.00     0.164 A 
HETATM    9  N   UNL     1      41.377 -10.738   4.132  1.00  0.00    -0.237 NA
HETATM   10  C   UNL     1      42.295 -10.234   4.984  1.00  0.00     0.120 A 
HETATM   11  C   UNL     1      43.042 -11.005   5.861  1.00  0.00     0.028 A 
BRANCH   8  12
HETATM   12  O   UNL     1      40.259 -12.665   3.336  1.00  0.00    -0.329 OA
BRANCH  12  13
HETATM   13  C   UNL     1      40.737 -13.812   2.636  1.00  0.00     0.130 C 
HETATM   14  C   UNL     1      39.738 -14.970   2.689  1.00  0.00     0.032 C 
HETATM   15  C   UNL     1      39.969 -15.707   1.384  1.00  0.00     0.002 C 
HETATM   16  C   UNL     1      40.124 -14.577   0.381  1.00  0.00     0.002 C 
HETATM   17  C   UNL     1      40.853 -13.469   1.140  1.00  0.00     0.032 C 
ENDBRANCH  12  13
ENDBRANCH   8  12
ENDBRANCH   5   6
ENDBRANCH   2   5
BRANCH   1  18
HETATM   18  C   UNL     1      43.418 -16.995   6.370  1.00  0.00     0.157 A 
HETATM   19  C   UNL     1      43.460 -17.211   4.961  1.00  0.00     0.029 A 
HETATM   20  C   UNL     1      43.371 -16.406   3.807  1.00  0.00     0.023 A 
HETATM   21  C   UNL     1      43.640 -18.579   4.809  1.00  0.00     0.063 A 
HETATM   22  C   UNL     1      43.458 -17.002   2.538  1.00  0.00    -0.061 A 
HETATM   23  C   UNL     1      43.366 -16.164   1.296  1.00  0.00     0.048 C 
HETATM   24  C   UNL     1      43.650 -18.386   2.431  1.00  0.00     0.009 A 
HETATM   25  C   UNL     1      43.743 -19.203   3.563  1.00  0.00     0.032 A 
HETATM   26  N   UNL     1      43.683 -19.081   6.080  1.00  0.00    -0.277 N 
HETATM   27  H   UNL     1      43.804 -20.049   6.352  1.00  0.00     0.189 HD
HETATM   28  N   UNL     1      43.547 -18.158   7.050  1.00  0.00    -0.168 NA
ENDBRANCH   1  18
TORSDOF 5
ENDMDL
MODEL 6
REMARK VINA RESULT:      -8.5      4.416      8.488
REMARK  5 active torsions:
REMARK  status: ('A' for Active; 'I' for Inactive)
REMARK    1  A    between atoms: C_9  and  C_10 
REMARK       I    between atoms: C_10  and  N_11 
REMARK    2  A    between atoms: N_11  and  C_12 
REMARK    3  A    between atoms: C_12  and  C_13 
REMARK    4  A    between atoms: C_15  and  O_16 
REMARK    5  A    between atoms: O_16  and  C_17 
ROOT
HETATM    1  C   UNL     1      40.667 -14.146   3.487  1.00  0.00     0.273 C 
HETATM    2  N   UNL     1      40.366 -15.145   4.384  1.00  0.00    -0.351 N 
HETATM    3  O   UNL     1      41.191 -13.084   3.808  1.00  0.00    -0.266 OA
HETATM    4  H   UNL     1      39.878 -15.948   3.997  1.00  0.00     0.163 HD
ENDROOT
BRANCH   2   5
HETATM    5  C   UNL     1      40.610 -15.035   5.795  1.00  0.00     0.161 C 
BRANCH   5   6
HETATM    6  C   UNL     1      41.899 -15.700   6.189  1.00  0.00    -0.035 A 
HETATM    7  C   UNL     1      42.594 -16.499   5.276  1.00  0.00     0.066 A 
HETATM    8  C   UNL     1      43.766 -17.116   5.684  1.00  0.00     0.164 A 
HETATM    9  N   UNL     1      44.299 -16.971   6.914  1.00  0.00    -0.237 NA
HETATM   10  C   UNL     1      43.631 -16.172   7.772  1.00  0.00     0.120 A 
HETATM   11  C   UNL     1      42.444 -15.524   7.462  1.00  0.00     0.028 A 
BRANCH   8  12
HETATM   12  O   UNL     1      44.391 -17.913   4.746  1.00  0.00    -0.329 OA
BRANCH  12  13
HETATM   13  C   UNL     1      43.536 -18.850   4.095  1.00  0.00     0.130 C 
HETATM   14  C   UNL     1      43.693 -18.803   2.573  1.00  0.00     0.032 C 
HETATM   15  C   UNL     1      43.398 -20.225   2.136  1.00  0.00     0.002 C 
HETATM   16  C   UNL     1      44.121 -21.057   3.182  1.00  0.00     0.002 C 
HETATM   17  C   UNL     1      43.970 -20.275   4.485  1.00  0.00     0.032 C 
ENDBRANCH  12  13
ENDBRANCH   8  12
ENDBRANCH   5   6
ENDBRANCH   2   5
BRANCH   1  18
HETATM   18  C   UNL     1      40.305 -14.490   2.101  1.00  0.00     0.157 A 
HETATM   19  C   UNL     1      40.443 -13.672   0.941  1.00  0.00     0.029 A 
HETATM   20  C   UNL     1      40.901 -12.368   0.666  1.00  0.00     0.023 A 
HETATM   21  C   UNL     1      39.989 -14.457  -0.111  1.00  0.00     0.063 A 
HETATM   22  C   UNL     1      40.882 -11.891  -0.656  1.00  0.00    -0.061 A 
HETATM   23  C   UNL     1      41.366 -10.505  -0.971  1.00  0.00     0.048 C 
HETATM   24  C   UNL     1      40.425 -12.721  -1.688  1.00  0.00     0.009 A 
HETATM   25  C   UNL     1      39.968 -14.019  -1.438  1.00  0.00     0.032 A 
HETATM   26  N   UNL     1      39.614 -15.642   0.458  1.00  0.00    -0.277 N 
HETATM   27  H   UNL     1      39.233 -16.454  -0.013  1.00  0.00     0.189 HD
HETATM   28  N   UNL     1      39.783 -15.699   1.792  1.00  0.00    -0.168 NA
ENDBRANCH   1  18
TORSDOF 5
ENDMDL
MODEL 7
REMARK VINA RESULT:      -8.5      2.795      3.691
REMARK  5 active torsions:
REMARK  status: ('A' for Active; 'I' for Inactive)
REMARK    1  A    between atoms: C_9  and  C_10 
REMARK       I    between atoms: C_10  and  N_11 
REMARK    2  A    between atoms: N_11  and  C_12 
REMARK    3  A    between atoms: C_12  and  C_13 
REMARK    4  A    between atoms: C_15  and  O_16 
REMARK    5  A    between atoms: O_16  and  C_17 
ROOT
HETATM    1  C   UNL     1      40.255 -12.495   5.367  1.00  0.00     0.273 C 
HETATM    2  N   UNL     1      41.230 -11.540   5.187  1.00  0.00    -0.351 N 
HETATM    3  O   UNL     1      39.560 -12.571   6.375  1.00  0.00    -0.266 OA
HETATM    4  H   UNL     1      41.773 -11.625   4.333  1.00  0.00     0.163 HD
ENDROOT
BRANCH   2   5
HETATM    5  C   UNL     1      41.552 -10.550   6.176  1.00  0.00     0.161 C 
BRANCH   5   6
HETATM    6  C   UNL     1      42.904 -10.793   6.785  1.00  0.00    -0.035 A 
HETATM    7  C   UNL     1      43.176 -10.388   8.095  1.00  0.00     0.066 A 
HETATM    8  C   UNL     1      44.443 -10.607   8.614  1.00  0.00     0.164 A 
HETATM    9  N   UNL     1      45.435 -11.218   7.934  1.00  0.00    -0.237 NA
HETATM   10  C   UNL     1      45.144 -11.631   6.682  1.00  0.00     0.120 A 
HETATM   11  C   UNL     1      43.913 -11.444   6.072  1.00  0.00     0.028 A 
BRANCH   8  12
HETATM   12  O   UNL     1      44.658 -10.159   9.902  1.00  0.00    -0.329 OA
BRANCH  12  13
HETATM   13  C   UNL     1      43.476  -9.803  10.615  1.00  0.00     0.130 C 
HETATM   14  C   UNL     1      43.296 -10.647  11.879  1.00  0.00     0.032 C 
HETATM   15  C   UNL     1      42.570  -9.717  12.833  1.00  0.00     0.002 C 
HETATM   16  C   UNL     1      43.280  -8.391  12.618  1.00  0.00     0.002 C 
HETATM   17  C   UNL     1      43.620  -8.360  11.129  1.00  0.00     0.032 C 
ENDBRANCH  12  13
ENDBRANCH   8  12
ENDBRANCH   5   6
ENDBRANCH   2   5
BRANCH   1  18
HETATM   18  C   UNL     1      40.125 -13.406   4.217  1.00  0.00     0.157 A 
HETATM   19  C   UNL     1      40.913 -14.559   3.932  1.00  0.00     0.029 A 
HETATM   20  C   UNL     1      42.007 -15.217   4.531  1.00  0.00     0.023 A 
HETATM   21  C   UNL     1      40.381 -15.082   2.760  1.00  0.00     0.063 A 
HETATM   22  C   UNL     1      42.534 -16.373   3.932  1.00  0.00    -0.061 A 
HETATM   23  C   UNL     1      43.698 -17.089   4.555  1.00  0.00     0.048 C 
HETATM   24  C   UNL     1      41.958 -16.871   2.756  1.00  0.00     0.009 A 
HETATM   25  C   UNL     1      40.872 -16.236   2.145  1.00  0.00     0.032 A 
HETATM   26  N   UNL     1      39.357 -14.241   2.424  1.00  0.00    -0.277 N 
HETATM   27  H   UNL     1      38.742 -14.315   1.621  1.00  0.00     0.189 HD
HETATM   28  N   UNL     1      39.174 -13.214   3.274  1.00  0.00    -0.168 NA
ENDBRANCH   1  18
TORSDOF 5
ENDMDL
MODEL 8
REMARK VINA RESULT:      -8.4      2.033      9.720
REMARK  5 active torsions:
REMARK  status: ('A' for Active; 'I' for Inactive)
REMARK    1  A    between atoms: C_9  and  C_10 
REMARK       I    between atoms: C_10  and  N_11 
REMARK    2  A    between atoms: N_11  and  C_12 
REMARK    3  A    between atoms: C_12  and  C_13 
REMARK    4  A    between atoms: C_15  and  O_16 
REMARK    5  A    between atoms: O_16  and  C_17 
ROOT
HETATM    1  C   UNL     1      44.227 -10.612   8.560  1.00  0.00     0.273 C 
HETATM    2  N   UNL     1      43.741 -11.795   8.050  1.00  0.00    -0.351 N 
HETATM    3  O   UNL     1      44.896  -9.817   7.907  1.00  0.00    -0.266 OA
HETATM    4  H   UNL     1      43.254 -12.390   8.713  1.00  0.00     0.163 HD
ENDROOT
BRANCH   2   5
HETATM    5  C   UNL     1      43.992 -12.232   6.705  1.00  0.00     0.161 C 
BRANCH   5   6
HETATM    6  C   UNL     1      42.881 -13.101   6.187  1.00  0.00    -0.035 A 
HETATM    7  C   UNL     1      43.077 -14.474   6.009  1.00  0.00     0.066 A 
HETATM    8  C   UNL     1      42.036 -15.238   5.506  1.00  0.00     0.164 A 
HETATM    9  N   UNL     1      40.822 -14.739   5.198  1.00  0.00    -0.237 NA
HETATM   10  C   UNL     1      40.641 -13.418   5.406  1.00  0.00     0.120 A 
HETATM   11  C   UNL     1      41.624 -12.569   5.890  1.00  0.00     0.028 A 
BRANCH   8  12
HETATM   12  O   UNL     1      42.300 -16.581   5.327  1.00  0.00    -0.329 OA
BRANCH  12  13
HETATM   13  C   UNL     1      43.262 -16.870   4.314  1.00  0.00     0.130 C 
HETATM   14  C   UNL     1      43.913 -18.240   4.520  1.00  0.00     0.032 C 
HETATM   15  C   UNL     1      44.236 -18.702   3.112  1.00  0.00     0.002 C 
HETATM   16  C   UNL     1      42.994 -18.301   2.333  1.00  0.00     0.002 C 
HETATM   17  C   UNL     1      42.539 -16.984   2.960  1.00  0.00     0.032 C 
ENDBRANCH  12  13
ENDBRANCH   8  12
ENDBRANCH   5   6
ENDBRANCH   2   5
BRANCH   1  18
HETATM   18  C   UNL     1      43.849 -10.396   9.967  1.00  0.00     0.157 A 
HETATM   19  C   UNL     1      43.405  -9.182  10.568  1.00  0.00     0.029 A 
HETATM   20  C   UNL     1      43.185  -7.857  10.140  1.00  0.00     0.023 A 
HETATM   21  C   UNL     1      43.154  -9.505  11.895  1.00  0.00     0.063 A 
HETATM   22  C   UNL     1      42.726  -6.898  11.059  1.00  0.00    -0.061 A 
HETATM   23  C   UNL     1      42.484  -5.481  10.623  1.00  0.00     0.048 C 
HETATM   24  C   UNL     1      42.476  -7.271  12.386  1.00  0.00     0.009 A 
HETATM   25  C   UNL     1      42.685  -8.580  12.832  1.00  0.00     0.032 A 
HETATM   26  N   UNL     1      43.459 -10.833  12.007  1.00  0.00    -0.277 N 
HETATM   27  H   UNL     1      43.394 -11.407  12.839  1.00  0.00     0.189 HD
HETATM   28  N   UNL     1      43.888 -11.405  10.867  1.00  0.00    -0.168 NA
ENDBRANCH   1  18
TORSDOF 5
ENDMDL
MODEL 9
REMARK VINA RESULT:      -8.3      4.527      8.003
REMARK  5 active torsions:
REMARK  status: ('A' for Active; 'I' for Inactive)
REMARK    1  A    between atoms: C_9  and  C_10 
REMARK       I    between atoms: C_10  and  N_11 
REMARK    2  A    between atoms: N_11  and  C_12 
REMARK    3  A    between atoms: C_12  and  C_13 
REMARK    4  A    between atoms: C_15  and  O_16 
REMARK    5  A    between atoms: O_16  and  C_17 
ROOT
HETATM    1  C   UNL     1      41.836 -10.751   2.446  1.00  0.00     0.273 C 
HETATM    2  N   UNL     1      42.950 -11.427   2.890  1.00  0.00    -0.351 N 
HETATM    3  O   UNL     1      41.227  -9.929   3.124  1.00  0.00    -0.266 OA
HETATM    4  H   UNL     1      43.322 -12.124   2.252  1.00  0.00     0.163 HD
ENDROOT
BRANCH   2   5
HETATM    5  C   UNL     1      43.498 -11.258   4.207  1.00  0.00     0.161 C 
BRANCH   5   6
HETATM    6  C   UNL     1      43.370 -12.511   5.027  1.00  0.00    -0.035 A 
HETATM    7  C   UNL     1      42.960 -13.709   4.434  1.00  0.00     0.066 A 
HETATM    8  C   UNL     1      42.830 -14.837   5.228  1.00  0.00     0.164 A 
HETATM    9  N   UNL     1      43.103 -14.859   6.549  1.00  0.00    -0.237 NA
HETATM   10  C   UNL     1      43.527 -13.701   7.097  1.00  0.00     0.120 A 
HETATM   11  C   UNL     1      43.674 -12.517   6.390  1.00  0.00     0.028 A 
BRANCH   8  12
HETATM   12  O   UNL     1      42.396 -15.982   4.591  1.00  0.00    -0.329 OA
BRANCH  12  13
HETATM   13  C   UNL     1      43.400 -16.666   3.843  1.00  0.00     0.130 C 
HETATM   14  C   UNL     1      43.788 -17.995   4.493  1.00  0.00     0.032 C 
HETATM   15  C   UNL     1      44.179 -18.871   3.318  1.00  0.00     0.002 C 
HETATM   16  C   UNL     1      43.113 -18.547   2.286  1.00  0.00     0.002 C 
HETATM   17  C   UNL     1      42.819 -17.059   2.473  1.00  0.00     0.032 C 
ENDBRANCH  12  13
ENDBRANCH   8  12
ENDBRANCH   5   6
ENDBRANCH   2   5
BRANCH   1  18
HETATM   18  C   UNL     1      41.460 -11.109   1.067  1.00  0.00     0.157 A 
HETATM   19  C   UNL     1      40.947 -12.356   0.605  1.00  0.00     0.029 A 
HETATM   20  C   UNL     1      40.640 -13.605   1.181  1.00  0.00     0.023 A 
HETATM   21  C   UNL     1      40.730 -12.177  -0.755  1.00  0.00     0.063 A 
HETATM   22  C   UNL     1      40.132 -14.636   0.373  1.00  0.00    -0.061 A 
HETATM   23  C   UNL     1      39.798 -15.974   0.967  1.00  0.00     0.048 C 
HETATM   24  C   UNL     1      39.919 -14.408  -0.993  1.00  0.00     0.009 A 
HETATM   25  C   UNL     1      40.215 -13.176  -1.586  1.00  0.00     0.032 A 
HETATM   26  N   UNL     1      41.119 -10.893  -1.016  1.00  0.00    -0.277 N 
HETATM   27  H   UNL     1      41.099 -10.417  -1.911  1.00  0.00     0.189 HD
HETATM   28  N   UNL     1      41.571 -10.217   0.056  1.00  0.00    -0.168 NA
ENDBRANCH   1  18
TORSDOF 5
ENDMDL
MODEL 10
REMARK VINA RESULT:      -8.2      2.269      3.290
REMARK  5 active torsions:
REMARK  status: ('A' for Active; 'I' for Inactive)
REMARK    1  A    between atoms: C_9  and  C_10 
REMARK       I    between atoms: C_10  and  N_11 
REMARK    2  A    between atoms: N_11  and  C_12 
REMARK    3  A    between atoms: C_12  and  C_13 
REMARK    4  A    between atoms: C_15  and  O_16 
REMARK    5  A    between atoms: O_16  and  C_17 
ROOT
HETATM    1  C   UNL     1      43.297 -13.735   6.213  1.00  0.00     0.273 C 
HETATM    2  N   UNL     1      43.971 -12.548   6.038  1.00  0.00    -0.351 N 
HETATM    3  O   UNL     1      43.267 -14.346   7.277  1.00  0.00    -0.266 OA
HETATM    4  H   UNL     1      43.966 -12.178   5.092  1.00  0.00     0.163 HD
ENDROOT
BRANCH   2   5
HETATM    5  C   UNL     1      44.732 -11.915   7.078  1.00  0.00     0.161 C 
BRANCH   5   6
HETATM    6  C   UNL     1      43.917 -10.892   7.818  1.00  0.00    -0.035 A 
HETATM    7  C   UNL     1      44.226 -10.560   9.141  1.00  0.00     0.066 A 
HETATM    8  C   UNL     1      43.437  -9.630   9.798  1.00  0.00     0.164 A 
HETATM    9  N   UNL     1      42.391  -8.998   9.227  1.00  0.00    -0.237 NA
HETATM   10  C   UNL     1      42.127  -9.308   7.940  1.00  0.00     0.120 A 
HETATM   11  C   UNL     1      42.849 -10.235   7.203  1.00  0.00     0.028 A 
BRANCH   8  12
HETATM   12  O   UNL     1      43.775  -9.365  11.110  1.00  0.00    -0.329 OA
BRANCH  12  13
HETATM   13  C   UNL     1      42.700  -8.896  11.920  1.00  0.00     0.130 C 
HETATM   14  C   UNL     1      42.400  -9.850  13.079  1.00  0.00     0.032 C 
HETATM   15  C   UNL     1      41.886  -8.936  14.175  1.00  0.00     0.002 C 
HETATM   16  C   UNL     1      42.825  -7.744  14.089  1.00  0.00     0.002 C 
HETATM   17  C   UNL     1      43.125  -7.582  12.600  1.00  0.00     0.032 C 
ENDBRANCH  12  13
ENDBRANCH   8  12
ENDBRANCH   5   6
ENDBRANCH   2   5
BRANCH   1  18
HETATM   18  C   UNL     1      42.606 -14.189   4.994  1.00  0.00     0.157 A 
HETATM   19  C   UNL     1      42.786 -15.424   4.305  1.00  0.00     0.029 A 
HETATM   20  C   UNL     1      43.596 -16.568   4.463  1.00  0.00     0.023 A 
HETATM   21  C   UNL     1      41.892 -15.381   3.242  1.00  0.00     0.063 A 
HETATM   22  C   UNL     1      43.486 -17.627   3.545  1.00  0.00    -0.061 A 
HETATM   23  C   UNL     1      44.339 -18.854   3.695  1.00  0.00     0.048 C 
HETATM   24  C   UNL     1      42.563 -17.544   2.494  1.00  0.00     0.009 A 
HETATM   25  C   UNL     1      41.749 -16.420   2.320  1.00  0.00     0.032 A 
HETATM   26  N   UNL     1      41.266 -14.170   3.349  1.00  0.00    -0.277 N 
HETATM   27  H   UNL     1      40.547 -13.797   2.739  1.00  0.00     0.189 HD
HETATM   28  N   UNL     1      41.673 -13.419   4.388  1.00  0.00    -0.168 NA
ENDBRANCH   1  18
TORSDOF 5
ENDMDL
