MODEL 1
REMARK VINA RESULT:      -9.4      0.000      0.000
REMARK  6 active torsions:
REMARK  status: ('A' for Active; 'I' for Inactive)
REMARK    1  A    between atoms: O_2  and  C_3 
REMARK    2  A    between atoms: C_6  and  C_7 
REMARK    3  A    between atoms: C_13  and  C_14 
REMARK       I    between atoms: C_14  and  N_15 
REMARK    4  A    between atoms: N_15  and  C_16 
REMARK    5  A    between atoms: C_18  and  O_19 
REMARK    6  A    between atoms: C_24  and  C_25 
ROOT
HETATM    1  C   UNL     1      41.916 -15.437   2.740  1.00  0.00     0.118 C 
HETATM    2  N   UNL     1      42.263 -14.158   3.380  1.00  0.00    -0.365 N 
HETATM    3  C   UNL     1      42.068 -12.985   2.709  1.00  0.00     0.138 A 
HETATM    4  N   UNL     1      41.643 -12.982   1.401  1.00  0.00    -0.240 N 
HETATM    5  N   UNL     1      41.508 -11.762   0.865  1.00  0.00    -0.181 NA
HETATM    6  C   UNL     1      41.824 -10.952   1.879  1.00  0.00     0.160 A 
HETATM    7  C   UNL     1      42.216 -11.651   3.050  1.00  0.00     0.096 A 
HETATM    8  C   UNL     1      41.370 -14.170   0.617  1.00  0.00     0.221 C 
HETATM    9  C   UNL     1      42.133 -15.357   1.220  1.00  0.00     0.066 C 
HETATM   10  H   UNL     1      42.058 -14.181   4.382  1.00  0.00     0.161 HD
ENDROOT
BRANCH   7  11
HETATM   11  C   UNL     1      42.680 -11.026   4.279  1.00  0.00     0.261 C 
HETATM   12  N   UNL     1      43.597 -11.783   4.983  1.00  0.00    -0.323 N 
HETATM   13  H   UNL     1      43.867 -12.655   4.545  1.00  0.00     0.169 HD
HETATM   14  O   UNL     1      42.278  -9.911   4.589  1.00  0.00    -0.267 OA
BRANCH  12  15
HETATM   15  C   UNL     1      44.249 -11.450   6.188  1.00  0.00     0.037 A 
HETATM   16  C   UNL     1      43.620 -11.411   7.434  1.00  0.00     0.066 A 
HETATM   17  C   UNL     1      44.343 -11.054   8.572  1.00  0.00     0.067 A 
HETATM   18  C   UNL     1      45.696 -10.744   8.496  1.00  0.00     0.036 A 
HETATM   19  C   UNL     1      46.333 -10.787   7.258  1.00  0.00     0.005 A 
HETATM   20  C   UNL     1      45.613 -11.132   6.110  1.00  0.00     0.029 A 
BRANCH  17  21
HETATM   21  O   UNL     1      43.676 -11.013   9.762  1.00  0.00    -0.361 OA
HETATM   22  H   UNL     1      43.859 -10.165  10.197  1.00  0.00     0.217 HD
ENDBRANCH  17  21
ENDBRANCH  12  15
ENDBRANCH   7  11
BRANCH   1  23
HETATM   23  C   UNL     1      42.754 -16.566   3.316  1.00  0.00    -0.035 A 
HETATM   24  C   UNL     1      43.006 -16.611   4.696  1.00  0.00     0.012 A 
HETATM   25  C   UNL     1      43.689 -17.691   5.268  1.00  0.00     0.037 A 
HETATM   26  C   UNL     1      44.128 -18.744   4.470  1.00  0.00     0.068 A 
HETATM   27  C   UNL     1      43.904 -18.696   3.093  1.00  0.00     0.037 A 
HETATM   28  C   UNL     1      43.216 -17.623   2.519  1.00  0.00     0.012 A 
BRANCH  26  29
HETATM   29  O   UNL     1      44.782 -19.862   4.909  1.00  0.00    -0.356 OA
HETATM   30  C   UNL     1      43.968 -20.936   5.368  1.00  0.00     0.210 C 
ENDBRANCH  26  29
ENDBRANCH   1  23
BRANCH   8  31
HETATM   31  C   UNL     1      39.879 -14.417   0.546  1.00  0.00     0.409 C 
HETATM   32  F   UNL     1      39.219 -13.983   1.642  1.00  0.00    -0.169 F 
HETATM   33  F   UNL     1      39.300 -13.854  -0.534  1.00  0.00    -0.169 F 
HETATM   34  F   UNL     1      39.640 -15.752   0.460  1.00  0.00    -0.169 F 
ENDBRANCH   8  31
TORSDOF 6
ENDMDL
MODEL 2
REMARK VINA RESULT:      -9.3      2.926      5.508
REMARK  6 active torsions:
REMARK  status: ('A' for Active; 'I' for Inactive)
REMARK    1  A    between atoms: O_2  and  C_3 
REMARK    2  A    between atoms: C_6  and  C_7 
REMARK    3  A    between atoms: C_13  and  C_14 
REMARK       I    between atoms: C_14  and  N_15 
REMARK    4  A    between atoms: N_15  and  C_16 
REMARK    5  A    between atoms: C_18  and  O_19 
REMARK    6  A    between atoms: C_24  and  C_25 
ROOT
HETATM    1  C   UNL     1      41.985 -15.096   1.974  1.00  0.00     0.118 C 
HETATM    2  N   UNL     1      42.413 -14.195   3.056  1.00  0.00    -0.365 N 
HETATM    3  C   UNL     1      42.715 -14.702   4.287  1.00  0.00     0.138 A 
HETATM    4  N   UNL     1      42.528 -16.036   4.566  1.00  0.00    -0.240 N 
HETATM    5  N   UNL     1      42.852 -16.391   5.816  1.00  0.00    -0.181 NA
HETATM    6  C   UNL     1      43.295 -15.249   6.348  1.00  0.00     0.160 A 
HETATM    7  C   UNL     1      43.205 -14.148   5.458  1.00  0.00     0.096 A 
HETATM    8  C   UNL     1      42.009 -17.012   3.629  1.00  0.00     0.221 C 
HETATM    9  C   UNL     1      41.200 -16.289   2.545  1.00  0.00     0.066 C 
HETATM   10  H   UNL     1      42.994 -13.434   2.692  1.00  0.00     0.161 HD
ENDROOT
BRANCH   7  11
HETATM   11  C   UNL     1      43.550 -12.773   5.792  1.00  0.00     0.261 C 
HETATM   12  N   UNL     1      44.122 -12.626   7.041  1.00  0.00    -0.323 N 
HETATM   13  H   UNL     1      44.271 -13.486   7.554  1.00  0.00     0.169 HD
HETATM   14  O   UNL     1      43.352 -11.878   4.979  1.00  0.00    -0.267 OA
BRANCH  12  15
HETATM   15  C   UNL     1      44.585 -11.438   7.643  1.00  0.00     0.037 A 
HETATM   16  C   UNL     1      45.771 -10.791   7.289  1.00  0.00     0.066 A 
HETATM   17  C   UNL     1      46.159  -9.627   7.953  1.00  0.00     0.067 A 
HETATM   18  C   UNL     1      45.375  -9.082   8.963  1.00  0.00     0.036 A 
HETATM   19  C   UNL     1      44.187  -9.717   9.318  1.00  0.00     0.005 A 
HETATM   20  C   UNL     1      43.797 -10.890   8.666  1.00  0.00     0.029 A 
BRANCH  17  21
HETATM   21  O   UNL     1      47.336  -9.045   7.581  1.00  0.00    -0.361 OA
HETATM   22  H   UNL     1      47.148  -8.319   6.967  1.00  0.00     0.217 HD
ENDBRANCH  17  21
ENDBRANCH  12  15
ENDBRANCH   7  11
BRANCH   1  23
HETATM   23  C   UNL     1      41.122 -14.352   0.970  1.00  0.00    -0.035 A 
HETATM   24  C   UNL     1      41.316 -12.975   0.772  1.00  0.00     0.012 A 
HETATM   25  C   UNL     1      40.605 -12.283  -0.216  1.00  0.00     0.037 A 
HETATM   26  C   UNL     1      39.692 -12.957  -1.024  1.00  0.00     0.068 A 
HETATM   27  C   UNL     1      39.475 -14.320  -0.818  1.00  0.00     0.037 A 
HETATM   28  C   UNL     1      40.187 -15.015   0.164  1.00  0.00     0.012 A 
BRANCH  26  29
HETATM   29  O   UNL     1      38.957 -12.403  -2.035  1.00  0.00    -0.356 OA
HETATM   30  C   UNL     1      37.693 -12.999  -2.303  1.00  0.00     0.210 C 
ENDBRANCH  26  29
ENDBRANCH   1  23
BRANCH   8  31
HETATM   31  C   UNL     1      43.141 -17.835   3.054  1.00  0.00     0.409 C 
HETATM   32  F   UNL     1      44.250 -17.105   2.802  1.00  0.00    -0.169 F 
HETATM   33  F   UNL     1      43.498 -18.869   3.842  1.00  0.00    -0.169 F 
HETATM   34  F   UNL     1      42.758 -18.371   1.864  1.00  0.00    -0.169 F 
ENDBRANCH   8  31
TORSDOF 6
ENDMDL
MODEL 3
REMARK VINA RESULT:      -9.2      3.471      6.892
REMARK  6 active torsions:
REMARK  status: ('A' for Active; 'I' for Inactive)
REMARK    1  A    between atoms: O_2  and  C_3 
REMARK    2  A    between atoms: C_6  and  C_7 
REMARK    3  A    between atoms: C_13  and  C_14 
REMARK       I    between atoms: C_14  and  N_15 
REMARK    4  A    between atoms: N_15  and  C_16 
REMARK    5  A    between atoms: C_18  and  O_19 
REMARK    6  A    between atoms: C_24  and  C_25 
ROOT
HETATM    1  C   UNL     1      43.068 -14.901   3.985  1.00  0.00     0.118 C 
HETATM    2  N   UNL     1      42.309 -14.266   2.896  1.00  0.00    -0.365 N 
HETATM    3  C   UNL     1      41.598 -13.124   3.135  1.00  0.00     0.138 A 
HETATM    4  N   UNL     1      41.497 -12.609   4.407  1.00  0.00    -0.240 N 
HETATM    5  N   UNL     1      40.759 -11.496   4.496  1.00  0.00    -0.181 NA
HETATM    6  C   UNL     1      40.401 -11.269   3.229  1.00  0.00     0.160 A 
HETATM    7  C   UNL     1      40.864 -12.267   2.332  1.00  0.00     0.096 A 
HETATM    8  C   UNL     1      42.102 -13.194   5.587  1.00  0.00     0.221 C 
HETATM    9  C   UNL     1      42.361 -14.685   5.333  1.00  0.00     0.066 C 
HETATM   10  H   UNL     1      42.806 -14.346   2.005  1.00  0.00     0.161 HD
ENDROOT
BRANCH   7  11
HETATM   11  C   UNL     1      40.565 -12.314   0.909  1.00  0.00     0.261 C 
HETATM   12  N   UNL     1      39.546 -13.186   0.577  1.00  0.00    -0.323 N 
HETATM   13  H   UNL     1      39.103 -13.653   1.359  1.00  0.00     0.169 HD
HETATM   14  O   UNL     1      41.179 -11.595   0.130  1.00  0.00    -0.267 OA
BRANCH  12  15
HETATM   15  C   UNL     1      39.007 -13.439  -0.701  1.00  0.00     0.037 A 
HETATM   16  C   UNL     1      38.123 -12.584  -1.362  1.00  0.00     0.066 A 
HETATM   17  C   UNL     1      37.628 -12.926  -2.621  1.00  0.00     0.067 A 
HETATM   18  C   UNL     1      38.010 -14.107  -3.246  1.00  0.00     0.036 A 
HETATM   19  C   UNL     1      38.897 -14.962  -2.597  1.00  0.00     0.005 A 
HETATM   20  C   UNL     1      39.388 -14.633  -1.330  1.00  0.00     0.029 A 
BRANCH  17  21
HETATM   21  O   UNL     1      36.752 -12.064  -3.214  1.00  0.00    -0.361 OA
HETATM   22  H   UNL     1      37.064 -11.155  -3.079  1.00  0.00     0.217 HD
ENDBRANCH  17  21
ENDBRANCH  12  15
ENDBRANCH   7  11
BRANCH   1  23
HETATM   23  C   UNL     1      43.229 -16.389   3.726  1.00  0.00    -0.035 A 
HETATM   24  C   UNL     1      42.729 -16.946   2.538  1.00  0.00     0.012 A 
HETATM   25  C   UNL     1      42.950 -18.293   2.226  1.00  0.00     0.037 A 
HETATM   26  C   UNL     1      43.676 -19.104   3.096  1.00  0.00     0.068 A 
HETATM   27  C   UNL     1      44.154 -18.565   4.291  1.00  0.00     0.037 A 
HETATM   28  C   UNL     1      43.942 -17.218   4.602  1.00  0.00     0.012 A 
BRANCH  26  29
HETATM   29  O   UNL     1      43.979 -20.422   2.896  1.00  0.00    -0.356 OA
HETATM   30  C   UNL     1      43.970 -21.258   4.048  1.00  0.00     0.210 C 
ENDBRANCH  26  29
ENDBRANCH   1  23
BRANCH   8  31
HETATM   31  C   UNL     1      43.363 -12.442   5.953  1.00  0.00     0.409 C 
HETATM   32  F   UNL     1      44.280 -13.218   6.572  1.00  0.00    -0.169 F 
HETATM   33  F   UNL     1      43.961 -11.863   4.892  1.00  0.00    -0.169 F 
HETATM   34  F   UNL     1      43.062 -11.440   6.820  1.00  0.00    -0.169 F 
ENDBRANCH   8  31
TORSDOF 6
ENDMDL
MODEL 4
REMARK VINA RESULT:      -9.2      1.641      2.152
REMARK  6 active torsions:
REMARK  status: ('A' for Active; 'I' for Inactive)
REMARK    1  A    between atoms: O_2  and  C_3 
REMARK    2  A    between atoms: C_6  and  C_7 
REMARK    3  A    between atoms: C_13  and  C_14 
REMARK       I    between atoms: C_14  and  N_15 
REMARK    4  A    between atoms: N_15  and  C_16 
REMARK    5  A    between atoms: C_18  and  O_19 
REMARK    6  A    between atoms: C_24  and  C_25 
ROOT
HETATM    1  C   UNL     1      42.457 -15.340   3.237  1.00  0.00     0.118 C 
HETATM    2  N   UNL     1      42.830 -14.444   4.343  1.00  0.00    -0.365 N 
HETATM    3  C   UNL     1      42.894 -13.096   4.137  1.00  0.00     0.138 A 
HETATM    4  N   UNL     1      42.713 -12.564   2.882  1.00  0.00    -0.240 N 
HETATM    5  N   UNL     1      42.817 -11.230   2.826  1.00  0.00    -0.181 NA
HETATM    6  C   UNL     1      43.039 -10.891   4.098  1.00  0.00     0.160 A 
HETATM    7  C   UNL     1      43.132 -12.011   4.965  1.00  0.00     0.096 A 
HETATM    8  C   UNL     1      42.449 -13.338   1.685  1.00  0.00     0.221 C 
HETATM    9  C   UNL     1      42.949 -14.773   1.894  1.00  0.00     0.066 C 
HETATM   10  H   UNL     1      42.448 -14.779   5.232  1.00  0.00     0.161 HD
ENDROOT
BRANCH   7  11
HETATM   11  C   UNL     1      43.438 -11.944   6.386  1.00  0.00     0.261 C 
HETATM   12  N   UNL     1      43.539 -10.657   6.879  1.00  0.00    -0.323 N 
HETATM   13  H   UNL     1      43.350  -9.920   6.210  1.00  0.00     0.169 HD
HETATM   14  O   UNL     1      43.552 -12.975   7.037  1.00  0.00    -0.267 OA
BRANCH  12  15
HETATM   15  C   UNL     1      43.798 -10.258   8.206  1.00  0.00     0.037 A 
HETATM   16  C   UNL     1      42.841  -9.705   9.059  1.00  0.00     0.066 A 
HETATM   17  C   UNL     1      43.193  -9.324  10.354  1.00  0.00     0.067 A 
HETATM   18  C   UNL     1      44.489  -9.496  10.825  1.00  0.00     0.036 A 
HETATM   19  C   UNL     1      45.449 -10.053   9.984  1.00  0.00     0.005 A 
HETATM   20  C   UNL     1      45.107 -10.427   8.680  1.00  0.00     0.029 A 
BRANCH  17  21
HETATM   21  O   UNL     1      42.224  -8.771  11.139  1.00  0.00    -0.361 OA
HETATM   22  H   UNL     1      42.515  -7.890  11.425  1.00  0.00     0.217 HD
ENDBRANCH  17  21
ENDBRANCH  12  15
ENDBRANCH   7  11
BRANCH   1  23
HETATM   23  C   UNL     1      43.042 -16.725   3.451  1.00  0.00    -0.035 A 
HETATM   24  C   UNL     1      43.497 -17.098   4.726  1.00  0.00     0.012 A 
HETATM   25  C   UNL     1      43.948 -18.400   4.977  1.00  0.00     0.037 A 
HETATM   26  C   UNL     1      43.949 -19.349   3.957  1.00  0.00     0.068 A 
HETATM   27  C   UNL     1      43.523 -18.980   2.681  1.00  0.00     0.037 A 
HETATM   28  C   UNL     1      43.065 -17.683   2.428  1.00  0.00     0.012 A 
BRANCH  26  29
HETATM   29  O   UNL     1      44.340 -20.654   4.079  1.00  0.00    -0.356 OA
HETATM   30  C   UNL     1      43.949 -21.327   5.271  1.00  0.00     0.210 C 
ENDBRANCH  26  29
ENDBRANCH   1  23
BRANCH   8  31
HETATM   31  C   UNL     1      40.976 -13.283   1.343  1.00  0.00     0.409 C 
HETATM   32  F   UNL     1      40.535 -14.401   0.726  1.00  0.00    -0.169 F 
HETATM   33  F   UNL     1      40.191 -13.069   2.418  1.00  0.00    -0.169 F 
HETATM   34  F   UNL     1      40.744 -12.255   0.485  1.00  0.00    -0.169 F 
ENDBRANCH   8  31
TORSDOF 6
ENDMDL
MODEL 5
REMARK VINA RESULT:      -9.2      3.237      7.307
REMARK  6 active torsions:
REMARK  status: ('A' for Active; 'I' for Inactive)
REMARK    1  A    between atoms: O_2  and  C_3 
REMARK    2  A    between atoms: C_6  and  C_7 
REMARK    3  A    between atoms: C_13  and  C_14 
REMARK       I    between atoms: C_14  and  N_15 
REMARK    4  A    between atoms: N_15  and  C_16 
REMARK    5  A    between atoms: C_18  and  O_19 
REMARK    6  A    between atoms: C_24  and  C_25 
ROOT
HETATM    1  C   UNL     1      40.901 -12.662   2.408  1.00  0.00     0.118 C 
HETATM    2  N   UNL     1      41.433 -13.867   3.064  1.00  0.00    -0.365 N 
HETATM    3  C   UNL     1      42.286 -13.745   4.124  1.00  0.00     0.138 A 
HETATM    4  N   UNL     1      42.738 -12.511   4.528  1.00  0.00    -0.240 N 
HETATM    5  N   UNL     1      43.579 -12.544   5.570  1.00  0.00    -0.181 NA
HETATM    6  C   UNL     1      43.641 -13.844   5.866  1.00  0.00     0.160 A 
HETATM    7  C   UNL     1      42.883 -14.654   4.981  1.00  0.00     0.096 A 
HETATM    8  C   UNL     1      42.382 -11.253   3.902  1.00  0.00     0.221 C 
HETATM    9  C   UNL     1      41.929 -11.519   2.461  1.00  0.00     0.066 C 
HETATM   10  H   UNL     1      40.730 -14.610   3.094  1.00  0.00     0.161 HD
ENDROOT
BRANCH   7  11
HETATM   11  C   UNL     1      42.824 -16.108   5.023  1.00  0.00     0.261 C 
HETATM   12  N   UNL     1      43.440 -16.726   3.951  1.00  0.00    -0.323 N 
HETATM   13  H   UNL     1      43.890 -16.103   3.291  1.00  0.00     0.169 HD
HETATM   14  O   UNL     1      42.290 -16.672   5.970  1.00  0.00    -0.267 OA
BRANCH  12  15
HETATM   15  C   UNL     1      43.576 -18.108   3.713  1.00  0.00     0.037 A 
HETATM   16  C   UNL     1      44.065 -19.021   4.650  1.00  0.00     0.066 A 
HETATM   17  C   UNL     1      44.181 -20.371   4.320  1.00  0.00     0.067 A 
HETATM   18  C   UNL     1      43.802 -20.838   3.067  1.00  0.00     0.036 A 
HETATM   19  C   UNL     1      43.306 -19.937   2.128  1.00  0.00     0.005 A 
HETATM   20  C   UNL     1      43.198 -18.580   2.447  1.00  0.00     0.029 A 
BRANCH  17  21
HETATM   21  O   UNL     1      44.683 -21.216   5.266  1.00  0.00    -0.361 OA
HETATM   22  H   UNL     1      44.991 -22.027   4.832  1.00  0.00     0.217 HD
ENDBRANCH  17  21
ENDBRANCH  12  15
ENDBRANCH   7  11
BRANCH   1  23
HETATM   23  C   UNL     1      40.541 -12.957   0.962  1.00  0.00    -0.035 A 
HETATM   24  C   UNL     1      40.857 -12.024  -0.039  1.00  0.00     0.012 A 
HETATM   25  C   UNL     1      40.628 -12.311  -1.389  1.00  0.00     0.037 A 
HETATM   26  C   UNL     1      40.082 -13.537  -1.762  1.00  0.00     0.068 A 
HETATM   27  C   UNL     1      39.742 -14.461  -0.773  1.00  0.00     0.037 A 
HETATM   28  C   UNL     1      39.975 -14.180   0.577  1.00  0.00     0.012 A 
BRANCH  26  29
HETATM   29  O   UNL     1      39.834 -13.947  -3.043  1.00  0.00    -0.356 OA
HETATM   30  C   UNL     1      38.555 -14.521  -3.290  1.00  0.00     0.210 C 
ENDBRANCH  26  29
ENDBRANCH   1  23
BRANCH   8  31
HETATM   31  C   UNL     1      41.324 -10.545   4.720  1.00  0.00     0.409 C 
HETATM   32  F   UNL     1      40.497  -9.785   3.969  1.00  0.00    -0.169 F 
HETATM   33  F   UNL     1      40.564 -11.389   5.446  1.00  0.00    -0.169 F 
HETATM   34  F   UNL     1      41.919  -9.703   5.606  1.00  0.00    -0.169 F 
ENDBRANCH   8  31
TORSDOF 6
ENDMDL
MODEL 6
REMARK VINA RESULT:      -8.2      3.323      8.054
REMARK  6 active torsions:
REMARK  status: ('A' for Active; 'I' for Inactive)
REMARK    1  A    between atoms: O_2  and  C_3 
REMARK    2  A    between atoms: C_6  and  C_7 
REMARK    3  A    between atoms: C_13  and  C_14 
REMARK       I    between atoms: C_14  and  N_15 
REMARK    4  A    between atoms: N_15  and  C_16 
REMARK    5  A    between atoms: C_18  and  O_19 
REMARK    6  A    between atoms: C_24  and  C_25 
ROOT
HETATM    1  C   UNL     1      42.762 -13.847   5.981  1.00  0.00     0.118 C 
HETATM    2  N   UNL     1      42.148 -13.730   4.649  1.00  0.00    -0.365 N 
HETATM    3  C   UNL     1      42.131 -14.808   3.809  1.00  0.00     0.138 A 
HETATM    4  N   UNL     1      42.768 -15.978   4.149  1.00  0.00    -0.240 N 
HETATM    5  N   UNL     1      42.680 -16.944   3.226  1.00  0.00    -0.181 NA
HETATM    6  C   UNL     1      41.930 -16.384   2.274  1.00  0.00     0.160 A 
HETATM    7  C   UNL     1      41.580 -15.039   2.560  1.00  0.00     0.096 A 
HETATM    8  C   UNL     1      43.503 -16.193   5.380  1.00  0.00     0.221 C 
HETATM    9  C   UNL     1      43.939 -14.837   5.949  1.00  0.00     0.066 C 
HETATM   10  H   UNL     1      41.323 -13.127   4.676  1.00  0.00     0.161 HD
ENDROOT
BRANCH   7  11
HETATM   11  C   UNL     1      40.831 -14.164   1.670  1.00  0.00     0.261 C 
HETATM   12  N   UNL     1      40.971 -14.472   0.330  1.00  0.00    -0.323 N 
HETATM   13  H   UNL     1      41.539 -15.286   0.129  1.00  0.00     0.169 HD
HETATM   14  O   UNL     1      40.131 -13.272   2.135  1.00  0.00    -0.267 OA
BRANCH  12  15
HETATM   15  C   UNL     1      40.360 -13.836  -0.770  1.00  0.00     0.037 A 
HETATM   16  C   UNL     1      40.719 -12.572  -1.243  1.00  0.00     0.066 A 
HETATM   17  C   UNL     1      40.046 -12.014  -2.330  1.00  0.00     0.067 A 
HETATM   18  C   UNL     1      39.022 -12.703  -2.971  1.00  0.00     0.036 A 
HETATM   19  C   UNL     1      38.663 -13.967  -2.510  1.00  0.00     0.005 A 
HETATM   20  C   UNL     1      39.324 -14.528  -1.414  1.00  0.00     0.029 A 
BRANCH  17  21
HETATM   21  O   UNL     1      40.423 -10.768  -2.739  1.00  0.00    -0.361 OA
HETATM   22  H   UNL     1      40.161 -10.122  -2.065  1.00  0.00     0.217 HD
ENDBRANCH  17  21
ENDBRANCH  12  15
ENDBRANCH   7  11
BRANCH   1  23
HETATM   23  C   UNL     1      43.248 -12.492   6.466  1.00  0.00    -0.035 A 
HETATM   24  C   UNL     1      42.376 -11.391   6.441  1.00  0.00     0.012 A 
HETATM   25  C   UNL     1      42.763 -10.155   6.973  1.00  0.00     0.037 A 
HETATM   26  C   UNL     1      44.026 -10.001   7.540  1.00  0.00     0.068 A 
HETATM   27  C   UNL     1      44.908 -11.082   7.545  1.00  0.00     0.037 A 
HETATM   28  C   UNL     1      44.523 -12.320   7.021  1.00  0.00     0.012 A 
BRANCH  26  29
HETATM   29  O   UNL     1      44.513  -8.858   8.111  1.00  0.00    -0.356 OA
HETATM   30  C   UNL     1      43.790  -8.346   9.225  1.00  0.00     0.210 C 
ENDBRANCH  26  29
ENDBRANCH   1  23
BRANCH   8  31
HETATM   31  C   UNL     1      42.662 -16.987   6.357  1.00  0.00     0.409 C 
HETATM   32  F   UNL     1      42.906 -16.665   7.646  1.00  0.00    -0.169 F 
HETATM   33  F   UNL     1      41.337 -16.857   6.142  1.00  0.00    -0.169 F 
HETATM   34  F   UNL     1      42.945 -18.310   6.232  1.00  0.00    -0.169 F 
ENDBRANCH   8  31
TORSDOF 6
ENDMDL
MODEL 7
REMARK VINA RESULT:      -8.1      3.335      7.457
REMARK  6 active torsions:
REMARK  status: ('A' for Active; 'I' for Inactive)
REMARK    1  A    between atoms: O_2  and  C_3 
REMARK    2  A    between atoms: C_6  and  C_7 
REMARK    3  A    between atoms: C_13  and  C_14 
REMARK       I    between atoms: C_14  and  N_15 
REMARK    4  A    between atoms: N_15  and  C_16 
REMARK    5  A    between atoms: C_18  and  O_19 
REMARK    6  A    between atoms: C_24  and  C_25 
ROOT
HETATM    1  C   UNL     1      39.993 -11.289   2.625  1.00  0.00     0.118 C 
HETATM    2  N   UNL     1      40.279 -12.725   2.772  1.00  0.00    -0.365 N 
HETATM    3  C   UNL     1      40.124 -13.563   1.705  1.00  0.00     0.138 A 
HETATM    4  N   UNL     1      39.608 -13.104   0.515  1.00  0.00    -0.240 N 
HETATM    5  N   UNL     1      39.500 -14.039  -0.438  1.00  0.00    -0.181 NA
HETATM    6  C   UNL     1      39.998 -15.129   0.151  1.00  0.00     0.160 A 
HETATM    7  C   UNL     1      40.375 -14.910   1.501  1.00  0.00     0.096 A 
HETATM    8  C   UNL     1      39.183 -11.741   0.269  1.00  0.00     0.221 C 
HETATM    9  C   UNL     1      38.862 -11.064   1.608  1.00  0.00     0.066 C 
HETATM   10  H   UNL     1      41.075 -12.879   3.395  1.00  0.00     0.161 HD
ENDROOT
BRANCH   7  11
HETATM   11  C   UNL     1      40.880 -15.934   2.404  1.00  0.00     0.261 C 
HETATM   12  N   UNL     1      42.094 -16.472   2.021  1.00  0.00    -0.323 N 
HETATM   13  H   UNL     1      42.504 -16.067   1.189  1.00  0.00     0.169 HD
HETATM   14  O   UNL     1      40.251 -16.223   3.415  1.00  0.00    -0.267 OA
BRANCH  12  15
HETATM   15  C   UNL     1      42.851 -17.456   2.688  1.00  0.00     0.037 A 
HETATM   16  C   UNL     1      42.997 -18.771   2.242  1.00  0.00     0.066 A 
HETATM   17  C   UNL     1      43.754 -19.681   2.979  1.00  0.00     0.067 A 
HETATM   18  C   UNL     1      44.387 -19.301   4.156  1.00  0.00     0.036 A 
HETATM   19  C   UNL     1      44.254 -17.990   4.606  1.00  0.00     0.005 A 
HETATM   20  C   UNL     1      43.487 -17.074   3.880  1.00  0.00     0.029 A 
BRANCH  17  21
HETATM   21  O   UNL     1      43.847 -20.958   2.508  1.00  0.00    -0.361 OA
HETATM   22  H   UNL     1      43.398 -21.011   1.650  1.00  0.00     0.217 HD
ENDBRANCH  17  21
ENDBRANCH  12  15
ENDBRANCH   7  11
BRANCH   1  23
HETATM   23  C   UNL     1      39.604 -10.683   3.962  1.00  0.00    -0.035 A 
HETATM   24  C   UNL     1      40.299 -11.055   5.124  1.00  0.00     0.012 A 
HETATM   25  C   UNL     1      40.030 -10.441   6.352  1.00  0.00     0.037 A 
HETATM   26  C   UNL     1      39.063  -9.442   6.439  1.00  0.00     0.068 A 
HETATM   27  C   UNL     1      38.349  -9.083   5.295  1.00  0.00     0.037 A 
HETATM   28  C   UNL     1      38.620  -9.690   4.065  1.00  0.00     0.012 A 
BRANCH  26  29
HETATM   29  O   UNL     1      38.725  -8.751   7.570  1.00  0.00    -0.356 OA
HETATM   30  C   UNL     1      39.470  -9.051   8.745  1.00  0.00     0.210 C 
ENDBRANCH  26  29
ENDBRANCH   1  23
BRANCH   8  31
HETATM   31  C   UNL     1      40.243 -10.998  -0.515  1.00  0.00     0.409 C 
HETATM   32  F   UNL     1      40.271  -9.675  -0.243  1.00  0.00    -0.169 F 
HETATM   33  F   UNL     1      41.485 -11.486  -0.320  1.00  0.00    -0.169 F 
HETATM   34  F   UNL     1      39.989 -11.110  -1.846  1.00  0.00    -0.169 F 
ENDBRANCH   8  31
TORSDOF 6
ENDMDL
MODEL 8
REMARK VINA RESULT:      -8.0     16.209     19.630
REMARK  6 active torsions:
REMARK  status: ('A' for Active; 'I' for Inactive)
REMARK    1  A    between atoms: O_2  and  C_3 
REMARK    2  A    between atoms: C_6  and  C_7 
REMARK    3  A    between atoms: C_13  and  C_14 
REMARK       I    between atoms: C_14  and  N_15 
REMARK    4  A    between atoms: N_15  and  C_16 
REMARK    5  A    between atoms: C_18  and  O_19 
REMARK    6  A    between atoms: C_24  and  C_25 
ROOT
HETATM    1  C   UNL     1      48.937 -29.781  -0.537  1.00  0.00     0.118 C 
HETATM    2  N   UNL     1      47.975 -29.844  -1.649  1.00  0.00    -0.365 N 
HETATM    3  C   UNL     1      46.634 -29.813  -1.393  1.00  0.00     0.138 A 
HETATM    4  N   UNL     1      46.161 -29.825  -0.101  1.00  0.00    -0.240 N 
HETATM    5  N   UNL     1      44.826 -29.806  -0.001  1.00  0.00    -0.181 NA
HETATM    6  C   UNL     1      44.429 -29.745  -1.275  1.00  0.00     0.160 A 
HETATM    7  C   UNL     1      45.507 -29.780  -2.197  1.00  0.00     0.096 A 
HETATM    8  C   UNL     1      46.994 -29.874   1.084  1.00  0.00     0.221 C 
HETATM    9  C   UNL     1      48.361 -30.463   0.715  1.00  0.00     0.066 C 
HETATM   10  H   UNL     1      48.322 -29.333  -2.465  1.00  0.00     0.161 HD
ENDROOT
BRANCH   7  11
HETATM   11  C   UNL     1      45.366 -29.800  -3.645  1.00  0.00     0.261 C 
HETATM   12  N   UNL     1      45.449 -31.062  -4.201  1.00  0.00    -0.323 N 
HETATM   13  H   UNL     1      45.555 -31.821  -3.539  1.00  0.00     0.169 HD
HETATM   14  O   UNL     1      45.162 -28.757  -4.254  1.00  0.00    -0.267 OA
BRANCH  12  15
HETATM   15  C   UNL     1      45.329 -31.417  -5.560  1.00  0.00     0.037 A 
HETATM   16  C   UNL     1      44.136 -31.353  -6.284  1.00  0.00     0.066 A 
HETATM   17  C   UNL     1      44.109 -31.741  -7.624  1.00  0.00     0.067 A 
HETATM   18  C   UNL     1      45.259 -32.183  -8.266  1.00  0.00     0.036 A 
HETATM   19  C   UNL     1      46.454 -32.244  -7.554  1.00  0.00     0.005 A 
HETATM   20  C   UNL     1      46.488 -31.868  -6.208  1.00  0.00     0.029 A 
BRANCH  17  21
HETATM   21  O   UNL     1      42.914 -31.677  -8.279  1.00  0.00    -0.361 OA
HETATM   22  H   UNL     1      42.791 -32.493  -8.790  1.00  0.00     0.217 HD
ENDBRANCH  17  21
ENDBRANCH  12  15
ENDBRANCH   7  11
BRANCH   1  23
HETATM   23  C   UNL     1      50.246 -30.447  -0.924  1.00  0.00    -0.035 A 
HETATM   24  C   UNL     1      50.894 -31.292  -0.009  1.00  0.00     0.012 A 
HETATM   25  C   UNL     1      52.047 -31.997  -0.373  1.00  0.00     0.037 A 
HETATM   26  C   UNL     1      52.569 -31.871  -1.658  1.00  0.00     0.068 A 
HETATM   27  C   UNL     1      51.946 -31.014  -2.566  1.00  0.00     0.037 A 
HETATM   28  C   UNL     1      50.790 -30.314  -2.209  1.00  0.00     0.012 A 
BRANCH  26  29
HETATM   29  O   UNL     1      53.671 -32.521  -2.142  1.00  0.00    -0.356 OA
HETATM   30  C   UNL     1      54.495 -33.176  -1.184  1.00  0.00     0.210 C 
ENDBRANCH  26  29
ENDBRANCH   1  23
BRANCH   8  31
HETATM   31  C   UNL     1      47.105 -28.496   1.699  1.00  0.00     0.409 C 
HETATM   32  F   UNL     1      47.236 -27.515   0.778  1.00  0.00    -0.169 F 
HETATM   33  F   UNL     1      46.059 -28.183   2.489  1.00  0.00    -0.169 F 
HETATM   34  F   UNL     1      48.213 -28.434   2.484  1.00  0.00    -0.169 F 
ENDBRANCH   8  31
TORSDOF 6
ENDMDL
MODEL 9
REMARK VINA RESULT:      -7.9     16.824     19.253
REMARK  6 active torsions:
REMARK  status: ('A' for Active; 'I' for Inactive)
REMARK    1  A    between atoms: O_2  and  C_3 
REMARK    2  A    between atoms: C_6  and  C_7 
REMARK    3  A    between atoms: C_13  and  C_14 
REMARK       I    between atoms: C_14  and  N_15 
REMARK    4  A    between atoms: N_15  and  C_16 
REMARK    5  A    between atoms: C_18  and  O_19 
REMARK    6  A    between atoms: C_24  and  C_25 
ROOT
HETATM    1  C   UNL     1      50.552 -30.775   0.995  1.00  0.00     0.118 C 
HETATM    2  N   UNL     1      49.165 -30.389   0.688  1.00  0.00    -0.365 N 
HETATM    3  C   UNL     1      48.205 -30.466   1.657  1.00  0.00     0.138 A 
HETATM    4  N   UNL     1      48.492 -30.995   2.894  1.00  0.00    -0.240 N 
HETATM    5  N   UNL     1      47.453 -31.021   3.738  1.00  0.00    -0.181 NA
HETATM    6  C   UNL     1      46.473 -30.456   3.028  1.00  0.00     0.160 A 
HETATM    7  C   UNL     1      46.866 -30.116   1.708  1.00  0.00     0.096 A 
HETATM    8  C   UNL     1      49.785 -31.513   3.293  1.00  0.00     0.221 C 
HETATM    9  C   UNL     1      50.579 -31.903   2.040  1.00  0.00     0.066 C 
HETATM   10  H   UNL     1      49.139 -29.593   0.045  1.00  0.00     0.161 HD
ENDROOT
BRANCH   7  11
HETATM   11  C   UNL     1      45.987 -29.554   0.693  1.00  0.00     0.261 C 
HETATM   12  N   UNL     1      46.306 -29.931  -0.598  1.00  0.00    -0.323 N 
HETATM   13  H   UNL     1      47.079 -30.580  -0.682  1.00  0.00     0.169 HD
HETATM   14  O   UNL     1      45.047 -28.842   1.024  1.00  0.00    -0.267 OA
BRANCH  12  15
HETATM   15  C   UNL     1      45.639 -29.580  -1.789  1.00  0.00     0.037 A 
HETATM   16  C   UNL     1      45.895 -28.417  -2.518  1.00  0.00     0.066 A 
HETATM   17  C   UNL     1      45.172 -28.144  -3.679  1.00  0.00     0.067 A 
HETATM   18  C   UNL     1      44.199 -29.022  -4.141  1.00  0.00     0.036 A 
HETATM   19  C   UNL     1      43.942 -30.188  -3.425  1.00  0.00     0.005 A 
HETATM   20  C   UNL     1      44.653 -30.464  -2.254  1.00  0.00     0.029 A 
BRANCH  17  21
HETATM   21  O   UNL     1      45.449 -26.984  -4.341  1.00  0.00    -0.361 OA
HETATM   22  H   UNL     1      44.711 -26.777  -4.936  1.00  0.00     0.217 HD
ENDBRANCH  17  21
ENDBRANCH  12  15
ENDBRANCH   7  11
BRANCH   1  23
HETATM   23  C   UNL     1      51.271 -31.227  -0.264  1.00  0.00    -0.035 A 
HETATM   24  C   UNL     1      51.075 -30.529  -1.466  1.00  0.00     0.012 A 
HETATM   25  C   UNL     1      51.800 -30.860  -2.617  1.00  0.00     0.037 A 
HETATM   26  C   UNL     1      52.733 -31.894  -2.584  1.00  0.00     0.068 A 
HETATM   27  C   UNL     1      52.915 -32.610  -1.401  1.00  0.00     0.037 A 
HETATM   28  C   UNL     1      52.199 -32.278  -0.247  1.00  0.00     0.012 A 
BRANCH  26  29
HETATM   29  O   UNL     1      53.517 -32.297  -3.629  1.00  0.00    -0.356 OA
HETATM   30  C   UNL     1      54.510 -33.275  -3.338  1.00  0.00     0.210 C 
ENDBRANCH  26  29
ENDBRANCH   1  23
BRANCH   8  31
HETATM   31  C   UNL     1      50.512 -30.497   4.146  1.00  0.00     0.409 C 
HETATM   32  F   UNL     1      51.803 -30.330   3.784  1.00  0.00    -0.169 F 
HETATM   33  F   UNL     1      49.922 -29.284   4.143  1.00  0.00    -0.169 F 
HETATM   34  F   UNL     1      50.529 -30.914   5.439  1.00  0.00    -0.169 F 
ENDBRANCH   8  31
TORSDOF 6
ENDMDL
MODEL 10
REMARK VINA RESULT:      -7.9      3.328      6.142
REMARK  6 active torsions:
REMARK  status: ('A' for Active; 'I' for Inactive)
REMARK    1  A    between atoms: O_2  and  C_3 
REMARK    2  A    between atoms: C_6  and  C_7 
REMARK    3  A    between atoms: C_13  and  C_14 
REMARK       I    between atoms: C_14  and  N_15 
REMARK    4  A    between atoms: N_15  and  C_16 
REMARK    5  A    between atoms: C_18  and  O_19 
REMARK    6  A    between atoms: C_24  and  C_25 
ROOT
HETATM    1  C   UNL     1      41.108 -12.310   0.745  1.00  0.00     0.118 C 
HETATM    2  N   UNL     1      41.781 -11.870   1.977  1.00  0.00    -0.365 N 
HETATM    3  C   UNL     1      41.460 -12.447   3.173  1.00  0.00     0.138 A 
HETATM    4  N   UNL     1      40.442 -13.368   3.262  1.00  0.00    -0.240 N 
HETATM    5  N   UNL     1      40.228 -13.839   4.497  1.00  0.00    -0.181 NA
HETATM    6  C   UNL     1      41.167 -13.223   5.221  1.00  0.00     0.160 A 
HETATM    7  C   UNL     1      41.949 -12.314   4.462  1.00  0.00     0.096 A 
HETATM    8  C   UNL     1      39.626 -13.809   2.148  1.00  0.00     0.221 C 
HETATM    9  C   UNL     1      39.664 -12.745   1.044  1.00  0.00     0.066 C 
HETATM   10  H   UNL     1      42.763 -11.643   1.799  1.00  0.00     0.161 HD
ENDROOT
BRANCH   7  11
HETATM   11  C   UNL     1      42.993 -11.457   5.003  1.00  0.00     0.261 C 
HETATM   12  N   UNL     1      42.924 -11.283   6.372  1.00  0.00    -0.323 N 
HETATM   13  H   UNL     1      42.188 -11.800   6.839  1.00  0.00     0.169 HD
HETATM   14  O   UNL     1      43.846 -10.988   4.260  1.00  0.00    -0.267 OA
BRANCH  12  15
HETATM   15  C   UNL     1      43.795 -10.539   7.194  1.00  0.00     0.037 A 
HETATM   16  C   UNL     1      43.567  -9.217   7.583  1.00  0.00     0.066 A 
HETATM   17  C   UNL     1      44.495  -8.554   8.385  1.00  0.00     0.067 A 
HETATM   18  C   UNL     1      45.650  -9.190   8.823  1.00  0.00     0.036 A 
HETATM   19  C   UNL     1      45.883 -10.510   8.446  1.00  0.00     0.005 A 
HETATM   20  C   UNL     1      44.964 -11.179   7.632  1.00  0.00     0.029 A 
BRANCH  17  21
HETATM   21  O   UNL     1      44.233  -7.257   8.720  1.00  0.00    -0.361 OA
HETATM   22  H   UNL     1      44.839  -6.677   8.233  1.00  0.00     0.217 HD
ENDBRANCH  17  21
ENDBRANCH  12  15
ENDBRANCH   7  11
BRANCH   1  23
HETATM   23  C   UNL     1      41.102 -11.196  -0.287  1.00  0.00    -0.035 A 
HETATM   24  C   UNL     1      41.673  -9.952   0.028  1.00  0.00     0.012 A 
HETATM   25  C   UNL     1      41.771  -8.941  -0.934  1.00  0.00     0.037 A 
HETATM   26  C   UNL     1      41.303  -9.157  -2.228  1.00  0.00     0.068 A 
HETATM   27  C   UNL     1      40.711 -10.381  -2.544  1.00  0.00     0.037 A 
HETATM   28  C   UNL     1      40.617 -11.396  -1.587  1.00  0.00     0.012 A 
BRANCH  26  29
HETATM   29  O   UNL     1      41.362  -8.263  -3.261  1.00  0.00    -0.356 OA
HETATM   30  C   UNL     1      40.797  -8.681  -4.498  1.00  0.00     0.210 C 
ENDBRANCH  26  29
ENDBRANCH   1  23
BRANCH   8  31
HETATM   31  C   UNL     1      40.096 -15.163   1.663  1.00  0.00     0.409 C 
HETATM   32  F   UNL     1      41.424 -15.351   1.827  1.00  0.00    -0.169 F 
HETATM   33  F   UNL     1      39.457 -16.190   2.259  1.00  0.00    -0.169 F 
HETATM   34  F   UNL     1      39.855 -15.280   0.331  1.00  0.00    -0.169 F 
ENDBRANCH   8  31
TORSDOF 6
ENDMDL
