MODEL 1
REMARK VINA RESULT:      -9.7      0.000      0.000
REMARK  5 active torsions:
REMARK  status: ('A' for Active; 'I' for Inactive)
REMARK    1  A    between atoms: C_5  and  C_6 
REMARK    2  A    between atoms: C_11  and  C_12 
REMARK       I    between atoms: C_12  and  N_13 
REMARK    3  A    between atoms: N_13  and  C_14 
REMARK    4  A    between atoms: C_16  and  O_17 
REMARK    5  A    between atoms: C_23  and  C_24 
ROOT
HETATM    1  C   UNL     1      43.318 -10.381   7.245  1.00  0.00     0.118 C 
HETATM    2  N   UNL     1      43.908 -11.720   7.241  1.00  0.00    -0.366 N 
HETATM    3  C   UNL     1      43.356 -12.756   6.578  1.00  0.00     0.123 A 
HETATM    4  N   UNL     1      42.302 -12.573   5.732  1.00  0.00    -0.240 N 
HETATM    5  N   UNL     1      41.762 -13.715   5.270  1.00  0.00    -0.165 NA
HETATM    6  C   UNL     1      42.603 -14.666   5.745  1.00  0.00     0.148 A 
HETATM    7  C   UNL     1      43.625 -14.097   6.555  1.00  0.00     0.089 A 
HETATM    8  C   UNL     1      41.727 -11.272   5.452  1.00  0.00     0.221 C 
HETATM    9  C   UNL     1      41.874 -10.386   6.697  1.00  0.00     0.066 C 
HETATM   10  H   UNL     1      44.702 -11.850   7.867  1.00  0.00     0.161 HD
ENDROOT
BRANCH   6  11
HETATM   11  C   UNL     1      42.406 -16.099   5.456  1.00  0.00     0.276 C 
HETATM   12  N   UNL     1      43.410 -16.601   4.652  1.00  0.00    -0.322 N 
HETATM   13  H   UNL     1      44.098 -15.900   4.384  1.00  0.00     0.169 HD
HETATM   14  O   UNL     1      41.433 -16.711   5.883  1.00  0.00    -0.266 OA
BRANCH  12  15
HETATM   15  C   UNL     1      43.565 -17.906   4.158  1.00  0.00     0.037 A 
HETATM   16  C   UNL     1      44.033 -18.975   4.926  1.00  0.00     0.066 A 
HETATM   17  C   UNL     1      44.164 -20.237   4.348  1.00  0.00     0.067 A 
HETATM   18  C   UNL     1      43.827 -20.457   3.018  1.00  0.00     0.036 A 
HETATM   19  C   UNL     1      43.357 -19.396   2.247  1.00  0.00     0.005 A 
HETATM   20  C   UNL     1      43.231 -18.125   2.814  1.00  0.00     0.029 A 
BRANCH  17  21
HETATM   21  O   UNL     1      44.632 -21.299   5.067  1.00  0.00    -0.361 OA
HETATM   22  H   UNL     1      45.422 -21.013   5.554  1.00  0.00     0.217 HD
ENDBRANCH  17  21
ENDBRANCH  12  15
ENDBRANCH   6  11
BRANCH   8  23
HETATM   23  C   UNL     1      42.377 -10.673   4.225  1.00  0.00     0.409 C 
HETATM   24  F   UNL     1      41.765 -11.053   3.083  1.00  0.00    -0.169 F 
HETATM   25  F   UNL     1      42.288  -9.319   4.278  1.00  0.00    -0.169 F 
HETATM   26  F   UNL     1      43.688 -10.968   4.110  1.00  0.00    -0.169 F 
ENDBRANCH   8  23
BRANCH   1  27
HETATM   27  C   UNL     1      43.353  -9.834   8.662  1.00  0.00    -0.035 A 
HETATM   28  C   UNL     1      44.516  -9.935   9.438  1.00  0.00     0.010 A 
HETATM   29  C   UNL     1      44.546  -9.425  10.741  1.00  0.00     0.007 A 
HETATM   30  C   UNL     1      43.416  -8.815  11.296  1.00  0.00    -0.062 A 
HETATM   31  C   UNL     1      43.454  -8.238  12.680  1.00  0.00     0.048 C 
HETATM   32  C   UNL     1      42.257  -8.702  10.522  1.00  0.00     0.007 A 
HETATM   33  C   UNL     1      42.224  -9.213   9.224  1.00  0.00     0.010 A 
ENDBRANCH   1  27
TORSDOF 5
ENDMDL
MODEL 2
REMARK VINA RESULT:      -9.4      2.905      9.135
REMARK  5 active torsions:
REMARK  status: ('A' for Active; 'I' for Inactive)
REMARK    1  A    between atoms: C_5  and  C_6 
REMARK    2  A    between atoms: C_11  and  C_12 
REMARK       I    between atoms: C_12  and  N_13 
REMARK    3  A    between atoms: N_13  and  C_14 
REMARK    4  A    between atoms: C_16  and  O_17 
REMARK    5  A    between atoms: C_23  and  C_24 
ROOT
HETATM    1  C   UNL     1      42.458 -15.295   3.351  1.00  0.00     0.118 C 
HETATM    2  N   UNL     1      42.372 -14.875   4.749  1.00  0.00    -0.366 N 
HETATM    3  C   UNL     1      42.855 -13.695   5.186  1.00  0.00     0.123 A 
HETATM    4  N   UNL     1      43.305 -12.748   4.312  1.00  0.00    -0.240 N 
HETATM    5  N   UNL     1      43.902 -11.696   4.900  1.00  0.00    -0.165 NA
HETATM    6  C   UNL     1      43.700 -11.926   6.221  1.00  0.00     0.148 A 
HETATM    7  C   UNL     1      43.031 -13.164   6.435  1.00  0.00     0.089 A 
HETATM    8  C   UNL     1      43.263 -12.914   2.873  1.00  0.00     0.221 C 
HETATM    9  C   UNL     1      43.426 -14.404   2.541  1.00  0.00     0.066 C 
HETATM   10  H   UNL     1      42.025 -15.581   5.398  1.00  0.00     0.161 HD
ENDROOT
BRANCH   6  11
HETATM   11  C   UNL     1      44.176 -10.993   7.258  1.00  0.00     0.276 C 
HETATM   12  N   UNL     1      43.184 -10.695   8.171  1.00  0.00    -0.322 N 
HETATM   13  H   UNL     1      42.297 -11.151   7.965  1.00  0.00     0.169 HD
HETATM   14  O   UNL     1      45.318 -10.546   7.245  1.00  0.00    -0.266 OA
BRANCH  12  15
HETATM   15  C   UNL     1      43.248  -9.845   9.287  1.00  0.00     0.037 A 
HETATM   16  C   UNL     1      43.001  -8.472   9.231  1.00  0.00     0.066 A 
HETATM   17  C   UNL     1      43.098  -7.703  10.391  1.00  0.00     0.067 A 
HETATM   18  C   UNL     1      43.428  -8.282  11.610  1.00  0.00     0.036 A 
HETATM   19  C   UNL     1      43.673  -9.651  11.674  1.00  0.00     0.005 A 
HETATM   20  C   UNL     1      43.588 -10.429  10.516  1.00  0.00     0.029 A 
BRANCH  17  21
HETATM   21  O   UNL     1      42.877  -6.357  10.367  1.00  0.00    -0.361 OA
HETATM   22  H   UNL     1      43.728  -5.905  10.490  1.00  0.00     0.217 HD
ENDBRANCH  17  21
ENDBRANCH  12  15
ENDBRANCH   6  11
BRANCH   8  23
HETATM   23  C   UNL     1      41.984 -12.326   2.322  1.00  0.00     0.409 C 
HETATM   24  F   UNL     1      41.001 -12.278   3.247  1.00  0.00    -0.169 F 
HETATM   25  F   UNL     1      42.204 -11.045   1.927  1.00  0.00    -0.169 F 
HETATM   26  F   UNL     1      41.507 -12.984   1.245  1.00  0.00    -0.169 F 
ENDBRANCH   8  23
BRANCH   1  27
HETATM   27  C   UNL     1      42.896 -16.748   3.302  1.00  0.00    -0.035 A 
HETATM   28  C   UNL     1      43.623 -17.311   4.359  1.00  0.00     0.010 A 
HETATM   29  C   UNL     1      44.020 -18.652   4.313  1.00  0.00     0.007 A 
HETATM   30  C   UNL     1      43.707 -19.453   3.210  1.00  0.00    -0.062 A 
HETATM   31  C   UNL     1      44.102 -20.899   3.170  1.00  0.00     0.048 C 
HETATM   32  C   UNL     1      42.972 -18.898   2.157  1.00  0.00     0.007 A 
HETATM   33  C   UNL     1      42.578 -17.561   2.200  1.00  0.00     0.010 A 
ENDBRANCH   1  27
TORSDOF 5
ENDMDL
MODEL 3
REMARK VINA RESULT:      -9.3      4.732      9.306
REMARK  5 active torsions:
REMARK  status: ('A' for Active; 'I' for Inactive)
REMARK    1  A    between atoms: C_5  and  C_6 
REMARK    2  A    between atoms: C_11  and  C_12 
REMARK       I    between atoms: C_12  and  N_13 
REMARK    3  A    between atoms: N_13  and  C_14 
REMARK    4  A    between atoms: C_16  and  O_17 
REMARK    5  A    between atoms: C_23  and  C_24 
ROOT
HETATM    1  C   UNL     1      41.198 -14.960   0.820  1.00  0.00     0.118 C 
HETATM    2  N   UNL     1      42.057 -13.942   1.424  1.00  0.00    -0.366 N 
HETATM    3  C   UNL     1      42.408 -13.965   2.725  1.00  0.00     0.123 A 
HETATM    4  N   UNL     1      42.117 -15.038   3.518  1.00  0.00    -0.240 N 
HETATM    5  N   UNL     1      42.386 -14.848   4.822  1.00  0.00    -0.165 NA
HETATM    6  C   UNL     1      43.004 -13.641   4.835  1.00  0.00     0.148 A 
HETATM    7  C   UNL     1      43.050 -13.068   3.534  1.00  0.00     0.089 A 
HETATM    8  C   UNL     1      41.456 -16.230   3.025  1.00  0.00     0.221 C 
HETATM    9  C   UNL     1      40.505 -15.836   1.886  1.00  0.00     0.066 C 
HETATM   10  H   UNL     1      42.281 -13.147   0.826  1.00  0.00     0.161 HD
ENDROOT
BRANCH   6  11
HETATM   11  C   UNL     1      43.506 -13.035   6.082  1.00  0.00     0.276 C 
HETATM   12  N   UNL     1      43.906 -11.727   5.890  1.00  0.00    -0.322 N 
HETATM   13  H   UNL     1      43.805 -11.414   4.926  1.00  0.00     0.169 HD
HETATM   14  O   UNL     1      43.563 -13.673   7.128  1.00  0.00    -0.266 OA
BRANCH  12  15
HETATM   15  C   UNL     1      44.443 -10.830   6.826  1.00  0.00     0.037 A 
HETATM   16  C   UNL     1      43.670  -9.952   7.590  1.00  0.00     0.066 A 
HETATM   17  C   UNL     1      44.292  -9.088   8.491  1.00  0.00     0.067 A 
HETATM   18  C   UNL     1      45.672  -9.089   8.652  1.00  0.00     0.036 A 
HETATM   19  C   UNL     1      46.448  -9.964   7.896  1.00  0.00     0.005 A 
HETATM   20  C   UNL     1      45.836 -10.827   6.983  1.00  0.00     0.029 A 
BRANCH  17  21
HETATM   21  O   UNL     1      43.567  -8.208   9.241  1.00  0.00    -0.361 OA
HETATM   22  H   UNL     1      43.716  -8.412  10.180  1.00  0.00     0.217 HD
ENDBRANCH  17  21
ENDBRANCH  12  15
ENDBRANCH   6  11
BRANCH   8  23
HETATM   23  C   UNL     1      42.486 -17.253   2.601  1.00  0.00     0.409 C 
HETATM   24  F   UNL     1      43.482 -16.708   1.870  1.00  0.00    -0.169 F 
HETATM   25  F   UNL     1      43.069 -17.795   3.702  1.00  0.00    -0.169 F 
HETATM   26  F   UNL     1      41.969 -18.280   1.896  1.00  0.00    -0.169 F 
ENDBRANCH   8  23
BRANCH   1  27
HETATM   27  C   UNL     1      40.170 -14.273  -0.063  1.00  0.00    -0.035 A 
HETATM   28  C   UNL     1      39.735 -12.972   0.227  1.00  0.00     0.010 A 
HETATM   29  C   UNL     1      38.792 -12.340  -0.590  1.00  0.00     0.007 A 
HETATM   30  C   UNL     1      38.260 -12.996  -1.706  1.00  0.00    -0.062 A 
HETATM   31  C   UNL     1      37.273 -12.310  -2.604  1.00  0.00     0.048 C 
HETATM   32  C   UNL     1      38.699 -14.289  -2.006  1.00  0.00     0.007 A 
HETATM   33  C   UNL     1      39.636 -14.922  -1.189  1.00  0.00     0.010 A 
ENDBRANCH   1  27
TORSDOF 5
ENDMDL
MODEL 4
REMARK VINA RESULT:      -9.0      6.140      8.332
REMARK  5 active torsions:
REMARK  status: ('A' for Active; 'I' for Inactive)
REMARK    1  A    between atoms: C_5  and  C_6 
REMARK    2  A    between atoms: C_11  and  C_12 
REMARK       I    between atoms: C_12  and  N_13 
REMARK    3  A    between atoms: N_13  and  C_14 
REMARK    4  A    between atoms: C_16  and  O_17 
REMARK    5  A    between atoms: C_23  and  C_24 
ROOT
HETATM    1  C   UNL     1      38.309 -11.359  -0.948  1.00  0.00     0.118 C 
HETATM    2  N   UNL     1      38.939 -11.630   0.345  1.00  0.00    -0.366 N 
HETATM    3  C   UNL     1      39.470 -12.829   0.658  1.00  0.00     0.123 A 
HETATM    4  N   UNL     1      39.600 -13.812  -0.279  1.00  0.00    -0.240 N 
HETATM    5  N   UNL     1      39.996 -14.998   0.218  1.00  0.00    -0.165 NA
HETATM    6  C   UNL     1      40.258 -14.714   1.518  1.00  0.00     0.148 A 
HETATM    7  C   UNL     1      39.956 -13.357   1.823  1.00  0.00     0.089 A 
HETATM    8  C   UNL     1      39.223 -13.637  -1.667  1.00  0.00     0.221 C 
HETATM    9  C   UNL     1      38.043 -12.657  -1.742  1.00  0.00     0.066 C 
HETATM   10  H   UNL     1      38.850 -10.889   1.039  1.00  0.00     0.161 HD
ENDROOT
BRANCH   6  11
HETATM   11  C   UNL     1      40.754 -15.737   2.456  1.00  0.00     0.276 C 
HETATM   12  N   UNL     1      41.962 -16.265   2.044  1.00  0.00    -0.322 N 
HETATM   13  H   UNL     1      42.292 -15.875   1.163  1.00  0.00     0.169 HD
HETATM   14  O   UNL     1      40.114 -16.060   3.451  1.00  0.00    -0.266 OA
BRANCH  12  15
HETATM   15  C   UNL     1      42.738 -17.260   2.661  1.00  0.00     0.037 A 
HETATM   16  C   UNL     1      42.878 -18.556   2.160  1.00  0.00     0.066 A 
HETATM   17  C   UNL     1      43.663 -19.482   2.846  1.00  0.00     0.067 A 
HETATM   18  C   UNL     1      44.320 -19.136   4.021  1.00  0.00     0.036 A 
HETATM   19  C   UNL     1      44.188 -17.845   4.524  1.00  0.00     0.005 A 
HETATM   20  C   UNL     1      43.395 -16.912   3.849  1.00  0.00     0.029 A 
BRANCH  17  21
HETATM   21  O   UNL     1      43.809 -20.760   2.390  1.00  0.00    -0.361 OA
HETATM   22  H   UNL     1      44.317 -21.263   3.049  1.00  0.00     0.217 HD
ENDBRANCH  17  21
ENDBRANCH  12  15
ENDBRANCH   6  11
BRANCH   8  23
HETATM   23  C   UNL     1      40.417 -13.181  -2.474  1.00  0.00     0.409 C 
HETATM   24  F   UNL     1      41.071 -14.213  -3.051  1.00  0.00    -0.169 F 
HETATM   25  F   UNL     1      40.003 -12.374  -3.486  1.00  0.00    -0.169 F 
HETATM   26  F   UNL     1      41.313 -12.471  -1.759  1.00  0.00    -0.169 F 
ENDBRANCH   8  23
BRANCH   1  27
HETATM   27  C   UNL     1      37.016 -10.599  -0.712  1.00  0.00    -0.035 A 
HETATM   28  C   UNL     1      36.253 -10.135  -1.793  1.00  0.00     0.010 A 
HETATM   29  C   UNL     1      35.059  -9.439  -1.573  1.00  0.00     0.007 A 
HETATM   30  C   UNL     1      34.609  -9.187  -0.273  1.00  0.00    -0.062 A 
HETATM   31  C   UNL     1      33.313  -8.470  -0.032  1.00  0.00     0.048 C 
HETATM   32  C   UNL     1      35.360  -9.657   0.808  1.00  0.00     0.007 A 
HETATM   33  C   UNL     1      36.553 -10.348   0.591  1.00  0.00     0.010 A 
ENDBRANCH   1  27
TORSDOF 5
ENDMDL
MODEL 5
REMARK VINA RESULT:      -8.5      4.797      6.462
REMARK  5 active torsions:
REMARK  status: ('A' for Active; 'I' for Inactive)
REMARK    1  A    between atoms: C_5  and  C_6 
REMARK    2  A    between atoms: C_11  and  C_12 
REMARK       I    between atoms: C_12  and  N_13 
REMARK    3  A    between atoms: N_13  and  C_14 
REMARK    4  A    between atoms: C_16  and  O_17 
REMARK    5  A    between atoms: C_23  and  C_24 
ROOT
HETATM    1  C   UNL     1      43.068 -13.637   6.784  1.00  0.00     0.118 C 
HETATM    2  N   UNL     1      41.982 -13.194   5.910  1.00  0.00    -0.366 N 
HETATM    3  C   UNL     1      41.602 -13.883   4.815  1.00  0.00     0.123 A 
HETATM    4  N   UNL     1      42.102 -15.125   4.552  1.00  0.00    -0.240 N 
HETATM    5  N   UNL     1      41.754 -15.614   3.348  1.00  0.00    -0.165 NA
HETATM    6  C   UNL     1      40.879 -14.690   2.882  1.00  0.00     0.148 A 
HETATM    7  C   UNL     1      40.747 -13.599   3.786  1.00  0.00     0.089 A 
HETATM    8  C   UNL     1      43.032 -15.807   5.430  1.00  0.00     0.221 C 
HETATM    9  C   UNL     1      43.906 -14.761   6.136  1.00  0.00     0.066 C 
HETATM   10  H   UNL     1      41.603 -12.271   6.117  1.00  0.00     0.161 HD
ENDROOT
BRANCH   6  11
HETATM   11  C   UNL     1      40.213 -14.836   1.575  1.00  0.00     0.276 C 
HETATM   12  N   UNL     1      40.165 -13.638   0.889  1.00  0.00    -0.322 N 
HETATM   13  H   UNL     1      40.577 -12.863   1.405  1.00  0.00     0.169 HD
HETATM   14  O   UNL     1      39.751 -15.910   1.206  1.00  0.00    -0.266 OA
BRANCH  12  15
HETATM   15  C   UNL     1      39.608 -13.373  -0.372  1.00  0.00     0.037 A 
HETATM   16  C   UNL     1      38.587 -12.444  -0.589  1.00  0.00     0.066 A 
HETATM   17  C   UNL     1      38.088 -12.253  -1.877  1.00  0.00     0.067 A 
HETATM   18  C   UNL     1      38.593 -12.967  -2.956  1.00  0.00     0.036 A 
HETATM   19  C   UNL     1      39.613 -13.892  -2.748  1.00  0.00     0.005 A 
HETATM   20  C   UNL     1      40.114 -14.098  -1.459  1.00  0.00     0.029 A 
BRANCH  17  21
HETATM   21  O   UNL     1      37.082 -11.364  -2.120  1.00  0.00    -0.361 OA
HETATM   22  H   UNL     1      37.192 -10.607  -1.521  1.00  0.00     0.217 HD
ENDBRANCH  17  21
ENDBRANCH  12  15
ENDBRANCH   6  11
BRANCH   8  23
HETATM   23  C   UNL     1      42.276 -16.689   6.398  1.00  0.00     0.409 C 
HETATM   24  F   UNL     1      42.511 -16.357   7.686  1.00  0.00    -0.169 F 
HETATM   25  F   UNL     1      40.939 -16.542   6.200  1.00  0.00    -0.169 F 
HETATM   26  F   UNL     1      42.543 -18.003   6.253  1.00  0.00    -0.169 F 
ENDBRANCH   8  23
BRANCH   1  27
HETATM   27  C   UNL     1      43.942 -12.441   7.122  1.00  0.00    -0.035 A 
HETATM   28  C   UNL     1      45.097 -12.167   6.377  1.00  0.00     0.010 A 
HETATM   29  C   UNL     1      45.897 -11.062   6.687  1.00  0.00     0.007 A 
HETATM   30  C   UNL     1      45.565 -10.216   7.751  1.00  0.00    -0.062 A 
HETATM   31  C   UNL     1      46.402  -9.012   8.068  1.00  0.00     0.048 C 
HETATM   32  C   UNL     1      44.408 -10.480   8.491  1.00  0.00     0.007 A 
HETATM   33  C   UNL     1      43.612 -11.583   8.185  1.00  0.00     0.010 A 
ENDBRANCH   1  27
TORSDOF 5
ENDMDL
MODEL 6
REMARK VINA RESULT:      -8.5      5.293      8.914
REMARK  5 active torsions:
REMARK  status: ('A' for Active; 'I' for Inactive)
REMARK    1  A    between atoms: C_5  and  C_6 
REMARK    2  A    between atoms: C_11  and  C_12 
REMARK       I    between atoms: C_12  and  N_13 
REMARK    3  A    between atoms: N_13  and  C_14 
REMARK    4  A    between atoms: C_16  and  O_17 
REMARK    5  A    between atoms: C_23  and  C_24 
ROOT
HETATM    1  C   UNL     1      42.607 -15.411   4.547  1.00  0.00     0.118 C 
HETATM    2  N   UNL     1      42.839 -15.012   3.159  1.00  0.00    -0.366 N 
HETATM    3  C   UNL     1      41.919 -14.350   2.428  1.00  0.00     0.123 A 
HETATM    4  N   UNL     1      40.777 -13.866   2.998  1.00  0.00    -0.240 N 
HETATM    5  N   UNL     1      39.888 -13.374   2.117  1.00  0.00    -0.165 NA
HETATM    6  C   UNL     1      40.560 -13.428   0.941  1.00  0.00     0.148 A 
HETATM    7  C   UNL     1      41.844 -14.019   1.103  1.00  0.00     0.089 A 
HETATM    8  C   UNL     1      40.487 -13.986   4.413  1.00  0.00     0.221 C 
HETATM    9  C   UNL     1      41.119 -15.281   4.942  1.00  0.00     0.066 C 
HETATM   10  H   UNL     1      43.698 -15.366   2.740  1.00  0.00     0.161 HD
ENDROOT
BRANCH   6  11
HETATM   11  C   UNL     1      39.962 -12.955  -0.321  1.00  0.00     0.276 C 
HETATM   12  N   UNL     1      38.675 -12.490  -0.134  1.00  0.00    -0.322 N 
HETATM   13  H   UNL     1      38.355 -12.568   0.829  1.00  0.00     0.169 HD
HETATM   14  O   UNL     1      40.571 -13.018  -1.383  1.00  0.00    -0.266 OA
BRANCH  12  15
HETATM   15  C   UNL     1      37.784 -11.971  -1.088  1.00  0.00     0.037 A 
HETATM   16  C   UNL     1      37.230 -12.728  -2.122  1.00  0.00     0.066 A 
HETATM   17  C   UNL     1      36.360 -12.126  -3.031  1.00  0.00     0.067 A 
HETATM   18  C   UNL     1      36.025 -10.782  -2.922  1.00  0.00     0.036 A 
HETATM   19  C   UNL     1      36.572 -10.022  -1.892  1.00  0.00     0.005 A 
HETATM   20  C   UNL     1      37.452 -10.614  -0.981  1.00  0.00     0.029 A 
BRANCH  17  21
HETATM   21  O   UNL     1      35.812 -12.834  -4.061  1.00  0.00    -0.361 OA
HETATM   22  H   UNL     1      35.109 -13.400  -3.703  1.00  0.00     0.217 HD
ENDBRANCH  17  21
ENDBRANCH  12  15
ENDBRANCH   6  11
BRANCH   8  23
HETATM   23  C   UNL     1      40.969 -12.755   5.146  1.00  0.00     0.409 C 
HETATM   24  F   UNL     1      41.968 -12.125   4.489  1.00  0.00    -0.169 F 
HETATM   25  F   UNL     1      39.953 -11.860   5.252  1.00  0.00    -0.169 F 
HETATM   26  F   UNL     1      41.394 -13.006   6.402  1.00  0.00    -0.169 F 
ENDBRANCH   8  23
BRANCH   1  27
HETATM   27  C   UNL     1      43.090 -16.839   4.733  1.00  0.00    -0.035 A 
HETATM   28  C   UNL     1      43.066 -17.442   5.998  1.00  0.00     0.010 A 
HETATM   29  C   UNL     1      43.506 -18.760   6.166  1.00  0.00     0.007 A 
HETATM   30  C   UNL     1      43.986 -19.496   5.077  1.00  0.00    -0.062 A 
HETATM   31  C   UNL     1      44.429 -20.919   5.245  1.00  0.00     0.048 C 
HETATM   32  C   UNL     1      44.001 -18.903   3.811  1.00  0.00     0.007 A 
HETATM   33  C   UNL     1      43.566 -17.588   3.643  1.00  0.00     0.010 A 
ENDBRANCH   1  27
TORSDOF 5
ENDMDL
MODEL 7
REMARK VINA RESULT:      -8.3      8.573     12.790
REMARK  5 active torsions:
REMARK  status: ('A' for Active; 'I' for Inactive)
REMARK    1  A    between atoms: C_5  and  C_6 
REMARK    2  A    between atoms: C_11  and  C_12 
REMARK       I    between atoms: C_12  and  N_13 
REMARK    3  A    between atoms: N_13  and  C_14 
REMARK    4  A    between atoms: C_16  and  O_17 
REMARK    5  A    between atoms: C_23  and  C_24 
ROOT
HETATM    1  C   UNL     1      41.714  -8.599  11.268  1.00  0.00     0.118 C 
HETATM    2  N   UNL     1      41.972  -9.081  12.625  1.00  0.00    -0.366 N 
HETATM    3  C   UNL     1      41.561  -8.416  13.723  1.00  0.00     0.123 A 
HETATM    4  N   UNL     1      40.732  -7.337  13.628  1.00  0.00    -0.240 N 
HETATM    5  N   UNL     1      40.540  -6.686  14.790  1.00  0.00    -0.165 NA
HETATM    6  C   UNL     1      41.176  -7.474  15.692  1.00  0.00     0.148 A 
HETATM    7  C   UNL     1      41.812  -8.578  15.058  1.00  0.00     0.089 A 
HETATM    8  C   UNL     1      40.204  -6.852  12.368  1.00  0.00     0.221 C 
HETATM    9  C   UNL     1      41.229  -7.133  11.260  1.00  0.00     0.066 C 
HETATM   10  H   UNL     1      42.583  -9.894  12.691  1.00  0.00     0.161 HD
ENDROOT
BRANCH   6  11
HETATM   11  C   UNL     1      41.202  -7.149  17.130  1.00  0.00     0.276 C 
HETATM   12  N   UNL     1      40.971  -8.266  17.909  1.00  0.00    -0.322 N 
HETATM   13  H   UNL     1      40.806  -9.110  17.364  1.00  0.00     0.169 HD
HETATM   14  O   UNL     1      41.383  -6.004  17.526  1.00  0.00    -0.266 OA
BRANCH  12  15
HETATM   15  C   UNL     1      40.910  -8.358  19.309  1.00  0.00     0.037 A 
HETATM   16  C   UNL     1      39.744  -8.152  20.050  1.00  0.00     0.066 A 
HETATM   17  C   UNL     1      39.780  -8.256  21.440  1.00  0.00     0.067 A 
HETATM   18  C   UNL     1      40.957  -8.570  22.107  1.00  0.00     0.036 A 
HETATM   19  C   UNL     1      42.123  -8.781  21.375  1.00  0.00     0.005 A 
HETATM   20  C   UNL     1      42.100  -8.670  19.982  1.00  0.00     0.029 A 
BRANCH  17  21
HETATM   21  O   UNL     1      38.661  -8.046  22.193  1.00  0.00    -0.361 OA
HETATM   22  H   UNL     1      38.089  -7.417  21.723  1.00  0.00     0.217 HD
ENDBRANCH  17  21
ENDBRANCH  12  15
ENDBRANCH   6  11
BRANCH   8  23
HETATM   23  C   UNL     1      38.857  -7.483  12.096  1.00  0.00     0.409 C 
HETATM   24  F   UNL     1      37.834  -6.716  12.531  1.00  0.00    -0.169 F 
HETATM   25  F   UNL     1      38.686  -7.630  10.756  1.00  0.00    -0.169 F 
HETATM   26  F   UNL     1      38.715  -8.710  12.638  1.00  0.00    -0.169 F 
ENDBRANCH   8  23
BRANCH   1  27
HETATM   27  C   UNL     1      42.982  -8.750  10.445  1.00  0.00    -0.035 A 
HETATM   28  C   UNL     1      43.928  -9.733  10.764  1.00  0.00     0.010 A 
HETATM   29  C   UNL     1      45.093  -9.873  10.001  1.00  0.00     0.007 A 
HETATM   30  C   UNL     1      45.338  -9.030   8.912  1.00  0.00    -0.062 A 
HETATM   31  C   UNL     1      46.568  -9.197   8.070  1.00  0.00     0.048 C 
HETATM   32  C   UNL     1      44.391  -8.055   8.582  1.00  0.00     0.007 A 
HETATM   33  C   UNL     1      43.232  -7.912   9.344  1.00  0.00     0.010 A 
ENDBRANCH   1  27
TORSDOF 5
ENDMDL
MODEL 8
REMARK VINA RESULT:      -8.2      4.249      9.254
REMARK  5 active torsions:
REMARK  status: ('A' for Active; 'I' for Inactive)
REMARK    1  A    between atoms: C_5  and  C_6 
REMARK    2  A    between atoms: C_11  and  C_12 
REMARK       I    between atoms: C_12  and  N_13 
REMARK    3  A    between atoms: N_13  and  C_14 
REMARK    4  A    between atoms: C_16  and  O_17 
REMARK    5  A    between atoms: C_23  and  C_24 
ROOT
HETATM    1  C   UNL     1      41.795 -14.426   2.166  1.00  0.00     0.118 C 
HETATM    2  N   UNL     1      42.761 -13.435   2.642  1.00  0.00    -0.366 N 
HETATM    3  C   UNL     1      42.955 -13.179   3.951  1.00  0.00     0.123 A 
HETATM    4  N   UNL     1      42.379 -13.953   4.917  1.00  0.00    -0.240 N 
HETATM    5  N   UNL     1      42.534 -13.480   6.166  1.00  0.00    -0.165 NA
HETATM    6  C   UNL     1      43.365 -12.423   5.994  1.00  0.00     0.148 A 
HETATM    7  C   UNL     1      43.663 -12.217   4.618  1.00  0.00     0.089 A 
HETATM    8  C   UNL     1      41.561 -15.112   4.619  1.00  0.00     0.221 C 
HETATM    9  C   UNL     1      40.834 -14.878   3.287  1.00  0.00     0.066 C 
HETATM   10  H   UNL     1      43.197 -12.866   1.917  1.00  0.00     0.161 HD
ENDROOT
BRANCH   6  11
HETATM   11  C   UNL     1      43.833 -11.605   7.128  1.00  0.00     0.276 C 
HETATM   12  N   UNL     1      42.930 -10.609   7.445  1.00  0.00    -0.322 N 
HETATM   13  H   UNL     1      42.113 -10.599   6.838  1.00  0.00     0.169 HD
HETATM   14  O   UNL     1      44.914 -11.812   7.666  1.00  0.00    -0.266 OA
BRANCH  12  15
HETATM   15  C   UNL     1      43.022  -9.632   8.449  1.00  0.00     0.037 A 
HETATM   16  C   UNL     1      43.138  -9.927   9.810  1.00  0.00     0.066 A 
HETATM   17  C   UNL     1      43.216  -8.890  10.738  1.00  0.00     0.067 A 
HETATM   18  C   UNL     1      43.188  -7.561  10.335  1.00  0.00     0.036 A 
HETATM   19  C   UNL     1      43.075  -7.259   8.980  1.00  0.00     0.005 A 
HETATM   20  C   UNL     1      42.988  -8.291   8.042  1.00  0.00     0.029 A 
BRANCH  17  21
HETATM   21  O   UNL     1      43.315  -9.145  12.076  1.00  0.00    -0.361 OA
HETATM   22  H   UNL     1      44.249  -9.310  12.286  1.00  0.00     0.217 HD
ENDBRANCH  17  21
ENDBRANCH  12  15
ENDBRANCH   6  11
BRANCH   8  23
HETATM   23  C   UNL     1      42.416 -16.359   4.609  1.00  0.00     0.409 C 
HETATM   24  F   UNL     1      43.737 -16.076   4.575  1.00  0.00    -0.169 F 
HETATM   25  F   UNL     1      42.204 -17.066   5.749  1.00  0.00    -0.169 F 
HETATM   26  F   UNL     1      42.145 -17.192   3.584  1.00  0.00    -0.169 F 
ENDBRANCH   8  23
BRANCH   1  27
HETATM   27  C   UNL     1      41.021 -13.834   1.001  1.00  0.00    -0.035 A 
HETATM   28  C   UNL     1      40.236 -14.652   0.176  1.00  0.00     0.010 A 
HETATM   29  C   UNL     1      39.519 -14.103  -0.894  1.00  0.00     0.007 A 
HETATM   30  C   UNL     1      39.579 -12.732  -1.164  1.00  0.00    -0.062 A 
HETATM   31  C   UNL     1      38.788 -12.134  -2.289  1.00  0.00     0.048 C 
HETATM   32  C   UNL     1      40.352 -11.910  -0.338  1.00  0.00     0.007 A 
HETATM   33  C   UNL     1      41.070 -12.456   0.726  1.00  0.00     0.010 A 
ENDBRANCH   1  27
TORSDOF 5
ENDMDL
MODEL 9
REMARK VINA RESULT:      -8.1      4.120      9.218
REMARK  5 active torsions:
REMARK  status: ('A' for Active; 'I' for Inactive)
REMARK    1  A    between atoms: C_5  and  C_6 
REMARK    2  A    between atoms: C_11  and  C_12 
REMARK       I    between atoms: C_12  and  N_13 
REMARK    3  A    between atoms: N_13  and  C_14 
REMARK    4  A    between atoms: C_16  and  O_17 
REMARK    5  A    between atoms: C_23  and  C_24 
ROOT
HETATM    1  C   UNL     1      40.633 -14.462   3.040  1.00  0.00     0.118 C 
HETATM    2  N   UNL     1      40.026 -14.126   4.328  1.00  0.00    -0.366 N 
HETATM    3  C   UNL     1      39.859 -12.855   4.744  1.00  0.00     0.123 A 
HETATM    4  N   UNL     1      40.096 -11.800   3.910  1.00  0.00    -0.240 N 
HETATM    5  N   UNL     1      40.041 -10.599   4.513  1.00  0.00    -0.165 NA
HETATM    6  C   UNL     1      39.616 -10.902   5.764  1.00  0.00     0.148 A 
HETATM    7  C   UNL     1      39.475 -12.307   5.937  1.00  0.00     0.089 A 
HETATM    8  C   UNL     1      40.499 -11.960   2.527  1.00  0.00     0.221 C 
HETATM    9  C   UNL     1      41.331 -13.243   2.398  1.00  0.00     0.066 C 
HETATM   10  H   UNL     1      39.840 -14.917   4.944  1.00  0.00     0.161 HD
ENDROOT
BRANCH   6  11
HETATM   11  C   UNL     1      39.387  -9.862   6.784  1.00  0.00     0.276 C 
HETATM   12  N   UNL     1      40.138 -10.087   7.921  1.00  0.00    -0.322 N 
HETATM   13  H   UNL     1      40.702 -10.933   7.869  1.00  0.00     0.169 HD
HETATM   14  O   UNL     1      38.593  -8.946   6.600  1.00  0.00    -0.266 OA
BRANCH  12  15
HETATM   15  C   UNL     1      40.185  -9.330   9.102  1.00  0.00     0.037 A 
HETATM   16  C   UNL     1      39.478  -9.656  10.261  1.00  0.00     0.066 A 
HETATM   17  C   UNL     1      39.579  -8.839  11.386  1.00  0.00     0.067 A 
HETATM   18  C   UNL     1      40.381  -7.704  11.381  1.00  0.00     0.036 A 
HETATM   19  C   UNL     1      41.091  -7.374  10.230  1.00  0.00     0.005 A 
HETATM   20  C   UNL     1      40.990  -8.181   9.093  1.00  0.00     0.029 A 
BRANCH  17  21
HETATM   21  O   UNL     1      38.890  -9.122  12.530  1.00  0.00    -0.361 OA
HETATM   22  H   UNL     1      38.509  -8.295  12.870  1.00  0.00     0.217 HD
ENDBRANCH  17  21
ENDBRANCH  12  15
ENDBRANCH   6  11
BRANCH   8  23
HETATM   23  C   UNL     1      39.282 -11.956   1.631  1.00  0.00     0.409 C 
HETATM   24  F   UNL     1      38.158 -12.316   2.289  1.00  0.00    -0.169 F 
HETATM   25  F   UNL     1      39.067 -10.700   1.160  1.00  0.00    -0.169 F 
HETATM   26  F   UNL     1      39.403 -12.756   0.551  1.00  0.00    -0.169 F 
ENDBRANCH   8  23
BRANCH   1  27
HETATM   27  C   UNL     1      41.619 -15.599   3.246  1.00  0.00    -0.035 A 
HETATM   28  C   UNL     1      41.732 -16.627   2.299  1.00  0.00     0.010 A 
HETATM   29  C   UNL     1      42.645 -17.670   2.489  1.00  0.00     0.007 A 
HETATM   30  C   UNL     1      43.455 -17.712   3.628  1.00  0.00    -0.062 A 
HETATM   31  C   UNL     1      44.458 -18.811   3.820  1.00  0.00     0.048 C 
HETATM   32  C   UNL     1      43.354 -16.683   4.570  1.00  0.00     0.007 A 
HETATM   33  C   UNL     1      42.442 -15.644   4.384  1.00  0.00     0.010 A 
ENDBRANCH   1  27
TORSDOF 5
ENDMDL
MODEL 10
REMARK VINA RESULT:      -7.9      7.302     11.147
REMARK  5 active torsions:
REMARK  status: ('A' for Active; 'I' for Inactive)
REMARK    1  A    between atoms: C_5  and  C_6 
REMARK    2  A    between atoms: C_11  and  C_12 
REMARK       I    between atoms: C_12  and  N_13 
REMARK    3  A    between atoms: N_13  and  C_14 
REMARK    4  A    between atoms: C_16  and  O_17 
REMARK    5  A    between atoms: C_23  and  C_24 
ROOT
HETATM    1  C   UNL     1      40.331 -14.189   0.812  1.00  0.00     0.118 C 
HETATM    2  N   UNL     1      40.631 -12.794   1.136  1.00  0.00    -0.366 N 
HETATM    3  C   UNL     1      40.881 -11.865   0.191  1.00  0.00     0.123 A 
HETATM    4  N   UNL     1      40.702 -12.138  -1.134  1.00  0.00    -0.240 N 
HETATM    5  N   UNL     1      41.142 -11.172  -1.959  1.00  0.00    -0.165 NA
HETATM    6  C   UNL     1      41.497 -10.178  -1.107  1.00  0.00     0.148 A 
HETATM    7  C   UNL     1      41.329 -10.574   0.249  1.00  0.00     0.089 A 
HETATM    8  C   UNL     1      40.201 -13.408  -1.620  1.00  0.00     0.221 C 
HETATM    9  C   UNL     1      40.652 -14.520  -0.662  1.00  0.00     0.066 C 
HETATM   10  H   UNL     1      40.754 -12.592   2.127  1.00  0.00     0.161 HD
ENDROOT
BRANCH   6  11
HETATM   11  C   UNL     1      42.023  -8.888  -1.589  1.00  0.00     0.276 C 
HETATM   12  N   UNL     1      41.273  -8.389  -2.636  1.00  0.00    -0.322 N 
HETATM   13  H   UNL     1      40.504  -8.999  -2.906  1.00  0.00     0.169 HD
HETATM   14  O   UNL     1      43.026  -8.380  -1.098  1.00  0.00    -0.266 OA
BRANCH  12  15
HETATM   15  C   UNL     1      41.463  -7.201  -3.359  1.00  0.00     0.037 A 
HETATM   16  C   UNL     1      42.441  -7.040  -4.344  1.00  0.00     0.066 A 
HETATM   17  C   UNL     1      42.562  -5.819  -5.006  1.00  0.00     0.067 A 
HETATM   18  C   UNL     1      41.719  -4.754  -4.710  1.00  0.00     0.036 A 
HETATM   19  C   UNL     1      40.740  -4.908  -3.732  1.00  0.00     0.005 A 
HETATM   20  C   UNL     1      40.616  -6.125  -3.055  1.00  0.00     0.029 A 
BRANCH  17  21
HETATM   21  O   UNL     1      43.516  -5.625  -5.962  1.00  0.00    -0.361 OA
HETATM   22  H   UNL     1      44.365  -5.946  -5.617  1.00  0.00     0.217 HD
ENDBRANCH  17  21
ENDBRANCH  12  15
ENDBRANCH   6  11
BRANCH   8  23
HETATM   23  C   UNL     1      38.699 -13.344  -1.779  1.00  0.00     0.409 C 
HETATM   24  F   UNL     1      38.103 -12.678  -0.767  1.00  0.00    -0.169 F 
HETATM   25  F   UNL     1      38.389 -12.671  -2.918  1.00  0.00    -0.169 F 
HETATM   26  F   UNL     1      38.114 -14.555  -1.878  1.00  0.00    -0.169 F 
ENDBRANCH   8  23
BRANCH   1  27
HETATM   27  C   UNL     1      41.118 -15.090   1.748  1.00  0.00    -0.035 A 
HETATM   28  C   UNL     1      40.535 -15.581   2.925  1.00  0.00     0.010 A 
HETATM   29  C   UNL     1      41.260 -16.415   3.782  1.00  0.00     0.007 A 
HETATM   30  C   UNL     1      42.581 -16.767   3.487  1.00  0.00    -0.062 A 
HETATM   31  C   UNL     1      43.352 -17.687   4.387  1.00  0.00     0.048 C 
HETATM   32  C   UNL     1      43.164 -16.289   2.309  1.00  0.00     0.007 A 
HETATM   33  C   UNL     1      42.443 -15.454   1.455  1.00  0.00     0.010 A 
ENDBRANCH   1  27
TORSDOF 5
ENDMDL
