MODEL 1
REMARK VINA RESULT:      -9.0      0.000      0.000
REMARK  3 active torsions:
REMARK  status: ('A' for Active; 'I' for Inactive)
REMARK    1  A    between atoms: C_6  and  C_7 
REMARK    2  A    between atoms: C_14  and  N_15 
REMARK    3  A    between atoms: N_15  and  C_16 
ROOT
HETATM    1  C   UNL     1      42.592 -12.444   6.187  1.00  0.00     0.001 A 
HETATM    2  C   UNL     1      41.905 -13.065   5.146  1.00  0.00     0.018 A 
HETATM    3  C   UNL     1      42.222 -14.391   4.754  1.00  0.00     0.039 A 
HETATM    4  C   UNL     1      43.247 -15.078   5.413  1.00  0.00     0.073 A 
HETATM    5  N   UNL     1      43.612 -16.323   5.090  1.00  0.00    -0.228 NA
HETATM    6  C   UNL     1      42.958 -16.918   4.081  1.00  0.00     0.164 A 
HETATM    7  N   UNL     1      41.964 -16.350   3.382  1.00  0.00    -0.210 NA
HETATM    8  C   UNL     1      41.593 -15.103   3.717  1.00  0.00     0.143 A 
HETATM    9  C   UNL     1      43.918 -14.438   6.449  1.00  0.00     0.032 A 
HETATM   10  C   UNL     1      43.601 -13.136   6.843  1.00  0.00     0.002 A 
ENDROOT
BRANCH   8  11
HETATM   11  N   UNL     1      40.513 -14.497   3.017  1.00  0.00    -0.340 N 
HETATM   12  H   UNL     1      39.688 -15.077   3.127  1.00  0.00     0.167 HD
BRANCH  11  13
HETATM   13  C   UNL     1      40.561 -13.881   1.746  1.00  0.00     0.036 A 
HETATM   14  C   UNL     1      40.032 -14.551   0.633  1.00  0.00     0.069 A 
HETATM   15  C   UNL     1      40.013 -13.940  -0.623  1.00  0.00     0.104 A 
HETATM   16  C   UNL     1      40.522 -12.650  -0.785  1.00  0.00     0.102 A 
HETATM   17  O   UNL     1      39.482 -14.674  -1.655  1.00  0.00    -0.346 OA
HETATM   18  O   UNL     1      40.563 -12.002  -1.993  1.00  0.00    -0.346 OA
HETATM   19  C   UNL     1      41.006 -11.954   0.317  1.00  0.00     0.042 A 
HETATM   20  C   UNL     1      40.370 -12.914  -3.078  1.00  0.00     0.202 C 
HETATM   21  C   UNL     1      39.206 -13.849  -2.793  1.00  0.00     0.202 C 
HETATM   22  C   UNL     1      41.017 -12.565   1.574  1.00  0.00     0.032 A 
ENDBRANCH  11  13
ENDBRANCH   8  11
BRANCH   6  23
HETATM   23  C   UNL     1      43.337 -18.292   3.726  1.00  0.00     0.029 A 
HETATM   24  C   UNL     1      43.856 -19.182   4.667  1.00  0.00     0.131 A 
HETATM   25  N   UNL     1      44.225 -20.466   4.412  1.00  0.00    -0.272 NA
HETATM   26  C   UNL     1      44.067 -20.900   3.146  1.00  0.00     0.116 A 
HETATM   27  C   UNL     1      43.564 -20.114   2.126  1.00  0.00     0.020 A 
HETATM   28  C   UNL     1      43.198 -18.800   2.423  1.00  0.00     0.018 A 
ENDBRANCH   6  23
TORSDOF 3
ENDMDL
MODEL 2
REMARK VINA RESULT:      -8.9      3.385      7.211
REMARK  3 active torsions:
REMARK  status: ('A' for Active; 'I' for Inactive)
REMARK    1  A    between atoms: C_6  and  C_7 
REMARK    2  A    between atoms: C_14  and  N_15 
REMARK    3  A    between atoms: N_15  and  C_16 
ROOT
HETATM    1  C   UNL     1      43.713 -17.952   4.575  1.00  0.00     0.001 A 
HETATM    2  C   UNL     1      42.957 -16.829   4.904  1.00  0.00     0.018 A 
HETATM    3  C   UNL     1      42.222 -16.131   3.911  1.00  0.00     0.039 A 
HETATM    4  C   UNL     1      42.269 -16.570   2.583  1.00  0.00     0.073 A 
HETATM    5  N   UNL     1      41.615 -15.955   1.593  1.00  0.00    -0.228 NA
HETATM    6  C   UNL     1      40.895 -14.868   1.906  1.00  0.00     0.164 A 
HETATM    7  N   UNL     1      40.785 -14.362   3.143  1.00  0.00    -0.210 NA
HETATM    8  C   UNL     1      41.435 -14.988   4.138  1.00  0.00     0.143 A 
HETATM    9  C   UNL     1      43.030 -17.693   2.280  1.00  0.00     0.032 A 
HETATM   10  C   UNL     1      43.747 -18.387   3.258  1.00  0.00     0.002 A 
ENDROOT
BRANCH   8  11
HETATM   11  N   UNL     1      41.298 -14.494   5.465  1.00  0.00    -0.340 N 
HETATM   12  H   UNL     1      40.352 -14.675   5.784  1.00  0.00     0.167 HD
BRANCH  11  13
HETATM   13  C   UNL     1      41.806 -13.279   5.978  1.00  0.00     0.036 A 
HETATM   14  C   UNL     1      43.114 -13.236   6.482  1.00  0.00     0.069 A 
HETATM   15  C   UNL     1      43.662 -12.035   6.940  1.00  0.00     0.104 A 
HETATM   16  C   UNL     1      42.909 -10.859   6.900  1.00  0.00     0.102 A 
HETATM   17  O   UNL     1      44.946 -12.090   7.422  1.00  0.00    -0.346 OA
HETATM   18  O   UNL     1      43.372  -9.653   7.358  1.00  0.00    -0.346 OA
HETATM   19  C   UNL     1      41.629 -10.876   6.358  1.00  0.00     0.042 A 
HETATM   20  C   UNL     1      44.527  -9.821   8.187  1.00  0.00     0.202 C 
HETATM   21  C   UNL     1      45.514 -10.780   7.543  1.00  0.00     0.202 C 
HETATM   22  C   UNL     1      41.087 -12.078   5.894  1.00  0.00     0.032 A 
ENDBRANCH  11  13
ENDBRANCH   8  11
BRANCH   6  23
HETATM   23  C   UNL     1      40.159 -14.191   0.829  1.00  0.00     0.029 A 
HETATM   24  C   UNL     1      39.721 -12.872   0.950  1.00  0.00     0.131 A 
HETATM   25  N   UNL     1      39.040 -12.181  -0.003  1.00  0.00    -0.272 NA
HETATM   26  C   UNL     1      38.777 -12.837  -1.151  1.00  0.00     0.116 A 
HETATM   27  C   UNL     1      39.158 -14.144  -1.389  1.00  0.00     0.020 A 
HETATM   28  C   UNL     1      39.854 -14.822  -0.389  1.00  0.00     0.018 A 
ENDBRANCH   6  23
TORSDOF 3
ENDMDL
MODEL 3
REMARK VINA RESULT:      -8.9      3.291      7.245
REMARK  3 active torsions:
REMARK  status: ('A' for Active; 'I' for Inactive)
REMARK    1  A    between atoms: C_6  and  C_7 
REMARK    2  A    between atoms: C_14  and  N_15 
REMARK    3  A    between atoms: N_15  and  C_16 
ROOT
HETATM    1  C   UNL     1      40.787 -12.952   6.002  1.00  0.00     0.001 A 
HETATM    2  C   UNL     1      41.536 -13.573   5.004  1.00  0.00     0.018 A 
HETATM    3  C   UNL     1      41.097 -13.568   3.655  1.00  0.00     0.039 A 
HETATM    4  C   UNL     1      39.890 -12.941   3.326  1.00  0.00     0.073 A 
HETATM    5  N   UNL     1      39.406 -12.907   2.081  1.00  0.00    -0.228 NA
HETATM    6  C   UNL     1      40.120 -13.515   1.121  1.00  0.00     0.164 A 
HETATM    7  N   UNL     1      41.285 -14.146   1.328  1.00  0.00    -0.210 NA
HETATM    8  C   UNL     1      41.774 -14.169   2.579  1.00  0.00     0.143 A 
HETATM    9  C   UNL     1      39.162 -12.327   4.338  1.00  0.00     0.032 A 
HETATM   10  C   UNL     1      39.597 -12.323   5.666  1.00  0.00     0.002 A 
ENDROOT
BRANCH   8  11
HETATM   11  N   UNL     1      43.029 -14.796   2.814  1.00  0.00    -0.340 N 
HETATM   12  H   UNL     1      43.717 -14.393   2.187  1.00  0.00     0.167 HD
BRANCH  11  13
HETATM   13  C   UNL     1      43.263 -16.171   3.044  1.00  0.00     0.036 A 
HETATM   14  C   UNL     1      43.460 -16.627   4.356  1.00  0.00     0.069 A 
HETATM   15  C   UNL     1      43.635 -17.988   4.618  1.00  0.00     0.104 A 
HETATM   16  C   UNL     1      43.615 -18.913   3.572  1.00  0.00     0.102 A 
HETATM   17  O   UNL     1      43.827 -18.342   5.931  1.00  0.00    -0.346 OA
HETATM   18  O   UNL     1      43.809 -20.258   3.752  1.00  0.00    -0.346 OA
HETATM   19  C   UNL     1      43.373 -18.482   2.273  1.00  0.00     0.042 A 
HETATM   20  C   UNL     1      44.379 -20.533   5.036  1.00  0.00     0.202 C 
HETATM   21  C   UNL     1      43.658 -19.751   6.121  1.00  0.00     0.202 C 
HETATM   22  C   UNL     1      43.191 -17.120   2.015  1.00  0.00     0.032 A 
ENDBRANCH  11  13
ENDBRANCH   8  11
BRANCH   6  23
HETATM   23  C   UNL     1      39.608 -13.472  -0.255  1.00  0.00     0.029 A 
HETATM   24  C   UNL     1      38.967 -12.345  -0.770  1.00  0.00     0.131 A 
HETATM   25  N   UNL     1      38.472 -12.231  -2.032  1.00  0.00    -0.272 NA
HETATM   26  C   UNL     1      38.623 -13.301  -2.837  1.00  0.00     0.116 A 
HETATM   27  C   UNL     1      39.239 -14.474  -2.443  1.00  0.00     0.020 A 
HETATM   28  C   UNL     1      39.733 -14.556  -1.141  1.00  0.00     0.018 A 
ENDBRANCH   6  23
TORSDOF 3
ENDMDL
MODEL 4
REMARK VINA RESULT:      -8.7      1.380      4.730
REMARK  3 active torsions:
REMARK  status: ('A' for Active; 'I' for Inactive)
REMARK    1  A    between atoms: C_6  and  C_7 
REMARK    2  A    between atoms: C_14  and  N_15 
REMARK    3  A    between atoms: N_15  and  C_16 
ROOT
HETATM    1  C   UNL     1      43.440 -19.271   2.648  1.00  0.00     0.001 A 
HETATM    2  C   UNL     1      42.611 -18.194   2.338  1.00  0.00     0.018 A 
HETATM    3  C   UNL     1      42.664 -16.994   3.092  1.00  0.00     0.039 A 
HETATM    4  C   UNL     1      43.552 -16.896   4.169  1.00  0.00     0.073 A 
HETATM    5  N   UNL     1      43.647 -15.804   4.934  1.00  0.00    -0.228 NA
HETATM    6  C   UNL     1      42.843 -14.770   4.643  1.00  0.00     0.164 A 
HETATM    7  N   UNL     1      41.956 -14.760   3.637  1.00  0.00    -0.210 NA
HETATM    8  C   UNL     1      41.870 -15.856   2.863  1.00  0.00     0.143 A 
HETATM    9  C   UNL     1      44.368 -17.983   4.459  1.00  0.00     0.032 A 
HETATM   10  C   UNL     1      44.324 -19.163   3.712  1.00  0.00     0.002 A 
ENDROOT
BRANCH   8  11
HETATM   11  N   UNL     1      40.967 -15.851   1.765  1.00  0.00    -0.340 N 
HETATM   12  H   UNL     1      41.020 -16.749   1.296  1.00  0.00     0.167 HD
BRANCH  11  13
HETATM   13  C   UNL     1      40.735 -14.792   0.858  1.00  0.00     0.036 A 
HETATM   14  C   UNL     1      39.778 -14.949  -0.156  1.00  0.00     0.069 A 
HETATM   15  C   UNL     1      39.487 -13.898  -1.029  1.00  0.00     0.104 A 
HETATM   16  C   UNL     1      40.148 -12.674  -0.901  1.00  0.00     0.102 A 
HETATM   17  O   UNL     1      38.541 -14.143  -1.993  1.00  0.00    -0.346 OA
HETATM   18  O   UNL     1      39.934 -11.610  -1.739  1.00  0.00    -0.346 OA
HETATM   19  C   UNL     1      41.064 -12.488   0.129  1.00  0.00     0.042 A 
HETATM   20  C   UNL     1      39.256 -12.018  -2.931  1.00  0.00     0.202 C 
HETATM   21  C   UNL     1      38.085 -12.928  -2.598  1.00  0.00     0.202 C 
HETATM   22  C   UNL     1      41.348 -13.539   1.005  1.00  0.00     0.032 A 
ENDBRANCH  11  13
ENDBRANCH   8  11
BRANCH   6  23
HETATM   23  C   UNL     1      42.949 -13.558   5.465  1.00  0.00     0.029 A 
HETATM   24  C   UNL     1      42.086 -12.475   5.297  1.00  0.00     0.131 A 
HETATM   25  N   UNL     1      42.120 -11.324   6.022  1.00  0.00    -0.272 NA
HETATM   26  C   UNL     1      43.068 -11.241   6.976  1.00  0.00     0.116 A 
HETATM   27  C   UNL     1      43.981 -12.246   7.237  1.00  0.00     0.020 A 
HETATM   28  C   UNL     1      43.917 -13.411   6.473  1.00  0.00     0.018 A 
ENDBRANCH   6  23
TORSDOF 3
ENDMDL
MODEL 5
REMARK VINA RESULT:      -8.7      3.430      6.470
REMARK  3 active torsions:
REMARK  status: ('A' for Active; 'I' for Inactive)
REMARK    1  A    between atoms: C_6  and  C_7 
REMARK    2  A    between atoms: C_14  and  N_15 
REMARK    3  A    between atoms: N_15  and  C_16 
ROOT
HETATM    1  C   UNL     1      40.141 -12.167   0.044  1.00  0.00     0.001 A 
HETATM    2  C   UNL     1      41.141 -12.096   1.012  1.00  0.00     0.018 A 
HETATM    3  C   UNL     1      41.703 -13.275   1.566  1.00  0.00     0.039 A 
HETATM    4  C   UNL     1      41.238 -14.525   1.142  1.00  0.00     0.073 A 
HETATM    5  N   UNL     1      41.709 -15.677   1.628  1.00  0.00    -0.228 NA
HETATM    6  C   UNL     1      42.664 -15.610   2.568  1.00  0.00     0.164 A 
HETATM    7  N   UNL     1      43.178 -14.467   3.046  1.00  0.00    -0.210 NA
HETATM    8  C   UNL     1      42.709 -13.310   2.547  1.00  0.00     0.143 A 
HETATM    9  C   UNL     1      40.241 -14.570   0.175  1.00  0.00     0.032 A 
HETATM   10  C   UNL     1      39.692 -13.411  -0.378  1.00  0.00     0.002 A 
ENDROOT
BRANCH   8  11
HETATM   11  N   UNL     1      43.270 -12.087   3.009  1.00  0.00    -0.340 N 
HETATM   12  H   UNL     1      44.178 -11.962   2.575  1.00  0.00     0.167 HD
BRANCH  11  13
HETATM   13  C   UNL     1      43.238 -11.580   4.328  1.00  0.00     0.036 A 
HETATM   14  C   UNL     1      44.372 -11.706   5.144  1.00  0.00     0.069 A 
HETATM   15  C   UNL     1      44.389 -11.162   6.430  1.00  0.00     0.104 A 
HETATM   16  C   UNL     1      43.271 -10.483   6.920  1.00  0.00     0.102 A 
HETATM   17  O   UNL     1      45.539 -11.339   7.158  1.00  0.00    -0.346 OA
HETATM   18  O   UNL     1      43.206  -9.949   8.181  1.00  0.00    -0.346 OA
HETATM   19  C   UNL     1      42.157 -10.308   6.106  1.00  0.00     0.042 A 
HETATM   20  C   UNL     1      44.237 -10.477   9.021  1.00  0.00     0.202 C 
HETATM   21  C   UNL     1      45.573 -10.472   8.297  1.00  0.00     0.202 C 
HETATM   22  C   UNL     1      42.147 -10.848   4.817  1.00  0.00     0.032 A 
ENDBRANCH  11  13
ENDBRANCH   8  11
BRANCH   6  23
HETATM   23  C   UNL     1      43.202 -16.869   3.100  1.00  0.00     0.029 A 
HETATM   24  C   UNL     1      43.722 -16.963   4.391  1.00  0.00     0.131 A 
HETATM   25  N   UNL     1      44.232 -18.092   4.951  1.00  0.00    -0.272 NA
HETATM   26  C   UNL     1      44.224 -19.202   4.186  1.00  0.00     0.116 A 
HETATM   27  C   UNL     1      43.736 -19.235   2.894  1.00  0.00     0.020 A 
HETATM   28  C   UNL     1      43.223 -18.057   2.350  1.00  0.00     0.018 A 
ENDBRANCH   6  23
TORSDOF 3
ENDMDL
MODEL 6
REMARK VINA RESULT:      -8.4      1.759      2.747
REMARK  3 active torsions:
REMARK  status: ('A' for Active; 'I' for Inactive)
REMARK    1  A    between atoms: C_6  and  C_7 
REMARK    2  A    between atoms: C_14  and  N_15 
REMARK    3  A    between atoms: N_15  and  C_16 
ROOT
HETATM    1  C   UNL     1      39.456 -11.561   5.038  1.00  0.00     0.001 A 
HETATM    2  C   UNL     1      39.391 -12.316   3.869  1.00  0.00     0.018 A 
HETATM    3  C   UNL     1      40.166 -13.496   3.720  1.00  0.00     0.039 A 
HETATM    4  C   UNL     1      41.014 -13.898   4.758  1.00  0.00     0.073 A 
HETATM    5  N   UNL     1      41.784 -14.988   4.684  1.00  0.00    -0.228 NA
HETATM    6  C   UNL     1      41.731 -15.710   3.555  1.00  0.00     0.164 A 
HETATM    7  N   UNL     1      40.956 -15.413   2.502  1.00  0.00    -0.210 NA
HETATM    8  C   UNL     1      40.175 -14.322   2.583  1.00  0.00     0.143 A 
HETATM    9  C   UNL     1      41.061 -13.129   5.914  1.00  0.00     0.032 A 
HETATM   10  C   UNL     1      40.293 -11.972   6.066  1.00  0.00     0.002 A 
ENDROOT
BRANCH   8  11
HETATM   11  N   UNL     1      39.314 -14.013   1.494  1.00  0.00    -0.340 N 
HETATM   12  H   UNL     1      38.649 -14.770   1.380  1.00  0.00     0.167 HD
BRANCH  11  13
HETATM   13  C   UNL     1      39.679 -13.437   0.257  1.00  0.00     0.036 A 
HETATM   14  C   UNL     1      39.951 -12.062   0.188  1.00  0.00     0.069 A 
HETATM   15  C   UNL     1      40.372 -11.478  -1.009  1.00  0.00     0.104 A 
HETATM   16  C   UNL     1      40.528 -12.260  -2.156  1.00  0.00     0.102 A 
HETATM   17  O   UNL     1      40.609 -10.126  -0.983  1.00  0.00    -0.346 OA
HETATM   18  O   UNL     1      40.909 -11.750  -3.370  1.00  0.00    -0.346 OA
HETATM   19  C   UNL     1      40.309 -13.631  -2.092  1.00  0.00     0.042 A 
HETATM   20  C   UNL     1      40.769 -10.325  -3.400  1.00  0.00     0.202 C 
HETATM   21  C   UNL     1      41.343  -9.703  -2.138  1.00  0.00     0.202 C 
HETATM   22  C   UNL     1      39.895 -14.214  -0.891  1.00  0.00     0.032 A 
ENDBRANCH  11  13
ENDBRANCH   8  11
BRANCH   6  23
HETATM   23  C   UNL     1      42.559 -16.920   3.467  1.00  0.00     0.029 A 
HETATM   24  C   UNL     1      42.486 -17.787   2.377  1.00  0.00     0.131 A 
HETATM   25  N   UNL     1      43.223 -18.920   2.225  1.00  0.00    -0.272 NA
HETATM   26  C   UNL     1      44.091 -19.212   3.214  1.00  0.00     0.116 A 
HETATM   27  C   UNL     1      44.254 -18.432   4.343  1.00  0.00     0.020 A 
HETATM   28  C   UNL     1      43.480 -17.278   4.467  1.00  0.00     0.018 A 
ENDBRANCH   6  23
TORSDOF 3
ENDMDL
MODEL 7
REMARK VINA RESULT:      -8.3      3.165      5.967
REMARK  3 active torsions:
REMARK  status: ('A' for Active; 'I' for Inactive)
REMARK    1  A    between atoms: C_6  and  C_7 
REMARK    2  A    between atoms: C_14  and  N_15 
REMARK    3  A    between atoms: N_15  and  C_16 
ROOT
HETATM    1  C   UNL     1      40.173 -12.406  -0.017  1.00  0.00     0.001 A 
HETATM    2  C   UNL     1      41.178 -12.322   0.944  1.00  0.00     0.018 A 
HETATM    3  C   UNL     1      41.732 -13.493   1.522  1.00  0.00     0.039 A 
HETATM    4  C   UNL     1      41.252 -14.748   1.130  1.00  0.00     0.073 A 
HETATM    5  N   UNL     1      41.714 -15.893   1.641  1.00  0.00    -0.228 NA
HETATM    6  C   UNL     1      42.674 -15.814   2.574  1.00  0.00     0.164 A 
HETATM    7  N   UNL     1      43.202 -14.666   3.022  1.00  0.00    -0.210 NA
HETATM    8  C   UNL     1      42.743 -13.516   2.499  1.00  0.00     0.143 A 
HETATM    9  C   UNL     1      40.249 -14.806   0.170  1.00  0.00     0.032 A 
HETATM   10  C   UNL     1      39.709 -13.654  -0.408  1.00  0.00     0.002 A 
ENDROOT
BRANCH   8  11
HETATM   11  N   UNL     1      43.318 -12.289   2.929  1.00  0.00    -0.340 N 
HETATM   12  H   UNL     1      44.285 -12.258   2.624  1.00  0.00     0.167 HD
BRANCH  11  13
HETATM   13  C   UNL     1      43.137 -11.656   4.180  1.00  0.00     0.036 A 
HETATM   14  C   UNL     1      41.879 -11.131   4.512  1.00  0.00     0.069 A 
HETATM   15  C   UNL     1      41.657 -10.553   5.764  1.00  0.00     0.104 A 
HETATM   16  C   UNL     1      42.689 -10.492   6.703  1.00  0.00     0.102 A 
HETATM   17  O   UNL     1      40.397 -10.061   5.999  1.00  0.00    -0.346 OA
HETATM   18  O   UNL     1      42.550  -9.914   7.939  1.00  0.00    -0.346 OA
HETATM   19  C   UNL     1      43.927 -11.051   6.407  1.00  0.00     0.042 A 
HETATM   20  C   UNL     1      41.382  -9.089   7.998  1.00  0.00     0.202 C 
HETATM   21  C   UNL     1      40.187  -9.808   7.393  1.00  0.00     0.202 C 
HETATM   22  C   UNL     1      44.144 -11.634   5.156  1.00  0.00     0.032 A 
ENDBRANCH  11  13
ENDBRANCH   8  11
BRANCH   6  23
HETATM   23  C   UNL     1      43.202 -17.066   3.132  1.00  0.00     0.029 A 
HETATM   24  C   UNL     1      43.633 -17.160   4.456  1.00  0.00     0.131 A 
HETATM   25  N   UNL     1      44.128 -18.283   5.042  1.00  0.00    -0.272 NA
HETATM   26  C   UNL     1      44.199 -19.386   4.269  1.00  0.00     0.116 A 
HETATM   27  C   UNL     1      43.804 -19.418   2.945  1.00  0.00     0.020 A 
HETATM   28  C   UNL     1      43.303 -18.246   2.376  1.00  0.00     0.018 A 
ENDBRANCH   6  23
TORSDOF 3
ENDMDL
MODEL 8
REMARK VINA RESULT:      -8.2      3.574      7.160
REMARK  3 active torsions:
REMARK  status: ('A' for Active; 'I' for Inactive)
REMARK    1  A    between atoms: C_6  and  C_7 
REMARK    2  A    between atoms: C_14  and  N_15 
REMARK    3  A    between atoms: N_15  and  C_16 
ROOT
HETATM    1  C   UNL     1      42.900 -16.970   4.341  1.00  0.00     0.001 A 
HETATM    2  C   UNL     1      41.912 -15.990   4.384  1.00  0.00     0.018 A 
HETATM    3  C   UNL     1      41.389 -15.431   3.189  1.00  0.00     0.039 A 
HETATM    4  C   UNL     1      41.883 -15.862   1.953  1.00  0.00     0.073 A 
HETATM    5  N   UNL     1      41.450 -15.372   0.788  1.00  0.00    -0.228 NA
HETATM    6  C   UNL     1      40.506 -14.420   0.827  1.00  0.00     0.164 A 
HETATM    7  N   UNL     1      39.967 -13.934   1.955  1.00  0.00    -0.210 NA
HETATM    8  C   UNL     1      40.397 -14.437   3.125  1.00  0.00     0.143 A 
HETATM    9  C   UNL     1      42.868 -16.842   1.936  1.00  0.00     0.032 A 
HETATM   10  C   UNL     1      43.378 -17.400   3.111  1.00  0.00     0.002 A 
ENDROOT
BRANCH   8  11
HETATM   11  N   UNL     1      39.809 -13.966   4.331  1.00  0.00    -0.340 N 
HETATM   12  H   UNL     1      38.805 -14.103   4.279  1.00  0.00     0.167 HD
BRANCH  11  13
HETATM   13  C   UNL     1      40.147 -12.791   5.041  1.00  0.00     0.036 A 
HETATM   14  C   UNL     1      39.261 -12.289   6.006  1.00  0.00     0.069 A 
HETATM   15  C   UNL     1      39.596 -11.165   6.764  1.00  0.00     0.104 A 
HETATM   16  C   UNL     1      40.823 -10.526   6.570  1.00  0.00     0.102 A 
HETATM   17  O   UNL     1      38.666 -10.741   7.680  1.00  0.00    -0.346 OA
HETATM   18  O   UNL     1      41.206  -9.403   7.256  1.00  0.00    -0.346 OA
HETATM   19  C   UNL     1      41.732 -11.041   5.652  1.00  0.00     0.042 A 
HETATM   20  C   UNL     1      40.087  -8.781   7.897  1.00  0.00     0.202 C 
HETATM   21  C   UNL     1      39.236  -9.817   8.614  1.00  0.00     0.202 C 
HETATM   22  C   UNL     1      41.396 -12.170   4.899  1.00  0.00     0.032 A 
ENDBRANCH  11  13
ENDBRANCH   8  11
BRANCH   6  23
HETATM   23  C   UNL     1      40.010 -13.884  -0.447  1.00  0.00     0.029 A 
HETATM   24  C   UNL     1      40.055 -12.521  -0.742  1.00  0.00     0.131 A 
HETATM   25  N   UNL     1      39.620 -11.954  -1.899  1.00  0.00    -0.272 NA
HETATM   26  C   UNL     1      39.109 -12.789  -2.826  1.00  0.00     0.116 A 
HETATM   27  C   UNL     1      39.010 -14.156  -2.650  1.00  0.00     0.020 A 
HETATM   28  C   UNL     1      39.465 -14.703  -1.450  1.00  0.00     0.018 A 
ENDBRANCH   6  23
TORSDOF 3
ENDMDL
MODEL 9
REMARK VINA RESULT:      -8.1      3.132      6.929
REMARK  3 active torsions:
REMARK  status: ('A' for Active; 'I' for Inactive)
REMARK    1  A    between atoms: C_6  and  C_7 
REMARK    2  A    between atoms: C_14  and  N_15 
REMARK    3  A    between atoms: N_15  and  C_16 
ROOT
HETATM    1  C   UNL     1      43.979 -18.215   4.872  1.00  0.00     0.001 A 
HETATM    2  C   UNL     1      43.301 -17.027   5.135  1.00  0.00     0.018 A 
HETATM    3  C   UNL     1      42.682 -16.295   4.089  1.00  0.00     0.039 A 
HETATM    4  C   UNL     1      42.765 -16.767   2.775  1.00  0.00     0.073 A 
HETATM    5  N   UNL     1      42.220 -16.126   1.737  1.00  0.00    -0.228 NA
HETATM    6  C   UNL     1      41.575 -14.977   1.987  1.00  0.00     0.164 A 
HETATM    7  N   UNL     1      41.438 -14.434   3.206  1.00  0.00    -0.210 NA
HETATM    8  C   UNL     1      41.979 -15.088   4.249  1.00  0.00     0.143 A 
HETATM    9  C   UNL     1      43.447 -17.955   2.537  1.00  0.00     0.032 A 
HETATM   10  C   UNL     1      44.050 -18.682   3.567  1.00  0.00     0.002 A 
ENDROOT
BRANCH   8  11
HETATM   11  N   UNL     1      41.809 -14.553   5.556  1.00  0.00    -0.340 N 
HETATM   12  H   UNL     1      40.884 -14.800   5.892  1.00  0.00     0.167 HD
BRANCH  11  13
HETATM   13  C   UNL     1      42.216 -13.279   6.014  1.00  0.00     0.036 A 
HETATM   14  C   UNL     1      41.296 -12.220   6.016  1.00  0.00     0.069 A 
HETATM   15  C   UNL     1      41.654 -10.967   6.518  1.00  0.00     0.104 A 
HETATM   16  C   UNL     1      42.937 -10.754   7.027  1.00  0.00     0.102 A 
HETATM   17  O   UNL     1      40.691  -9.989   6.474  1.00  0.00    -0.346 OA
HETATM   18  O   UNL     1      43.365  -9.544   7.509  1.00  0.00    -0.346 OA
HETATM   19  C   UNL     1      43.844 -11.806   7.077  1.00  0.00     0.042 A 
HETATM   20  C   UNL     1      42.495  -8.484   7.098  1.00  0.00     0.202 C 
HETATM   21  C   UNL     1      41.041  -8.875   7.303  1.00  0.00     0.202 C 
HETATM   22  C   UNL     1      43.480 -13.061   6.580  1.00  0.00     0.032 A 
ENDBRANCH  11  13
ENDBRANCH   8  11
BRANCH   6  23
HETATM   23  C   UNL     1      40.957 -14.269   0.858  1.00  0.00     0.029 A 
HETATM   24  C   UNL     1      40.067 -14.900  -0.010  1.00  0.00     0.131 A 
HETATM   25  N   UNL     1      39.454 -14.310  -1.072  1.00  0.00    -0.272 NA
HETATM   26  C   UNL     1      39.739 -13.010  -1.286  1.00  0.00     0.116 A 
HETATM   27  C   UNL     1      40.604 -12.277  -0.496  1.00  0.00     0.020 A 
HETATM   28  C   UNL     1      41.216 -12.916   0.583  1.00  0.00     0.018 A 
ENDBRANCH   6  23
TORSDOF 3
ENDMDL
MODEL 10
REMARK VINA RESULT:      -7.9      1.796      2.535
REMARK  3 active torsions:
REMARK  status: ('A' for Active; 'I' for Inactive)
REMARK    1  A    between atoms: C_6  and  C_7 
REMARK    2  A    between atoms: C_14  and  N_15 
REMARK    3  A    between atoms: N_15  and  C_16 
ROOT
HETATM    1  C   UNL     1      41.920  -9.774   5.306  1.00  0.00     0.001 A 
HETATM    2  C   UNL     1      41.873 -10.354   4.040  1.00  0.00     0.018 A 
HETATM    3  C   UNL     1      42.173 -11.728   3.857  1.00  0.00     0.039 A 
HETATM    4  C   UNL     1      42.532 -12.508   4.963  1.00  0.00     0.073 A 
HETATM    5  N   UNL     1      42.842 -13.804   4.866  1.00  0.00    -0.228 NA
HETATM    6  C   UNL     1      42.807 -14.362   3.647  1.00  0.00     0.164 A 
HETATM    7  N   UNL     1      42.480 -13.707   2.523  1.00  0.00    -0.210 NA
HETATM    8  C   UNL     1      42.158 -12.405   2.625  1.00  0.00     0.143 A 
HETATM    9  C   UNL     1      42.571 -11.907   6.215  1.00  0.00     0.032 A 
HETATM   10  C   UNL     1      42.268 -10.556   6.399  1.00  0.00     0.002 A 
ENDROOT
BRANCH   8  11
HETATM   11  N   UNL     1      41.767 -11.702   1.453  1.00  0.00    -0.340 N 
HETATM   12  H   UNL     1      41.837 -10.706   1.632  1.00  0.00     0.167 HD
BRANCH  11  13
HETATM   13  C   UNL     1      40.686 -12.011   0.595  1.00  0.00     0.036 A 
HETATM   14  C   UNL     1      40.853 -12.983  -0.403  1.00  0.00     0.069 A 
HETATM   15  C   UNL     1      39.785 -13.350  -1.224  1.00  0.00     0.104 A 
HETATM   16  C   UNL     1      38.534 -12.751  -1.061  1.00  0.00     0.102 A 
HETATM   17  O   UNL     1      40.042 -14.305  -2.177  1.00  0.00    -0.346 OA
HETATM   18  O   UNL     1      37.451 -13.041  -1.849  1.00  0.00    -0.346 OA
HETATM   19  C   UNL     1      38.340 -11.822  -0.045  1.00  0.00     0.042 A 
HETATM   20  C   UNL     1      37.846 -13.726  -3.042  1.00  0.00     0.202 C 
HETATM   21  C   UNL     1      38.830 -14.839  -2.721  1.00  0.00     0.202 C 
HETATM   22  C   UNL     1      39.409 -11.462   0.780  1.00  0.00     0.032 A 
ENDBRANCH  11  13
ENDBRANCH   8  11
BRANCH   6  23
HETATM   23  C   UNL     1      43.130 -15.790   3.528  1.00  0.00     0.029 A 
HETATM   24  C   UNL     1      43.674 -16.514   4.590  1.00  0.00     0.131 A 
HETATM   25  N   UNL     1      43.994 -17.835   4.555  1.00  0.00    -0.272 NA
HETATM   26  C   UNL     1      43.757 -18.484   3.398  1.00  0.00     0.116 A 
HETATM   27  C   UNL     1      43.222 -17.876   2.277  1.00  0.00     0.020 A 
HETATM   28  C   UNL     1      42.908 -16.519   2.348  1.00  0.00     0.018 A 
ENDBRANCH   6  23
TORSDOF 3
ENDMDL
