MODEL 1
REMARK VINA RESULT:      -8.3      0.000      0.000
REMARK  2 active torsions:
REMARK  status: ('A' for Active; 'I' for Inactive)
REMARK    1  A    between atoms: C_7  and  C_8 
REMARK    2  A    between atoms: C_8  and  O_9 
ROOT
HETATM    1  C   UNL     1      41.404 -15.913   4.981  1.00  0.00     0.199 A 
HETATM    2  C   UNL     1      41.911 -16.276   6.425  1.00  0.00     0.266 A 
HETATM    3  O   UNL     1      41.512 -15.867   7.505  1.00  0.00    -0.269 OA
HETATM    4  N   UNL     1      42.911 -17.242   6.279  1.00  0.00    -0.323 N 
HETATM    5  C   UNL     1      43.152 -17.527   4.944  1.00  0.00     0.045 A 
HETATM    6  C   UNL     1      42.315 -16.766   4.123  1.00  0.00     0.017 A 
HETATM    7  C   UNL     1      44.072 -18.421   4.440  1.00  0.00     0.030 A 
HETATM    8  C   UNL     1      44.142 -18.558   3.052  1.00  0.00     0.002 A 
HETATM    9  C   UNL     1      43.300 -17.807   2.211  1.00  0.00     0.001 A 
HETATM   10  C   UNL     1      42.373 -16.906   2.744  1.00  0.00     0.013 A 
HETATM   11  H   UNL     1      43.389 -17.650   7.069  1.00  0.00     0.169 HD
ENDROOT
BRANCH   1  12
HETATM   12  C   UNL     1      41.651 -14.460   4.623  1.00  0.00     0.025 A 
HETATM   13  C   UNL     1      41.005 -13.688   3.651  1.00  0.00     0.016 A 
HETATM   14  C   UNL     1      39.908 -14.002   2.695  1.00  0.00     0.069 C 
HETATM   15  N   UNL     1      41.560 -12.433   3.665  1.00  0.00    -0.359 N 
HETATM   16  H   UNL     1      41.286 -11.671   3.061  1.00  0.00     0.166 HD
HETATM   17  C   UNL     1      42.560 -12.348   4.595  1.00  0.00     0.043 A 
HETATM   18  C   UNL     1      42.650 -13.595   5.213  1.00  0.00     0.003 A 
HETATM   19  C   UNL     1      43.387 -11.266   4.922  1.00  0.00     0.030 A 
HETATM   20  C   UNL     1      43.634 -13.752   6.216  1.00  0.00     0.014 A 
HETATM   21  C   UNL     1      44.471 -12.683   6.558  1.00  0.00     0.001 A 
HETATM   22  C   UNL     1      44.348 -11.455   5.916  1.00  0.00     0.002 A 
ENDBRANCH   1  12
BRANCH   1  23
HETATM   23  O   UNL     1      40.065 -16.353   4.782  1.00  0.00    -0.371 OA
HETATM   24  H   UNL     1      40.107 -17.310   4.622  1.00  0.00     0.212 HD
ENDBRANCH   1  23
TORSDOF 2
ENDMDL
MODEL 2
REMARK VINA RESULT:      -8.2      2.060      5.887
REMARK  2 active torsions:
REMARK  status: ('A' for Active; 'I' for Inactive)
REMARK    1  A    between atoms: C_7  and  C_8 
REMARK    2  A    between atoms: C_8  and  O_9 
ROOT
HETATM    1  C   UNL     1      42.278 -15.649   3.238  1.00  0.00     0.199 A 
HETATM    2  C   UNL     1      43.219 -14.590   2.555  1.00  0.00     0.266 A 
HETATM    3  O   UNL     1      43.984 -14.737   1.614  1.00  0.00    -0.269 OA
HETATM    4  N   UNL     1      42.990 -13.367   3.190  1.00  0.00    -0.323 N 
HETATM    5  C   UNL     1      42.064 -13.490   4.214  1.00  0.00     0.045 A 
HETATM    6  C   UNL     1      41.617 -14.811   4.313  1.00  0.00     0.017 A 
HETATM    7  C   UNL     1      41.612 -12.490   5.048  1.00  0.00     0.030 A 
HETATM    8  C   UNL     1      40.664 -12.837   6.014  1.00  0.00     0.002 A 
HETATM    9  C   UNL     1      40.196 -14.160   6.120  1.00  0.00     0.001 A 
HETATM   10  C   UNL     1      40.668 -15.159   5.262  1.00  0.00     0.013 A 
HETATM   11  H   UNL     1      43.469 -12.520   2.922  1.00  0.00     0.169 HD
ENDROOT
BRANCH   1  12
HETATM   12  C   UNL     1      43.048 -16.762   3.922  1.00  0.00     0.025 A 
HETATM   13  C   UNL     1      43.762 -16.708   5.124  1.00  0.00     0.016 A 
HETATM   14  C   UNL     1      43.992 -15.605   6.098  1.00  0.00     0.069 C 
HETATM   15  N   UNL     1      44.310 -17.944   5.351  1.00  0.00    -0.359 N 
HETATM   16  H   UNL     1      44.882 -18.189   6.148  1.00  0.00     0.166 HD
HETATM   17  C   UNL     1      44.002 -18.813   4.339  1.00  0.00     0.043 A 
HETATM   18  C   UNL     1      43.217 -18.111   3.424  1.00  0.00     0.003 A 
HETATM   19  C   UNL     1      44.369 -20.154   4.169  1.00  0.00     0.030 A 
HETATM   20  C   UNL     1      42.781 -18.809   2.274  1.00  0.00     0.014 A 
HETATM   21  C   UNL     1      43.136 -20.150   2.085  1.00  0.00     0.001 A 
HETATM   22  C   UNL     1      43.921 -20.812   3.022  1.00  0.00     0.002 A 
ENDBRANCH   1  12
BRANCH   1  23
HETATM   23  O   UNL     1      41.267 -16.093   2.338  1.00  0.00    -0.371 OA
HETATM   24  H   UNL     1      41.680 -16.148   1.461  1.00  0.00     0.212 HD
ENDBRANCH   1  23
TORSDOF 2
ENDMDL
MODEL 3
REMARK VINA RESULT:      -8.2      1.672      5.026
REMARK  2 active torsions:
REMARK  status: ('A' for Active; 'I' for Inactive)
REMARK    1  A    between atoms: C_7  and  C_8 
REMARK    2  A    between atoms: C_8  and  O_9 
ROOT
HETATM    1  C   UNL     1      42.131 -14.927   5.642  1.00  0.00     0.199 A 
HETATM    2  C   UNL     1      40.767 -14.899   6.425  1.00  0.00     0.266 A 
HETATM    3  O   UNL     1      40.174 -15.820   6.965  1.00  0.00    -0.269 OA
HETATM    4  N   UNL     1      40.341 -13.568   6.460  1.00  0.00    -0.323 N 
HETATM    5  C   UNL     1      41.213 -12.736   5.777  1.00  0.00     0.045 A 
HETATM    6  C   UNL     1      42.280 -13.471   5.252  1.00  0.00     0.017 A 
HETATM    7  C   UNL     1      41.097 -11.373   5.606  1.00  0.00     0.030 A 
HETATM    8  C   UNL     1      42.103 -10.727   4.884  1.00  0.00     0.002 A 
HETATM    9  C   UNL     1      43.190 -11.450   4.358  1.00  0.00     0.001 A 
HETATM   10  C   UNL     1      43.288 -12.832   4.544  1.00  0.00     0.013 A 
HETATM   11  H   UNL     1      39.489 -13.285   6.921  1.00  0.00     0.169 HD
ENDROOT
BRANCH   1  12
HETATM   12  C   UNL     1      42.059 -15.746   4.369  1.00  0.00     0.025 A 
HETATM   13  C   UNL     1      41.210 -15.565   3.271  1.00  0.00     0.016 A 
HETATM   14  C   UNL     1      40.152 -14.558   2.985  1.00  0.00     0.069 C 
HETATM   15  N   UNL     1      41.484 -16.547   2.353  1.00  0.00    -0.359 N 
HETATM   16  H   UNL     1      41.015 -16.659   1.464  1.00  0.00     0.166 HD
HETATM   17  C   UNL     1      42.470 -17.383   2.806  1.00  0.00     0.043 A 
HETATM   18  C   UNL     1      42.853 -16.918   4.063  1.00  0.00     0.003 A 
HETATM   19  C   UNL     1      43.035 -18.510   2.197  1.00  0.00     0.030 A 
HETATM   20  C   UNL     1      43.865 -17.637   4.740  1.00  0.00     0.014 A 
HETATM   21  C   UNL     1      44.442 -18.768   4.150  1.00  0.00     0.001 A 
HETATM   22  C   UNL     1      44.030 -19.197   2.893  1.00  0.00     0.002 A 
ENDBRANCH   1  12
BRANCH   1  23
HETATM   23  O   UNL     1      43.211 -15.267   6.506  1.00  0.00    -0.371 OA
HETATM   24  H   UNL     1      43.334 -14.516   7.109  1.00  0.00     0.212 HD
ENDBRANCH   1  23
TORSDOF 2
ENDMDL
MODEL 4
REMARK VINA RESULT:      -8.1      2.110      5.394
REMARK  2 active torsions:
REMARK  status: ('A' for Active; 'I' for Inactive)
REMARK    1  A    between atoms: C_7  and  C_8 
REMARK    2  A    between atoms: C_8  and  O_9 
ROOT
HETATM    1  C   UNL     1      42.259 -13.215   5.916  1.00  0.00     0.199 A 
HETATM    2  C   UNL     1      40.961 -12.330   6.001  1.00  0.00     0.266 A 
HETATM    3  O   UNL     1      39.816 -12.615   5.682  1.00  0.00    -0.269 OA
HETATM    4  N   UNL     1      41.329 -11.116   6.587  1.00  0.00    -0.323 N 
HETATM    5  C   UNL     1      42.687 -11.072   6.857  1.00  0.00     0.045 A 
HETATM    6  C   UNL     1      43.302 -12.266   6.469  1.00  0.00     0.017 A 
HETATM    7  C   UNL     1      43.386 -10.028   7.423  1.00  0.00     0.030 A 
HETATM    8  C   UNL     1      44.760 -10.202   7.613  1.00  0.00     0.002 A 
HETATM    9  C   UNL     1      45.392 -11.402   7.238  1.00  0.00     0.001 A 
HETATM   10  C   UNL     1      44.663 -12.448   6.666  1.00  0.00     0.013 A 
HETATM   11  H   UNL     1      40.664 -10.377   6.763  1.00  0.00     0.169 HD
ENDROOT
BRANCH   1  12
HETATM   12  C   UNL     1      42.644 -13.552   4.489  1.00  0.00     0.025 A 
HETATM   13  C   UNL     1      42.875 -12.673   3.424  1.00  0.00     0.016 A 
HETATM   14  C   UNL     1      42.834 -11.188   3.331  1.00  0.00     0.069 C 
HETATM   15  N   UNL     1      43.185 -13.418   2.315  1.00  0.00    -0.359 N 
HETATM   16  H   UNL     1      43.395 -13.040   1.401  1.00  0.00     0.166 HD
HETATM   17  C   UNL     1      43.153 -14.757   2.597  1.00  0.00     0.043 A 
HETATM   18  C   UNL     1      42.816 -14.883   3.944  1.00  0.00     0.003 A 
HETATM   19  C   UNL     1      43.388 -15.853   1.757  1.00  0.00     0.030 A 
HETATM   20  C   UNL     1      42.711 -16.192   4.468  1.00  0.00     0.014 A 
HETATM   21  C   UNL     1      42.941 -17.301   3.645  1.00  0.00     0.001 A 
HETATM   22  C   UNL     1      43.276 -17.132   2.306  1.00  0.00     0.002 A 
ENDBRANCH   1  12
BRANCH   1  23
HETATM   23  O   UNL     1      42.173 -14.337   6.788  1.00  0.00    -0.371 OA
HETATM   24  H   UNL     1      41.232 -14.457   6.996  1.00  0.00     0.212 HD
ENDBRANCH   1  23
TORSDOF 2
ENDMDL
MODEL 5
REMARK VINA RESULT:      -8.1      1.878      3.803
REMARK  2 active torsions:
REMARK  status: ('A' for Active; 'I' for Inactive)
REMARK    1  A    between atoms: C_7  and  C_8 
REMARK    2  A    between atoms: C_8  and  O_9 
ROOT
HETATM    1  C   UNL     1      41.010 -15.583   3.744  1.00  0.00     0.199 A 
HETATM    2  C   UNL     1      41.135 -15.187   5.261  1.00  0.00     0.266 A 
HETATM    3  O   UNL     1      40.463 -14.394   5.904  1.00  0.00    -0.269 OA
HETATM    4  N   UNL     1      42.156 -15.969   5.807  1.00  0.00    -0.323 N 
HETATM    5  C   UNL     1      42.737 -16.787   4.852  1.00  0.00     0.045 A 
HETATM    6  C   UNL     1      42.127 -16.598   3.609  1.00  0.00     0.017 A 
HETATM    7  C   UNL     1      43.772 -17.678   5.042  1.00  0.00     0.030 A 
HETATM    8  C   UNL     1      44.200 -18.413   3.934  1.00  0.00     0.002 A 
HETATM    9  C   UNL     1      43.589 -18.243   2.678  1.00  0.00     0.001 A 
HETATM   10  C   UNL     1      42.540 -17.334   2.508  1.00  0.00     0.013 A 
HETATM   11  H   UNL     1      42.422 -15.909   6.779  1.00  0.00     0.169 HD
ENDROOT
BRANCH   1  12
HETATM   12  C   UNL     1      41.314 -14.428   2.809  1.00  0.00     0.025 A 
HETATM   13  C   UNL     1      42.096 -13.295   3.061  1.00  0.00     0.016 A 
HETATM   14  C   UNL     1      42.864 -12.860   4.260  1.00  0.00     0.069 C 
HETATM   15  N   UNL     1      42.084 -12.510   1.937  1.00  0.00    -0.359 N 
HETATM   16  H   UNL     1      42.564 -11.625   1.841  1.00  0.00     0.166 HD
HETATM   17  C   UNL     1      41.311 -13.069   0.955  1.00  0.00     0.043 A 
HETATM   18  C   UNL     1      40.810 -14.267   1.462  1.00  0.00     0.003 A 
HETATM   19  C   UNL     1      41.019 -12.595  -0.331  1.00  0.00     0.030 A 
HETATM   20  C   UNL     1      39.966 -15.026   0.619  1.00  0.00     0.014 A 
HETATM   21  C   UNL     1      39.661 -14.570  -0.669  1.00  0.00     0.001 A 
HETATM   22  C   UNL     1      40.182 -13.369  -1.136  1.00  0.00     0.002 A 
ENDBRANCH   1  12
BRANCH   1  23
HETATM   23  O   UNL     1      39.776 -16.245   3.486  1.00  0.00    -0.371 OA
HETATM   24  H   UNL     1      39.408 -16.495   4.350  1.00  0.00     0.212 HD
ENDBRANCH   1  23
TORSDOF 2
ENDMDL
MODEL 6
REMARK VINA RESULT:      -7.9      1.195      5.369
REMARK  2 active torsions:
REMARK  status: ('A' for Active; 'I' for Inactive)
REMARK    1  A    between atoms: C_7  and  C_8 
REMARK    2  A    between atoms: C_8  and  O_9 
ROOT
HETATM    1  C   UNL     1      41.432 -14.882   4.868  1.00  0.00     0.199 A 
HETATM    2  C   UNL     1      40.673 -15.066   3.502  1.00  0.00     0.266 A 
HETATM    3  O   UNL     1      39.835 -15.901   3.196  1.00  0.00    -0.269 OA
HETATM    4  N   UNL     1      41.085 -14.029   2.661  1.00  0.00    -0.323 N 
HETATM    5  C   UNL     1      42.033 -13.223   3.272  1.00  0.00     0.045 A 
HETATM    6  C   UNL     1      42.300 -13.679   4.566  1.00  0.00     0.017 A 
HETATM    7  C   UNL     1      42.656 -12.120   2.730  1.00  0.00     0.030 A 
HETATM    8  C   UNL     1      43.580 -11.445   3.532  1.00  0.00     0.002 A 
HETATM    9  C   UNL     1      43.854 -11.884   4.840  1.00  0.00     0.001 A 
HETATM   10  C   UNL     1      43.208 -13.006   5.370  1.00  0.00     0.013 A 
HETATM   11  H   UNL     1      40.728 -13.919   1.723  1.00  0.00     0.169 HD
ENDROOT
BRANCH   1  12
HETATM   12  C   UNL     1      42.346 -16.048   5.191  1.00  0.00     0.025 A 
HETATM   13  C   UNL     1      42.905 -16.392   6.427  1.00  0.00     0.016 A 
HETATM   14  C   UNL     1      42.795 -15.774   7.777  1.00  0.00     0.069 C 
HETATM   15  N   UNL     1      43.676 -17.512   6.249  1.00  0.00    -0.359 N 
HETATM   16  H   UNL     1      44.202 -17.977   6.977  1.00  0.00     0.166 HD
HETATM   17  C   UNL     1      43.664 -17.916   4.941  1.00  0.00     0.043 A 
HETATM   18  C   UNL     1      42.846 -17.025   4.247  1.00  0.00     0.003 A 
HETATM   19  C   UNL     1      44.321 -18.992   4.332  1.00  0.00     0.030 A 
HETATM   20  C   UNL     1      42.688 -17.238   2.858  1.00  0.00     0.014 A 
HETATM   21  C   UNL     1      43.336 -18.307   2.229  1.00  0.00     0.001 A 
HETATM   22  C   UNL     1      44.144 -19.173   2.960  1.00  0.00     0.002 A 
ENDBRANCH   1  12
BRANCH   1  23
HETATM   23  O   UNL     1      40.530 -14.529   5.912  1.00  0.00    -0.371 OA
HETATM   24  H   UNL     1      41.033 -14.573   6.741  1.00  0.00     0.212 HD
ENDBRANCH   1  23
TORSDOF 2
ENDMDL
MODEL 7
REMARK VINA RESULT:      -7.9      2.905      5.082
REMARK  2 active torsions:
REMARK  status: ('A' for Active; 'I' for Inactive)
REMARK    1  A    between atoms: C_7  and  C_8 
REMARK    2  A    between atoms: C_8  and  O_9 
ROOT
HETATM    1  C   UNL     1      40.301 -14.493   2.538  1.00  0.00     0.199 A 
HETATM    2  C   UNL     1      40.234 -13.680   3.883  1.00  0.00     0.266 A 
HETATM    3  O   UNL     1      39.446 -12.805   4.212  1.00  0.00    -0.269 OA
HETATM    4  N   UNL     1      41.237 -14.180   4.717  1.00  0.00    -0.323 N 
HETATM    5  C   UNL     1      41.971 -15.175   4.090  1.00  0.00     0.045 A 
HETATM    6  C   UNL     1      41.489 -15.397   2.797  1.00  0.00     0.017 A 
HETATM    7  C   UNL     1      43.034 -15.877   4.616  1.00  0.00     0.030 A 
HETATM    8  C   UNL     1      43.627 -16.848   3.806  1.00  0.00     0.002 A 
HETATM    9  C   UNL     1      43.147 -17.092   2.506  1.00  0.00     0.001 A 
HETATM   10  C   UNL     1      42.066 -16.368   1.993  1.00  0.00     0.013 A 
HETATM   11  H   UNL     1      41.391 -13.827   5.650  1.00  0.00     0.169 HD
ENDROOT
BRANCH   1  12
HETATM   12  C   UNL     1      40.630 -13.621   1.342  1.00  0.00     0.025 A 
HETATM   13  C   UNL     1      41.360 -12.427   1.317  1.00  0.00     0.016 A 
HETATM   14  C   UNL     1      42.035 -11.649   2.392  1.00  0.00     0.069 C 
HETATM   15  N   UNL     1      41.396 -11.976   0.022  1.00  0.00    -0.359 N 
HETATM   16  H   UNL     1      41.855 -11.129  -0.285  1.00  0.00     0.166 HD
HETATM   17  C   UNL     1      40.706 -12.815  -0.810  1.00  0.00     0.043 A 
HETATM   18  C   UNL     1      40.210 -13.854  -0.023  1.00  0.00     0.003 A 
HETATM   19  C   UNL     1      40.484 -12.721  -2.190  1.00  0.00     0.030 A 
HETATM   20  C   UNL     1      39.445 -14.850  -0.672  1.00  0.00     0.014 A 
HETATM   21  C   UNL     1      39.210 -14.775  -2.050  1.00  0.00     0.001 A 
HETATM   22  C   UNL     1      39.724 -13.722  -2.798  1.00  0.00     0.002 A 
ENDBRANCH   1  12
BRANCH   1  23
HETATM   23  O   UNL     1      39.147 -15.311   2.376  1.00  0.00    -0.371 OA
HETATM   24  H   UNL     1      38.684 -14.987   1.586  1.00  0.00     0.212 HD
ENDBRANCH   1  23
TORSDOF 2
ENDMDL
MODEL 8
REMARK VINA RESULT:      -7.6      2.468      5.842
REMARK  2 active torsions:
REMARK  status: ('A' for Active; 'I' for Inactive)
REMARK    1  A    between atoms: C_7  and  C_8 
REMARK    2  A    between atoms: C_8  and  O_9 
ROOT
HETATM    1  C   UNL     1      42.424 -12.805   3.826  1.00  0.00     0.199 A 
HETATM    2  C   UNL     1      43.462 -11.637   4.004  1.00  0.00     0.266 A 
HETATM    3  O   UNL     1      44.579 -11.523   3.521  1.00  0.00    -0.269 OA
HETATM    4  N   UNL     1      42.853 -10.663   4.799  1.00  0.00    -0.323 N 
HETATM    5  C   UNL     1      41.583 -11.051   5.196  1.00  0.00     0.045 A 
HETATM    6  C   UNL     1      41.272 -12.311   4.677  1.00  0.00     0.017 A 
HETATM    7  C   UNL     1      40.708 -10.339   5.988  1.00  0.00     0.030 A 
HETATM    8  C   UNL     1      39.467 -10.921   6.259  1.00  0.00     0.002 A 
HETATM    9  C   UNL     1      39.134 -12.183   5.735  1.00  0.00     0.001 A 
HETATM   10  C   UNL     1      40.036 -12.888   4.932  1.00  0.00     0.013 A 
HETATM   11  H   UNL     1      43.315  -9.801   5.049  1.00  0.00     0.169 HD
ENDROOT
BRANCH   1  12
HETATM   12  C   UNL     1      42.910 -14.115   4.415  1.00  0.00     0.025 A 
HETATM   13  C   UNL     1      43.354 -14.366   5.718  1.00  0.00     0.016 A 
HETATM   14  C   UNL     1      43.485 -13.487   6.913  1.00  0.00     0.069 C 
HETATM   15  N   UNL     1      43.709 -15.688   5.801  1.00  0.00    -0.359 N 
HETATM   16  H   UNL     1      44.069 -16.142   6.630  1.00  0.00     0.166 HD
HETATM   17  C   UNL     1      43.534 -16.321   4.600  1.00  0.00     0.043 A 
HETATM   18  C   UNL     1      43.039 -15.372   3.707  1.00  0.00     0.003 A 
HETATM   19  C   UNL     1      43.786 -17.652   4.246  1.00  0.00     0.030 A 
HETATM   20  C   UNL     1      42.788 -15.797   2.382  1.00  0.00     0.014 A 
HETATM   21  C   UNL     1      43.033 -17.123   2.007  1.00  0.00     0.001 A 
HETATM   22  C   UNL     1      43.527 -18.038   2.930  1.00  0.00     0.002 A 
ENDBRANCH   1  12
BRANCH   1  23
HETATM   23  O   UNL     1      41.975 -12.892   2.477  1.00  0.00    -0.371 OA
HETATM   24  H   UNL     1      42.566 -13.516   2.026  1.00  0.00     0.212 HD
ENDBRANCH   1  23
TORSDOF 2
ENDMDL
MODEL 9
REMARK VINA RESULT:      -7.4      9.286     11.314
REMARK  2 active torsions:
REMARK  status: ('A' for Active; 'I' for Inactive)
REMARK    1  A    between atoms: C_7  and  C_8 
REMARK    2  A    between atoms: C_8  and  O_9 
ROOT
HETATM    1  C   UNL     1      39.988  -8.879  12.253  1.00  0.00     0.199 A 
HETATM    2  C   UNL     1      40.283 -10.275  12.915  1.00  0.00     0.266 A 
HETATM    3  O   UNL     1      39.537 -10.986  13.572  1.00  0.00    -0.269 OA
HETATM    4  N   UNL     1      41.589 -10.627  12.566  1.00  0.00    -0.323 N 
HETATM    5  C   UNL     1      42.197  -9.640  11.806  1.00  0.00     0.045 A 
HETATM    6  C   UNL     1      41.320  -8.572  11.600  1.00  0.00     0.017 A 
HETATM    7  C   UNL     1      43.479  -9.655  11.300  1.00  0.00     0.030 A 
HETATM    8  C   UNL     1      43.887  -8.550  10.550  1.00  0.00     0.002 A 
HETATM    9  C   UNL     1      43.013  -7.470  10.324  1.00  0.00     0.001 A 
HETATM   10  C   UNL     1      41.716  -7.477  10.846  1.00  0.00     0.013 A 
HETATM   11  H   UNL     1      42.013 -11.495  12.861  1.00  0.00     0.169 HD
ENDROOT
BRANCH   1  12
HETATM   12  C   UNL     1      39.709  -7.794  13.276  1.00  0.00     0.025 A 
HETATM   13  C   UNL     1      38.604  -6.938  13.349  1.00  0.00     0.016 A 
HETATM   14  C   UNL     1      37.386  -6.809  12.503  1.00  0.00     0.069 C 
HETATM   15  N   UNL     1      38.777  -6.109  14.427  1.00  0.00    -0.359 N 
HETATM   16  H   UNL     1      38.131  -5.386  14.714  1.00  0.00     0.166 HD
HETATM   17  C   UNL     1      39.960  -6.369  15.063  1.00  0.00     0.043 A 
HETATM   18  C   UNL     1      40.574  -7.414  14.373  1.00  0.00     0.003 A 
HETATM   19  C   UNL     1      40.527  -5.752  16.186  1.00  0.00     0.030 A 
HETATM   20  C   UNL     1      41.831  -7.855  14.846  1.00  0.00     0.014 A 
HETATM   21  C   UNL     1      42.415  -7.251  15.966  1.00  0.00     0.001 A 
HETATM   22  C   UNL     1      41.768  -6.212  16.626  1.00  0.00     0.002 A 
ENDBRANCH   1  12
BRANCH   1  23
HETATM   23  O   UNL     1      39.007  -8.994  11.228  1.00  0.00    -0.371 OA
HETATM   24  H   UNL     1      38.465  -8.189  11.269  1.00  0.00     0.212 HD
ENDBRANCH   1  23
TORSDOF 2
ENDMDL
MODEL 10
REMARK VINA RESULT:      -7.3      2.457      3.312
REMARK  2 active torsions:
REMARK  status: ('A' for Active; 'I' for Inactive)
REMARK    1  A    between atoms: C_7  and  C_8 
REMARK    2  A    between atoms: C_8  and  O_9 
ROOT
HETATM    1  C   UNL     1      41.083 -13.391   1.980  1.00  0.00     0.199 A 
HETATM    2  C   UNL     1      39.724 -13.824   2.643  1.00  0.00     0.266 A 
HETATM    3  O   UNL     1      38.723 -13.155   2.849  1.00  0.00    -0.269 OA
HETATM    4  N   UNL     1      39.822 -15.189   2.926  1.00  0.00    -0.323 N 
HETATM    5  C   UNL     1      41.065 -15.694   2.578  1.00  0.00     0.045 A 
HETATM    6  C   UNL     1      41.867 -14.687   2.033  1.00  0.00     0.017 A 
HETATM    7  C   UNL     1      41.503 -16.992   2.724  1.00  0.00     0.030 A 
HETATM    8  C   UNL     1      42.800 -17.286   2.296  1.00  0.00     0.002 A 
HETATM    9  C   UNL     1      43.617 -16.286   1.736  1.00  0.00     0.001 A 
HETATM   10  C   UNL     1      43.151 -14.975   1.595  1.00  0.00     0.013 A 
HETATM   11  H   UNL     1      39.066 -15.710   3.347  1.00  0.00     0.169 HD
ENDROOT
BRANCH   1  12
HETATM   12  C   UNL     1      41.832 -12.359   2.801  1.00  0.00     0.025 A 
HETATM   13  C   UNL     1      42.059 -11.012   2.498  1.00  0.00     0.016 A 
HETATM   14  C   UNL     1      41.658 -10.170   1.336  1.00  0.00     0.069 C 
HETATM   15  N   UNL     1      42.793 -10.462   3.518  1.00  0.00    -0.359 N 
HETATM   16  H   UNL     1      43.103  -9.501   3.558  1.00  0.00     0.166 HD
HETATM   17  C   UNL     1      43.076 -11.395   4.478  1.00  0.00     0.043 A 
HETATM   18  C   UNL     1      42.496 -12.595   4.065  1.00  0.00     0.003 A 
HETATM   19  C   UNL     1      43.806 -11.262   5.666  1.00  0.00     0.030 A 
HETATM   20  C   UNL     1      42.667 -13.720   4.904  1.00  0.00     0.014 A 
HETATM   21  C   UNL     1      43.394 -13.609   6.096  1.00  0.00     0.001 A 
HETATM   22  C   UNL     1      43.956 -12.393   6.470  1.00  0.00     0.002 A 
ENDBRANCH   1  12
BRANCH   1  23
HETATM   23  O   UNL     1      40.898 -13.040   0.613  1.00  0.00    -0.371 OA
HETATM   24  H   UNL     1      40.109 -12.476   0.574  1.00  0.00     0.212 HD
ENDBRANCH   1  23
TORSDOF 2
ENDMDL
