MODEL 1
REMARK VINA RESULT:      -8.0      0.000      0.000
REMARK  6 active torsions:
REMARK  status: ('A' for Active; 'I' for Inactive)
REMARK    1  A    between atoms: O_2  and  C_3 
REMARK    2  A    between atoms: C_4  and  N_5 
REMARK       I    between atoms: N_5  and  C_6 
REMARK       I    between atoms: C_6  and  N_7 
REMARK    3  A    between atoms: N_7  and  C_8 
REMARK    4  A    between atoms: C_8  and  C_9 
REMARK    5  A    between atoms: C_9  and  C_10 
REMARK    6  A    between atoms: C_10  and  N_11 
ROOT
HETATM    1  N   UNL     1      39.629 -14.319   0.983  1.00  0.00    -0.306 N 
HETATM    2  C   UNL     1      40.535 -14.985   1.775  1.00  0.00     0.320 C 
HETATM    3  N   UNL     1      40.045 -15.164   3.054  1.00  0.00    -0.343 N 
HETATM    4  O   UNL     1      41.634 -15.390   1.427  1.00  0.00    -0.247 OA
HETATM    5  H   UNL     1      38.670 -14.277   1.298  1.00  0.00     0.171 HD
HETATM    6  H   UNL     1      39.077 -14.927   3.203  1.00  0.00     0.164 HD
ENDROOT
BRANCH   3   7
HETATM    7  C   UNL     1      40.634 -16.113   3.981  1.00  0.00     0.126 C 
BRANCH   7   8
HETATM    8  C   UNL     1      41.671 -15.554   4.949  1.00  0.00     0.040 C 
BRANCH   8   9
HETATM    9  C   UNL     1      43.094 -15.978   4.609  1.00  0.00     0.130 C 
BRANCH   9  10
HETATM   10  N   UNL     1      43.353 -17.351   5.019  1.00  0.00    -0.356 N 
HETATM   11  C   UNL     1      43.524 -18.425   4.168  1.00  0.00     0.044 A 
HETATM   12  C   UNL     1      43.719 -19.551   4.973  1.00  0.00    -0.008 A 
HETATM   13  C   UNL     1      43.508 -18.507   2.766  1.00  0.00     0.030 A 
HETATM   14  C   UNL     1      43.914 -20.804   4.358  1.00  0.00     0.014 A 
HETATM   15  C   UNL     1      43.665 -19.119   6.326  1.00  0.00     0.031 A 
HETATM   16  C   UNL     1      43.906 -20.895   2.962  1.00  0.00     0.001 A 
HETATM   17  C   UNL     1      43.705 -19.761   2.180  1.00  0.00     0.002 A 
HETATM   18  C   UNL     1      43.441 -17.763   6.324  1.00  0.00     0.092 A 
ENDBRANCH   9  10
ENDBRANCH   8   9
ENDBRANCH   7   8
ENDBRANCH   3   7
BRANCH   1  19
HETATM   19  C   UNL     1      39.819 -13.891  -0.347  1.00  0.00     0.069 A 
HETATM   20  C   UNL     1      40.532 -12.700  -0.556  1.00  0.00     0.095 A 
HETATM   21  C   UNL     1      40.830 -12.249  -1.844  1.00  0.00     0.039 A 
HETATM   22  C   UNL     1      40.379 -12.974  -2.944  1.00  0.00     0.003 A 
HETATM   23  C   UNL     1      39.645 -14.145  -2.752  1.00  0.00     0.002 A 
HETATM   24  C   UNL     1      39.368 -14.604  -1.459  1.00  0.00     0.032 A 
BRANCH  20  25
HETATM   25  O   UNL     1      40.964 -11.955   0.515  1.00  0.00    -0.354 OA
HETATM   26  C   UNL     1      40.161 -10.777   0.644  1.00  0.00     0.210 C 
ENDBRANCH  20  25
ENDBRANCH   1  19
TORSDOF 6
ENDMDL
MODEL 2
REMARK VINA RESULT:      -7.9      4.910      6.883
REMARK  6 active torsions:
REMARK  status: ('A' for Active; 'I' for Inactive)
REMARK    1  A    between atoms: O_2  and  C_3 
REMARK    2  A    between atoms: C_4  and  N_5 
REMARK       I    between atoms: N_5  and  C_6 
REMARK       I    between atoms: C_6  and  N_7 
REMARK    3  A    between atoms: N_7  and  C_8 
REMARK    4  A    between atoms: C_8  and  C_9 
REMARK    5  A    between atoms: C_9  and  C_10 
REMARK    6  A    between atoms: C_10  and  N_11 
ROOT
HETATM    1  N   UNL     1      42.829 -11.497   7.343  1.00  0.00    -0.306 N 
HETATM    2  C   UNL     1      42.432 -12.013   6.131  1.00  0.00     0.320 C 
HETATM    3  N   UNL     1      41.298 -12.790   6.265  1.00  0.00    -0.343 N 
HETATM    4  O   UNL     1      42.978 -11.823   5.054  1.00  0.00    -0.247 OA
HETATM    5  H   UNL     1      42.160 -11.501   8.098  1.00  0.00     0.171 HD
HETATM    6  H   UNL     1      40.840 -12.766   7.162  1.00  0.00     0.164 HD
ENDROOT
BRANCH   3   7
HETATM    7  C   UNL     1      40.482 -13.169   5.127  1.00  0.00     0.126 C 
BRANCH   7   8
HETATM    8  C   UNL     1      40.652 -14.599   4.624  1.00  0.00     0.040 C 
BRANCH   8   9
HETATM    9  C   UNL     1      41.871 -14.775   3.727  1.00  0.00     0.130 C 
BRANCH   9  10
HETATM   10  N   UNL     1      42.784 -15.777   4.261  1.00  0.00    -0.356 N 
HETATM   11  C   UNL     1      43.055 -17.004   3.689  1.00  0.00     0.044 A 
HETATM   12  C   UNL     1      43.956 -17.655   4.537  1.00  0.00    -0.008 A 
HETATM   13  C   UNL     1      42.578 -17.602   2.511  1.00  0.00     0.030 A 
HETATM   14  C   UNL     1      44.403 -18.947   4.195  1.00  0.00     0.014 A 
HETATM   15  C   UNL     1      44.217 -16.782   5.628  1.00  0.00     0.031 A 
HETATM   16  C   UNL     1      43.937 -19.548   3.020  1.00  0.00     0.001 A 
HETATM   17  C   UNL     1      43.037 -18.883   2.193  1.00  0.00     0.002 A 
HETATM   18  C   UNL     1      43.485 -15.635   5.432  1.00  0.00     0.092 A 
ENDBRANCH   9  10
ENDBRANCH   8   9
ENDBRANCH   7   8
ENDBRANCH   3   7
BRANCH   1  19
HETATM   19  C   UNL     1      43.985 -10.731   7.600  1.00  0.00     0.069 A 
HETATM   20  C   UNL     1      43.812  -9.445   8.136  1.00  0.00     0.095 A 
HETATM   21  C   UNL     1      44.906  -8.653   8.491  1.00  0.00     0.039 A 
HETATM   22  C   UNL     1      46.196  -9.132   8.274  1.00  0.00     0.003 A 
HETATM   23  C   UNL     1      46.383 -10.397   7.716  1.00  0.00     0.002 A 
HETATM   24  C   UNL     1      45.283 -11.195   7.382  1.00  0.00     0.032 A 
BRANCH  20  25
HETATM   25  O   UNL     1      42.548  -8.942   8.335  1.00  0.00    -0.354 OA
HETATM   26  C   UNL     1      42.316  -8.751   9.734  1.00  0.00     0.210 C 
ENDBRANCH  20  25
ENDBRANCH   1  19
TORSDOF 6
ENDMDL
MODEL 3
REMARK VINA RESULT:      -7.9      1.962      8.127
REMARK  6 active torsions:
REMARK  status: ('A' for Active; 'I' for Inactive)
REMARK    1  A    between atoms: O_2  and  C_3 
REMARK    2  A    between atoms: C_4  and  N_5 
REMARK       I    between atoms: N_5  and  C_6 
REMARK       I    between atoms: C_6  and  N_7 
REMARK    3  A    between atoms: N_7  and  C_8 
REMARK    4  A    between atoms: C_8  and  C_9 
REMARK    5  A    between atoms: C_9  and  C_10 
REMARK    6  A    between atoms: C_10  and  N_11 
ROOT
HETATM    1  N   UNL     1      43.080 -16.576   3.176  1.00  0.00    -0.306 N 
HETATM    2  C   UNL     1      41.947 -15.952   3.645  1.00  0.00     0.320 C 
HETATM    3  N   UNL     1      42.044 -14.580   3.523  1.00  0.00    -0.343 N 
HETATM    4  O   UNL     1      40.959 -16.506   4.106  1.00  0.00    -0.247 OA
HETATM    5  H   UNL     1      43.699 -16.043   2.583  1.00  0.00     0.171 HD
HETATM    6  H   UNL     1      42.830 -14.229   2.999  1.00  0.00     0.164 HD
ENDROOT
BRANCH   3   7
HETATM    7  C   UNL     1      40.885 -13.712   3.619  1.00  0.00     0.126 C 
BRANCH   7   8
HETATM    8  C   UNL     1      39.929 -13.731   2.431  1.00  0.00     0.040 C 
BRANCH   8   9
HETATM    9  C   UNL     1      40.470 -12.983   1.219  1.00  0.00     0.130 C 
BRANCH   9  10
HETATM   10  N   UNL     1      39.401 -12.611   0.302  1.00  0.00    -0.356 N 
HETATM   11  C   UNL     1      39.048 -13.300  -0.842  1.00  0.00     0.044 A 
HETATM   12  C   UNL     1      38.001 -12.588  -1.435  1.00  0.00    -0.008 A 
HETATM   13  C   UNL     1      39.564 -14.474  -1.412  1.00  0.00     0.030 A 
HETATM   14  C   UNL     1      37.444 -13.068  -2.637  1.00  0.00     0.014 A 
HETATM   15  C   UNL     1      37.737 -11.459  -0.612  1.00  0.00     0.031 A 
HETATM   16  C   UNL     1      37.948 -14.241  -3.209  1.00  0.00     0.001 A 
HETATM   17  C   UNL     1      38.994 -14.931  -2.604  1.00  0.00     0.002 A 
HETATM   18  C   UNL     1      38.611 -11.500   0.448  1.00  0.00     0.092 A 
ENDBRANCH   9  10
ENDBRANCH   8   9
ENDBRANCH   7   8
ENDBRANCH   3   7
BRANCH   1  19
HETATM   19  C   UNL     1      43.366 -17.957   3.218  1.00  0.00     0.069 A 
HETATM   20  C   UNL     1      43.941 -18.470   4.391  1.00  0.00     0.095 A 
HETATM   21  C   UNL     1      44.184 -19.837   4.542  1.00  0.00     0.039 A 
HETATM   22  C   UNL     1      43.886 -20.705   3.494  1.00  0.00     0.003 A 
HETATM   23  C   UNL     1      43.341 -20.205   2.311  1.00  0.00     0.002 A 
HETATM   24  C   UNL     1      43.079 -18.837   2.173  1.00  0.00     0.032 A 
BRANCH  20  25
HETATM   25  O   UNL     1      44.267 -17.629   5.428  1.00  0.00    -0.354 OA
HETATM   26  C   UNL     1      43.412 -17.885   6.548  1.00  0.00     0.210 C 
ENDBRANCH  20  25
ENDBRANCH   1  19
TORSDOF 6
ENDMDL
MODEL 4
REMARK VINA RESULT:      -7.8      2.377      3.716
REMARK  6 active torsions:
REMARK  status: ('A' for Active; 'I' for Inactive)
REMARK    1  A    between atoms: O_2  and  C_3 
REMARK    2  A    between atoms: C_4  and  N_5 
REMARK       I    between atoms: N_5  and  C_6 
REMARK       I    between atoms: C_6  and  N_7 
REMARK    3  A    between atoms: N_7  and  C_8 
REMARK    4  A    between atoms: C_8  and  C_9 
REMARK    5  A    between atoms: C_9  and  C_10 
REMARK    6  A    between atoms: C_10  and  N_11 
ROOT
HETATM    1  N   UNL     1      39.904 -13.414   5.020  1.00  0.00    -0.306 N 
HETATM    2  C   UNL     1      41.189 -13.571   5.486  1.00  0.00     0.320 C 
HETATM    3  N   UNL     1      41.212 -14.312   6.651  1.00  0.00    -0.343 N 
HETATM    4  O   UNL     1      42.203 -13.135   4.960  1.00  0.00    -0.247 OA
HETATM    5  H   UNL     1      39.194 -14.033   5.381  1.00  0.00     0.171 HD
HETATM    6  H   UNL     1      40.346 -14.748   6.924  1.00  0.00     0.164 HD
ENDROOT
BRANCH   3   7
HETATM    7  C   UNL     1      42.432 -14.907   7.163  1.00  0.00     0.126 C 
BRANCH   7   8
HETATM    8  C   UNL     1      42.667 -16.372   6.808  1.00  0.00     0.040 C 
BRANCH   8   9
HETATM    9  C   UNL     1      43.951 -16.595   6.018  1.00  0.00     0.130 C 
BRANCH   9  10
HETATM   10  N   UNL     1      43.669 -17.018   4.653  1.00  0.00    -0.356 N 
HETATM   11  C   UNL     1      43.723 -18.318   4.188  1.00  0.00     0.044 A 
HETATM   12  C   UNL     1      43.412 -18.272   2.826  1.00  0.00    -0.008 A 
HETATM   13  C   UNL     1      44.030 -19.523   4.840  1.00  0.00     0.030 A 
HETATM   14  C   UNL     1      43.400 -19.473   2.088  1.00  0.00     0.014 A 
HETATM   15  C   UNL     1      43.168 -16.912   2.492  1.00  0.00     0.031 A 
HETATM   16  C   UNL     1      43.699 -20.679   2.730  1.00  0.00     0.001 A 
HETATM   17  C   UNL     1      44.010 -20.701   4.087  1.00  0.00     0.002 A 
HETATM   18  C   UNL     1      43.331 -16.165   3.635  1.00  0.00     0.092 A 
ENDBRANCH   9  10
ENDBRANCH   8   9
ENDBRANCH   7   8
ENDBRANCH   3   7
BRANCH   1  19
HETATM   19  C   UNL     1      39.492 -12.650   3.908  1.00  0.00     0.069 A 
HETATM   20  C   UNL     1      39.427 -13.293   2.662  1.00  0.00     0.095 A 
HETATM   21  C   UNL     1      38.956 -12.629   1.527  1.00  0.00     0.039 A 
HETATM   22  C   UNL     1      38.579 -11.292   1.623  1.00  0.00     0.003 A 
HETATM   23  C   UNL     1      38.665 -10.632   2.850  1.00  0.00     0.002 A 
HETATM   24  C   UNL     1      39.117 -11.308   3.989  1.00  0.00     0.032 A 
BRANCH  20  25
HETATM   25  O   UNL     1      39.819 -14.605   2.537  1.00  0.00    -0.354 OA
HETATM   26  C   UNL     1      40.376 -14.824   1.237  1.00  0.00     0.210 C 
ENDBRANCH  20  25
ENDBRANCH   1  19
TORSDOF 6
ENDMDL
MODEL 5
REMARK VINA RESULT:      -7.8      2.699      6.894
REMARK  6 active torsions:
REMARK  status: ('A' for Active; 'I' for Inactive)
REMARK    1  A    between atoms: O_2  and  C_3 
REMARK    2  A    between atoms: C_4  and  N_5 
REMARK       I    between atoms: N_5  and  C_6 
REMARK       I    between atoms: C_6  and  N_7 
REMARK    3  A    between atoms: N_7  and  C_8 
REMARK    4  A    between atoms: C_8  and  C_9 
REMARK    5  A    between atoms: C_9  and  C_10 
REMARK    6  A    between atoms: C_10  and  N_11 
ROOT
HETATM    1  N   UNL     1      43.322 -16.948   2.054  1.00  0.00    -0.306 N 
HETATM    2  C   UNL     1      42.151 -16.226   2.052  1.00  0.00     0.320 C 
HETATM    3  N   UNL     1      42.295 -15.040   1.359  1.00  0.00    -0.343 N 
HETATM    4  O   UNL     1      41.098 -16.561   2.576  1.00  0.00    -0.247 OA
HETATM    5  H   UNL     1      44.027 -16.703   1.375  1.00  0.00     0.171 HD
HETATM    6  H   UNL     1      43.151 -14.922   0.841  1.00  0.00     0.164 HD
ENDROOT
BRANCH   3   7
HETATM    7  C   UNL     1      41.154 -14.261   0.916  1.00  0.00     0.126 C 
BRANCH   7   8
HETATM    8  C   UNL     1      40.551 -13.307   1.942  1.00  0.00     0.040 C 
BRANCH   8   9
HETATM    9  C   UNL     1      41.596 -12.446   2.641  1.00  0.00     0.130 C 
BRANCH   9  10
HETATM   10  N   UNL     1      41.836 -12.902   4.003  1.00  0.00    -0.356 N 
HETATM   11  C   UNL     1      42.889 -12.512   4.807  1.00  0.00     0.044 A 
HETATM   12  C   UNL     1      42.755 -13.205   6.013  1.00  0.00    -0.008 A 
HETATM   13  C   UNL     1      43.952 -11.624   4.575  1.00  0.00     0.030 A 
HETATM   14  C   UNL     1      43.711 -13.001   7.028  1.00  0.00     0.014 A 
HETATM   15  C   UNL     1      41.592 -14.016   5.909  1.00  0.00     0.031 A 
HETATM   16  C   UNL     1      44.770 -12.114   6.808  1.00  0.00     0.001 A 
HETATM   17  C   UNL     1      44.887 -11.437   5.597  1.00  0.00     0.002 A 
HETATM   18  C   UNL     1      41.047 -13.808   4.664  1.00  0.00     0.092 A 
ENDBRANCH   9  10
ENDBRANCH   8   9
ENDBRANCH   7   8
ENDBRANCH   3   7
BRANCH   1  19
HETATM   19  C   UNL     1      43.569 -18.161   2.730  1.00  0.00     0.069 A 
HETATM   20  C   UNL     1      43.958 -18.091   4.077  1.00  0.00     0.095 A 
HETATM   21  C   UNL     1      44.147 -19.247   4.838  1.00  0.00     0.039 A 
HETATM   22  C   UNL     1      43.983 -20.494   4.241  1.00  0.00     0.003 A 
HETATM   23  C   UNL     1      43.623 -20.579   2.896  1.00  0.00     0.002 A 
HETATM   24  C   UNL     1      43.414 -19.417   2.143  1.00  0.00     0.032 A 
BRANCH  20  25
HETATM   25  O   UNL     1      44.151 -16.871   4.680  1.00  0.00    -0.354 OA
HETATM   26  C   UNL     1      44.058 -17.012   6.102  1.00  0.00     0.210 C 
ENDBRANCH  20  25
ENDBRANCH   1  19
TORSDOF 6
ENDMDL
MODEL 6
REMARK VINA RESULT:      -7.7      1.894      7.447
REMARK  6 active torsions:
REMARK  status: ('A' for Active; 'I' for Inactive)
REMARK    1  A    between atoms: O_2  and  C_3 
REMARK    2  A    between atoms: C_4  and  N_5 
REMARK       I    between atoms: N_5  and  C_6 
REMARK       I    between atoms: C_6  and  N_7 
REMARK    3  A    between atoms: N_7  and  C_8 
REMARK    4  A    between atoms: C_8  and  C_9 
REMARK    5  A    between atoms: C_9  and  C_10 
REMARK    6  A    between atoms: C_10  and  N_11 
ROOT
HETATM    1  N   UNL     1      42.798 -15.674   3.702  1.00  0.00    -0.306 N 
HETATM    2  C   UNL     1      41.605 -15.227   4.221  1.00  0.00     0.320 C 
HETATM    3  N   UNL     1      41.613 -13.855   4.383  1.00  0.00    -0.343 N 
HETATM    4  O   UNL     1      40.639 -15.920   4.506  1.00  0.00    -0.247 OA
HETATM    5  H   UNL     1      43.404 -14.996   3.265  1.00  0.00     0.171 HD
HETATM    6  H   UNL     1      42.395 -13.359   3.986  1.00  0.00     0.164 HD
ENDROOT
BRANCH   3   7
HETATM    7  C   UNL     1      40.394 -13.095   4.586  1.00  0.00     0.126 C 
BRANCH   7   8
HETATM    8  C   UNL     1      39.642 -12.678   3.325  1.00  0.00     0.040 C 
BRANCH   8   9
HETATM    9  C   UNL     1      40.569 -12.295   2.178  1.00  0.00     0.130 C 
BRANCH   9  10
HETATM   10  N   UNL     1      40.369 -13.156   1.021  1.00  0.00    -0.356 N 
HETATM   11  C   UNL     1      40.565 -12.791  -0.296  1.00  0.00     0.044 A 
HETATM   12  C   UNL     1      40.232 -13.901  -1.077  1.00  0.00    -0.008 A 
HETATM   13  C   UNL     1      40.990 -11.581  -0.868  1.00  0.00     0.030 A 
HETATM   14  C   UNL     1      40.333 -13.805  -2.480  1.00  0.00     0.014 A 
HETATM   15  C   UNL     1      39.836 -14.939  -0.191  1.00  0.00     0.031 A 
HETATM   16  C   UNL     1      40.762 -12.605  -3.058  1.00  0.00     0.001 A 
HETATM   17  C   UNL     1      41.084 -11.511  -2.261  1.00  0.00     0.002 A 
HETATM   18  C   UNL     1      39.932 -14.454   1.092  1.00  0.00     0.092 A 
ENDBRANCH   9  10
ENDBRANCH   8   9
ENDBRANCH   7   8
ENDBRANCH   3   7
BRANCH   1  19
HETATM   19  C   UNL     1      43.178 -17.015   3.483  1.00  0.00     0.069 A 
HETATM   20  C   UNL     1      43.907 -17.662   4.493  1.00  0.00     0.095 A 
HETATM   21  C   UNL     1      44.253 -19.010   4.386  1.00  0.00     0.039 A 
HETATM   22  C   UNL     1      43.903 -19.719   3.240  1.00  0.00     0.003 A 
HETATM   23  C   UNL     1      43.203 -19.081   2.216  1.00  0.00     0.002 A 
HETATM   24  C   UNL     1      42.839 -17.735   2.336  1.00  0.00     0.032 A 
BRANCH  20  25
HETATM   25  O   UNL     1      44.286 -16.975   5.622  1.00  0.00    -0.354 OA
HETATM   26  C   UNL     1      43.542 -17.447   6.750  1.00  0.00     0.210 C 
ENDBRANCH  20  25
ENDBRANCH   1  19
TORSDOF 6
ENDMDL
MODEL 7
REMARK VINA RESULT:      -7.5      4.507      7.720
REMARK  6 active torsions:
REMARK  status: ('A' for Active; 'I' for Inactive)
REMARK    1  A    between atoms: O_2  and  C_3 
REMARK    2  A    between atoms: C_4  and  N_5 
REMARK       I    between atoms: N_5  and  C_6 
REMARK       I    between atoms: C_6  and  N_7 
REMARK    3  A    between atoms: N_7  and  C_8 
REMARK    4  A    between atoms: C_8  and  C_9 
REMARK    5  A    between atoms: C_9  and  C_10 
REMARK    6  A    between atoms: C_10  and  N_11 
ROOT
HETATM    1  N   UNL     1      41.277 -15.907   4.465  1.00  0.00    -0.306 N 
HETATM    2  C   UNL     1      41.159 -14.571   4.159  1.00  0.00     0.320 C 
HETATM    3  N   UNL     1      40.059 -14.010   4.778  1.00  0.00    -0.343 N 
HETATM    4  O   UNL     1      41.914 -13.927   3.445  1.00  0.00    -0.247 OA
HETATM    5  H   UNL     1      40.764 -16.254   5.262  1.00  0.00     0.171 HD
HETATM    6  H   UNL     1      39.586 -14.582   5.459  1.00  0.00     0.164 HD
ENDROOT
BRANCH   3   7
HETATM    7  C   UNL     1      39.892 -12.575   4.903  1.00  0.00     0.126 C 
BRANCH   7   8
HETATM    8  C   UNL     1      40.518 -11.928   6.135  1.00  0.00     0.040 C 
BRANCH   8   9
HETATM    9  C   UNL     1      41.558 -10.870   5.789  1.00  0.00     0.130 C 
BRANCH   9  10
HETATM   10  N   UNL     1      42.860 -11.200   6.351  1.00  0.00    -0.356 N 
HETATM   11  C   UNL     1      43.586 -10.407   7.218  1.00  0.00     0.044 A 
HETATM   12  C   UNL     1      44.779 -11.084   7.483  1.00  0.00    -0.008 A 
HETATM   13  C   UNL     1      43.304  -9.151   7.779  1.00  0.00     0.030 A 
HETATM   14  C   UNL     1      45.724 -10.491   8.344  1.00  0.00     0.014 A 
HETATM   15  C   UNL     1      44.745 -12.304   6.754  1.00  0.00     0.031 A 
HETATM   16  C   UNL     1      45.450  -9.243   8.913  1.00  0.00     0.001 A 
HETATM   17  C   UNL     1      44.256  -8.584   8.632  1.00  0.00     0.002 A 
HETATM   18  C   UNL     1      43.553 -12.350   6.069  1.00  0.00     0.092 A 
ENDBRANCH   9  10
ENDBRANCH   8   9
ENDBRANCH   7   8
ENDBRANCH   3   7
BRANCH   1  19
HETATM   19  C   UNL     1      42.227 -16.814   3.951  1.00  0.00     0.069 A 
HETATM   20  C   UNL     1      43.186 -17.329   4.837  1.00  0.00     0.095 A 
HETATM   21  C   UNL     1      44.112 -18.290   4.425  1.00  0.00     0.039 A 
HETATM   22  C   UNL     1      44.109 -18.719   3.100  1.00  0.00     0.003 A 
HETATM   23  C   UNL     1      43.179 -18.196   2.202  1.00  0.00     0.002 A 
HETATM   24  C   UNL     1      42.239 -17.249   2.625  1.00  0.00     0.032 A 
BRANCH  20  25
HETATM   25  O   UNL     1      43.225 -16.900   6.143  1.00  0.00    -0.354 OA
HETATM   26  C   UNL     1      44.456 -16.216   6.393  1.00  0.00     0.210 C 
ENDBRANCH  20  25
ENDBRANCH   1  19
TORSDOF 6
ENDMDL
MODEL 8
REMARK VINA RESULT:      -7.5      4.670      8.057
REMARK  6 active torsions:
REMARK  status: ('A' for Active; 'I' for Inactive)
REMARK    1  A    between atoms: O_2  and  C_3 
REMARK    2  A    between atoms: C_4  and  N_5 
REMARK       I    between atoms: N_5  and  C_6 
REMARK       I    between atoms: C_6  and  N_7 
REMARK    3  A    between atoms: N_7  and  C_8 
REMARK    4  A    between atoms: C_8  and  C_9 
REMARK    5  A    between atoms: C_9  and  C_10 
REMARK    6  A    between atoms: C_10  and  N_11 
ROOT
HETATM    1  N   UNL     1      42.636 -15.892   3.551  1.00  0.00    -0.306 N 
HETATM    2  C   UNL     1      42.944 -14.804   2.768  1.00  0.00     0.320 C 
HETATM    3  N   UNL     1      42.276 -13.673   3.195  1.00  0.00    -0.343 N 
HETATM    4  O   UNL     1      43.713 -14.796   1.817  1.00  0.00    -0.247 OA
HETATM    5  H   UNL     1      42.211 -15.719   4.450  1.00  0.00     0.171 HD
HETATM    6  H   UNL     1      41.782 -13.746   4.070  1.00  0.00     0.164 HD
ENDROOT
BRANCH   3   7
HETATM    7  C   UNL     1      42.666 -12.340   2.775  1.00  0.00     0.126 C 
BRANCH   7   8
HETATM    8  C   UNL     1      43.624 -11.597   3.701  1.00  0.00     0.040 C 
BRANCH   8   9
HETATM    9  C   UNL     1      43.650 -12.166   5.114  1.00  0.00     0.130 C 
BRANCH   9  10
HETATM   10  N   UNL     1      43.361 -11.139   6.107  1.00  0.00    -0.356 N 
HETATM   11  C   UNL     1      44.288 -10.545   6.941  1.00  0.00     0.044 A 
HETATM   12  C   UNL     1      43.586  -9.645   7.748  1.00  0.00    -0.008 A 
HETATM   13  C   UNL     1      45.674 -10.731   7.066  1.00  0.00     0.030 A 
HETATM   14  C   UNL     1      44.293  -8.897   8.710  1.00  0.00     0.014 A 
HETATM   15  C   UNL     1      42.218  -9.715   7.370  1.00  0.00     0.031 A 
HETATM   16  C   UNL     1      45.675  -9.070   8.838  1.00  0.00     0.001 A 
HETATM   17  C   UNL     1      46.353  -9.975   8.026  1.00  0.00     0.002 A 
HETATM   18  C   UNL     1      42.109 -10.640   6.358  1.00  0.00     0.092 A 
ENDBRANCH   9  10
ENDBRANCH   8   9
ENDBRANCH   7   8
ENDBRANCH   3   7
BRANCH   1  19
HETATM   19  C   UNL     1      43.064 -17.222   3.361  1.00  0.00     0.069 A 
HETATM   20  C   UNL     1      43.824 -17.815   4.381  1.00  0.00     0.095 A 
HETATM   21  C   UNL     1      44.222 -19.152   4.305  1.00  0.00     0.039 A 
HETATM   22  C   UNL     1      43.891 -19.902   3.179  1.00  0.00     0.003 A 
HETATM   23  C   UNL     1      43.160 -19.317   2.145  1.00  0.00     0.002 A 
HETATM   24  C   UNL     1      42.746 -17.983   2.235  1.00  0.00     0.032 A 
BRANCH  20  25
HETATM   25  O   UNL     1      44.184 -17.088   5.490  1.00  0.00    -0.354 OA
HETATM   26  C   UNL     1      43.496 -17.585   6.642  1.00  0.00     0.210 C 
ENDBRANCH  20  25
ENDBRANCH   1  19
TORSDOF 6
ENDMDL
MODEL 9
REMARK VINA RESULT:      -7.5      7.252      9.788
REMARK  6 active torsions:
REMARK  status: ('A' for Active; 'I' for Inactive)
REMARK    1  A    between atoms: O_2  and  C_3 
REMARK    2  A    between atoms: C_4  and  N_5 
REMARK       I    between atoms: N_5  and  C_6 
REMARK       I    between atoms: C_6  and  N_7 
REMARK    3  A    between atoms: N_7  and  C_8 
REMARK    4  A    between atoms: C_8  and  C_9 
REMARK    5  A    between atoms: C_9  and  C_10 
REMARK    6  A    between atoms: C_10  and  N_11 
ROOT
HETATM    1  N   UNL     1      42.751 -10.346  10.694  1.00  0.00    -0.306 N 
HETATM    2  C   UNL     1      43.389 -10.097   9.501  1.00  0.00     0.320 C 
HETATM    3  N   UNL     1      43.505 -11.247   8.746  1.00  0.00    -0.343 N 
HETATM    4  O   UNL     1      43.805  -9.012   9.120  1.00  0.00    -0.247 OA
HETATM    5  H   UNL     1      42.225 -11.204  10.776  1.00  0.00     0.171 HD
HETATM    6  H   UNL     1      43.005 -12.057   9.078  1.00  0.00     0.164 HD
ENDROOT
BRANCH   3   7
HETATM    7  C   UNL     1      43.822 -11.213   7.330  1.00  0.00     0.126 C 
BRANCH   7   8
HETATM    8  C   UNL     1      44.201 -12.546   6.693  1.00  0.00     0.040 C 
BRANCH   8   9
HETATM    9  C   UNL     1      43.063 -13.171   5.896  1.00  0.00     0.130 C 
BRANCH   9  10
HETATM   10  N   UNL     1      43.318 -14.577   5.616  1.00  0.00    -0.356 N 
HETATM   11  C   UNL     1      43.239 -15.176   4.374  1.00  0.00     0.044 A 
HETATM   12  C   UNL     1      43.531 -16.530   4.559  1.00  0.00    -0.008 A 
HETATM   13  C   UNL     1      42.923 -14.650   3.111  1.00  0.00     0.030 A 
HETATM   14  C   UNL     1      43.515 -17.391   3.443  1.00  0.00     0.014 A 
HETATM   15  C   UNL     1      43.790 -16.722   5.944  1.00  0.00     0.031 A 
HETATM   16  C   UNL     1      43.207 -16.875   2.180  1.00  0.00     0.001 A 
HETATM   17  C   UNL     1      42.915 -15.524   2.019  1.00  0.00     0.002 A 
HETATM   18  C   UNL     1      43.654 -15.505   6.568  1.00  0.00     0.092 A 
ENDBRANCH   9  10
ENDBRANCH   8   9
ENDBRANCH   7   8
ENDBRANCH   3   7
BRANCH   1  19
HETATM   19  C   UNL     1      42.532  -9.432  11.746  1.00  0.00     0.069 A 
HETATM   20  C   UNL     1      41.249  -9.382  12.313  1.00  0.00     0.095 A 
HETATM   21  C   UNL     1      40.971  -8.561  13.407  1.00  0.00     0.039 A 
HETATM   22  C   UNL     1      41.975  -7.746  13.924  1.00  0.00     0.003 A 
HETATM   23  C   UNL     1      43.248  -7.764  13.353  1.00  0.00     0.002 A 
HETATM   24  C   UNL     1      43.527  -8.605  12.269  1.00  0.00     0.032 A 
BRANCH  20  25
HETATM   25  O   UNL     1      40.236 -10.159  11.803  1.00  0.00    -0.354 OA
HETATM   26  C   UNL     1      39.480 -10.735  12.873  1.00  0.00     0.210 C 
ENDBRANCH  20  25
ENDBRANCH   1  19
TORSDOF 6
ENDMDL
MODEL 10
REMARK VINA RESULT:      -7.3      5.295      7.446
REMARK  6 active torsions:
REMARK  status: ('A' for Active; 'I' for Inactive)
REMARK    1  A    between atoms: O_2  and  C_3 
REMARK    2  A    between atoms: C_4  and  N_5 
REMARK       I    between atoms: N_5  and  C_6 
REMARK       I    between atoms: C_6  and  N_7 
REMARK    3  A    between atoms: N_7  and  C_8 
REMARK    4  A    between atoms: C_8  and  C_9 
REMARK    5  A    between atoms: C_9  and  C_10 
REMARK    6  A    between atoms: C_10  and  N_11 
ROOT
HETATM    1  N   UNL     1      42.742 -11.011   7.443  1.00  0.00    -0.306 N 
HETATM    2  C   UNL     1      41.982 -10.962   6.298  1.00  0.00     0.320 C 
HETATM    3  N   UNL     1      40.802 -11.664   6.449  1.00  0.00    -0.343 N 
HETATM    4  O   UNL     1      42.274 -10.376   5.265  1.00  0.00    -0.247 OA
HETATM    5  H   UNL     1      42.286 -11.289   8.299  1.00  0.00     0.171 HD
HETATM    6  H   UNL     1      40.587 -11.987   7.379  1.00  0.00     0.164 HD
ENDROOT
BRANCH   3   7
HETATM    7  C   UNL     1      39.683 -11.498   5.541  1.00  0.00     0.126 C 
BRANCH   7   8
HETATM    8  C   UNL     1      39.397 -12.668   4.605  1.00  0.00     0.040 C 
BRANCH   8   9
HETATM    9  C   UNL     1      40.602 -13.067   3.763  1.00  0.00     0.130 C 
BRANCH   9  10
HETATM   10  N   UNL     1      41.058 -14.411   4.090  1.00  0.00    -0.356 N 
HETATM   11  C   UNL     1      41.866 -15.201   3.296  1.00  0.00     0.044 A 
HETATM   12  C   UNL     1      42.034 -16.414   3.970  1.00  0.00    -0.008 A 
HETATM   13  C   UNL     1      42.450 -14.961   2.042  1.00  0.00     0.030 A 
HETATM   14  C   UNL     1      42.819 -17.422   3.376  1.00  0.00     0.014 A 
HETATM   15  C   UNL     1      41.308 -16.324   5.189  1.00  0.00     0.031 A 
HETATM   16  C   UNL     1      43.409 -17.191   2.129  1.00  0.00     0.001 A 
HETATM   17  C   UNL     1      43.225 -15.977   1.473  1.00  0.00     0.002 A 
HETATM   18  C   UNL     1      40.720 -15.082   5.237  1.00  0.00     0.092 A 
ENDBRANCH   9  10
ENDBRANCH   8   9
ENDBRANCH   7   8
ENDBRANCH   3   7
BRANCH   1  19
HETATM   19  C   UNL     1      44.037 -10.481   7.625  1.00  0.00     0.069 A 
HETATM   20  C   UNL     1      44.148  -9.218   8.228  1.00  0.00     0.095 A 
HETATM   21  C   UNL     1      45.395  -8.658   8.513  1.00  0.00     0.039 A 
HETATM   22  C   UNL     1      46.552  -9.347   8.159  1.00  0.00     0.003 A 
HETATM   23  C   UNL     1      46.457 -10.590   7.534  1.00  0.00     0.002 A 
HETATM   24  C   UNL     1      45.205 -11.157   7.270  1.00  0.00     0.032 A 
BRANCH  20  25
HETATM   25  O   UNL     1      43.019  -8.509   8.562  1.00  0.00    -0.354 OA
HETATM   26  C   UNL     1      43.202  -7.876   9.833  1.00  0.00     0.210 C 
ENDBRANCH  20  25
ENDBRANCH   1  19
TORSDOF 6
ENDMDL
