MODEL 1
REMARK VINA RESULT:      -8.6      0.000      0.000
REMARK  4 active torsions:
REMARK  status: ('A' for Active; 'I' for Inactive)
REMARK    1  A    between atoms: C_2  and  C_3 
REMARK       I    between atoms: C_3  and  N_4 
REMARK    2  A    between atoms: N_4  and  C_5 
REMARK    3  A    between atoms: C_12  and  C_13 
REMARK       I    between atoms: C_13  and  N_14 
REMARK    4  A    between atoms: C_19  and  C_20 
ROOT
HETATM    1  C   UNL     1      40.697 -14.847   1.339  1.00  0.00     0.036 A 
HETATM    2  C   UNL     1      40.112 -15.061   0.077  1.00  0.00     0.046 A 
HETATM    3  C   UNL     1      39.478 -13.996  -0.594  1.00  0.00     0.030 A 
HETATM    4  C   UNL     1      39.445 -12.749   0.012  1.00  0.00     0.063 A 
HETATM    5  N   UNL     1      38.775 -11.939  -0.861  1.00  0.00    -0.277 N 
HETATM    6  H   UNL     1      38.563 -10.954  -0.744  1.00  0.00     0.189 HD
HETATM    7  N   UNL     1      38.366 -12.552  -1.986  1.00  0.00    -0.168 NA
HETATM    8  C   UNL     1      38.794 -13.826  -1.833  1.00  0.00     0.156 A 
HETATM    9  C   UNL     1      40.017 -12.498   1.261  1.00  0.00     0.034 A 
HETATM   10  C   UNL     1      40.643 -13.574   1.910  1.00  0.00     0.032 A 
ENDROOT
BRANCH   1  11
HETATM   11  N   UNL     1      41.296 -15.972   1.953  1.00  0.00    -0.323 N 
HETATM   12  C   UNL     1      42.644 -16.218   2.144  1.00  0.00     0.251 C 
HETATM   13  O   UNL     1      43.545 -15.494   1.736  1.00  0.00    -0.268 OA
HETATM   14  H   UNL     1      40.637 -16.664   2.275  1.00  0.00     0.169 HD
BRANCH  12  15
HETATM   15  C   UNL     1      42.947 -17.481   2.928  1.00  0.00     0.007 C 
HETATM   16  C   UNL     1      43.094 -18.785   2.185  1.00  0.00     0.054 C 
HETATM   17  C   UNL     1      43.088 -17.500   4.273  1.00  0.00     0.025 C 
BRANCH  17  18
HETATM   18  C   UNL     1      42.999 -16.404   5.253  1.00  0.00    -0.014 A 
HETATM   19  C   UNL     1      41.761 -15.891   5.679  1.00  0.00     0.044 A 
HETATM   20 CL   UNL     1      40.259 -16.560   5.133  1.00  0.00    -0.083 Cl
HETATM   21  C   UNL     1      41.706 -14.803   6.557  1.00  0.00     0.024 A 
HETATM   22  C   UNL     1      42.883 -14.214   7.016  1.00  0.00     0.002 A 
HETATM   23  C   UNL     1      44.115 -14.709   6.596  1.00  0.00     0.001 A 
HETATM   24  C   UNL     1      44.172 -15.790   5.712  1.00  0.00     0.013 A 
ENDBRANCH  17  18
ENDBRANCH  12  15
ENDBRANCH   1  11
BRANCH   8  25
HETATM   25  C   UNL     1      38.547 -14.848  -2.858  1.00  0.00     0.270 C 
HETATM   26  N   UNL     1      38.418 -16.117  -2.364  1.00  0.00    -0.365 N 
HETATM   27  H   UNL     1      38.496 -16.258  -1.364  1.00  0.00     0.159 HD
HETATM   28  H   UNL     1      38.243 -16.886  -2.991  1.00  0.00     0.159 HD
HETATM   29  O   UNL     1      38.458 -14.618  -4.060  1.00  0.00    -0.266 OA
ENDBRANCH   8  25
TORSDOF 4
ENDMDL
MODEL 2
REMARK VINA RESULT:      -8.4      5.325      8.615
REMARK  4 active torsions:
REMARK  status: ('A' for Active; 'I' for Inactive)
REMARK    1  A    between atoms: C_2  and  C_3 
REMARK       I    between atoms: C_3  and  N_4 
REMARK    2  A    between atoms: N_4  and  C_5 
REMARK    3  A    between atoms: C_12  and  C_13 
REMARK       I    between atoms: C_13  and  N_14 
REMARK    4  A    between atoms: C_19  and  C_20 
ROOT
HETATM    1  C   UNL     1      43.644 -12.045   6.836  1.00  0.00     0.036 A 
HETATM    2  C   UNL     1      43.375 -10.811   7.456  1.00  0.00     0.046 A 
HETATM    3  C   UNL     1      44.428  -9.912   7.721  1.00  0.00     0.030 A 
HETATM    4  C   UNL     1      45.718 -10.269   7.358  1.00  0.00     0.063 A 
HETATM    5  N   UNL     1      46.505  -9.218   7.736  1.00  0.00    -0.277 N 
HETATM    6  H   UNL     1      47.510  -9.133   7.626  1.00  0.00     0.189 HD
HETATM    7  N   UNL     1      45.838  -8.204   8.316  1.00  0.00    -0.168 NA
HETATM    8  C   UNL     1      44.551  -8.621   8.313  1.00  0.00     0.156 A 
HETATM    9  C   UNL     1      46.023 -11.483   6.739  1.00  0.00     0.034 A 
HETATM   10  C   UNL     1      44.958 -12.362   6.486  1.00  0.00     0.032 A 
ENDROOT
BRANCH   1  11
HETATM   11  N   UNL     1      42.535 -12.897   6.625  1.00  0.00    -0.323 N 
HETATM   12  C   UNL     1      42.209 -13.597   5.477  1.00  0.00     0.251 C 
HETATM   13  O   UNL     1      42.827 -13.524   4.422  1.00  0.00    -0.268 OA
HETATM   14  H   UNL     1      41.924 -12.981   7.422  1.00  0.00     0.169 HD
BRANCH  12  15
HETATM   15  C   UNL     1      40.998 -14.502   5.616  1.00  0.00     0.007 C 
HETATM   16  C   UNL     1      39.774 -13.981   6.325  1.00  0.00     0.054 C 
HETATM   17  C   UNL     1      40.962 -15.766   5.137  1.00  0.00     0.025 C 
BRANCH  17  18
HETATM   18  C   UNL     1      41.987 -16.538   4.415  1.00  0.00    -0.014 A 
HETATM   19  C   UNL     1      41.921 -16.738   3.025  1.00  0.00     0.044 A 
HETATM   20 CL   UNL     1      40.668 -16.031   2.060  1.00  0.00    -0.083 Cl
HETATM   21  C   UNL     1      42.870 -17.534   2.374  1.00  0.00     0.024 A 
HETATM   22  C   UNL     1      43.891 -18.141   3.102  1.00  0.00     0.002 A 
HETATM   23  C   UNL     1      43.964 -17.956   4.480  1.00  0.00     0.001 A 
HETATM   24  C   UNL     1      43.012 -17.169   5.134  1.00  0.00     0.013 A 
ENDBRANCH  17  18
ENDBRANCH  12  15
ENDBRANCH   1  11
BRANCH   8  25
HETATM   25  C   UNL     1      43.473  -7.793   8.868  1.00  0.00     0.270 C 
HETATM   26  N   UNL     1      42.943  -8.272  10.035  1.00  0.00    -0.365 N 
HETATM   27  H   UNL     1      43.319  -9.131  10.421  1.00  0.00     0.159 HD
HETATM   28  H   UNL     1      42.200  -7.770  10.494  1.00  0.00     0.159 HD
HETATM   29  O   UNL     1      43.061  -6.757   8.357  1.00  0.00    -0.266 OA
ENDBRANCH   8  25
TORSDOF 4
ENDMDL
MODEL 3
REMARK VINA RESULT:      -8.3      3.084      7.014
REMARK  4 active torsions:
REMARK  status: ('A' for Active; 'I' for Inactive)
REMARK    1  A    between atoms: C_2  and  C_3 
REMARK       I    between atoms: C_3  and  N_4 
REMARK    2  A    between atoms: N_4  and  C_5 
REMARK    3  A    between atoms: C_12  and  C_13 
REMARK       I    between atoms: C_13  and  N_14 
REMARK    4  A    between atoms: C_19  and  C_20 
ROOT
HETATM    1  C   UNL     1      42.648 -16.264   2.487  1.00  0.00     0.036 A 
HETATM    2  C   UNL     1      42.405 -16.067   3.859  1.00  0.00     0.046 A 
HETATM    3  C   UNL     1      42.869 -17.011   4.798  1.00  0.00     0.030 A 
HETATM    4  C   UNL     1      43.561 -18.123   4.342  1.00  0.00     0.063 A 
HETATM    5  N   UNL     1      43.873 -18.840   5.463  1.00  0.00    -0.277 N 
HETATM    6  H   UNL     1      44.380 -19.718   5.508  1.00  0.00     0.189 HD
HETATM    7  N   UNL     1      43.443 -18.292   6.612  1.00  0.00    -0.168 NA
HETATM    8  C   UNL     1      42.820 -17.159   6.215  1.00  0.00     0.156 A 
HETATM    9  C   UNL     1      43.823 -18.351   2.989  1.00  0.00     0.034 A 
HETATM   10  C   UNL     1      43.351 -17.397   2.073  1.00  0.00     0.032 A 
ENDROOT
BRANCH   1  11
HETATM   11  N   UNL     1      42.132 -15.281   1.610  1.00  0.00    -0.323 N 
HETATM   12  C   UNL     1      40.828 -15.135   1.172  1.00  0.00     0.251 C 
HETATM   13  O   UNL     1      39.915 -15.906   1.444  1.00  0.00    -0.268 OA
HETATM   14  H   UNL     1      42.821 -14.625   1.278  1.00  0.00     0.169 HD
BRANCH  12  15
HETATM   15  C   UNL     1      40.589 -13.910   0.310  1.00  0.00     0.007 C 
HETATM   16  C   UNL     1      40.176 -14.098  -1.128  1.00  0.00     0.054 C 
HETATM   17  C   UNL     1      40.733 -12.645   0.766  1.00  0.00     0.025 C 
BRANCH  17  18
HETATM   18  C   UNL     1      41.121 -12.156   2.100  1.00  0.00    -0.014 A 
HETATM   19  C   UNL     1      40.210 -12.119   3.169  1.00  0.00     0.044 A 
HETATM   20 CL   UNL     1      38.590 -12.712   3.009  1.00  0.00    -0.083 Cl
HETATM   21  C   UNL     1      40.585 -11.583   4.407  1.00  0.00     0.024 A 
HETATM   22  C   UNL     1      41.871 -11.076   4.588  1.00  0.00     0.002 A 
HETATM   23  C   UNL     1      42.780 -11.101   3.534  1.00  0.00     0.001 A 
HETATM   24  C   UNL     1      42.405 -11.627   2.295  1.00  0.00     0.013 A 
ENDBRANCH  17  18
ENDBRANCH  12  15
ENDBRANCH   1  11
BRANCH   8  25
HETATM   25  C   UNL     1      42.193 -16.247   7.181  1.00  0.00     0.270 C 
HETATM   26  N   UNL     1      43.030 -15.826   8.179  1.00  0.00    -0.365 N 
HETATM   27  H   UNL     1      43.987 -16.159   8.181  1.00  0.00     0.159 HD
HETATM   28  H   UNL     1      42.691 -15.196   8.887  1.00  0.00     0.159 HD
HETATM   29  O   UNL     1      41.026 -15.874   7.126  1.00  0.00    -0.266 OA
ENDBRANCH   8  25
TORSDOF 4
ENDMDL
MODEL 4
REMARK VINA RESULT:      -8.1      1.867      3.170
REMARK  4 active torsions:
REMARK  status: ('A' for Active; 'I' for Inactive)
REMARK    1  A    between atoms: C_2  and  C_3 
REMARK       I    between atoms: C_3  and  N_4 
REMARK    2  A    between atoms: N_4  and  C_5 
REMARK    3  A    between atoms: C_12  and  C_13 
REMARK       I    between atoms: C_13  and  N_14 
REMARK    4  A    between atoms: C_19  and  C_20 
ROOT
HETATM    1  C   UNL     1      40.603 -13.348   1.192  1.00  0.00     0.036 A 
HETATM    2  C   UNL     1      39.991 -14.086   0.162  1.00  0.00     0.046 A 
HETATM    3  C   UNL     1      39.943 -13.563  -1.146  1.00  0.00     0.030 A 
HETATM    4  C   UNL     1      40.506 -12.319  -1.389  1.00  0.00     0.063 A 
HETATM    5  N   UNL     1      40.306 -12.084  -2.721  1.00  0.00    -0.277 N 
HETATM    6  H   UNL     1      40.588 -11.265  -3.248  1.00  0.00     0.189 HD
HETATM    7  N   UNL     1      39.658 -13.069  -3.368  1.00  0.00    -0.168 NA
HETATM    8  C   UNL     1      39.428 -13.990  -2.405  1.00  0.00     0.156 A 
HETATM    9  C   UNL     1      41.123 -11.559  -0.393  1.00  0.00     0.034 A 
HETATM   10  C   UNL     1      41.159 -12.101   0.901  1.00  0.00     0.032 A 
ENDROOT
BRANCH   1  11
HETATM   11  N   UNL     1      40.591 -13.936   2.478  1.00  0.00    -0.323 N 
HETATM   12  C   UNL     1      41.624 -13.991   3.396  1.00  0.00     0.251 C 
HETATM   13  O   UNL     1      42.758 -13.575   3.188  1.00  0.00    -0.268 OA
HETATM   14  H   UNL     1      39.712 -14.363   2.727  1.00  0.00     0.169 HD
BRANCH  12  15
HETATM   15  C   UNL     1      41.249 -14.612   4.729  1.00  0.00     0.007 C 
HETATM   16  C   UNL     1      40.410 -13.814   5.695  1.00  0.00     0.054 C 
HETATM   17  C   UNL     1      41.635 -15.852   5.101  1.00  0.00     0.025 C 
BRANCH  17  18
HETATM   18  C   UNL     1      42.446 -16.850   4.383  1.00  0.00    -0.014 A 
HETATM   19  C   UNL     1      43.608 -17.405   4.947  1.00  0.00     0.044 A 
HETATM   20 CL   UNL     1      44.124 -17.005   6.552  1.00  0.00    -0.083 Cl
HETATM   21  C   UNL     1      44.399 -18.298   4.215  1.00  0.00     0.024 A 
HETATM   22  C   UNL     1      44.040 -18.644   2.913  1.00  0.00     0.002 A 
HETATM   23  C   UNL     1      42.895 -18.096   2.341  1.00  0.00     0.001 A 
HETATM   24  C   UNL     1      42.109 -17.197   3.067  1.00  0.00     0.013 A 
ENDBRANCH  17  18
ENDBRANCH  12  15
ENDBRANCH   1  11
BRANCH   8  25
HETATM   25  C   UNL     1      38.727 -15.248  -2.696  1.00  0.00     0.270 C 
HETATM   26  N   UNL     1      38.077 -15.262  -3.900  1.00  0.00    -0.365 N 
HETATM   27  H   UNL     1      38.124 -14.436  -4.485  1.00  0.00     0.159 HD
HETATM   28  H   UNL     1      37.571 -16.083  -4.189  1.00  0.00     0.159 HD
HETATM   29  O   UNL     1      38.708 -16.220  -1.948  1.00  0.00    -0.266 OA
ENDBRANCH   8  25
TORSDOF 4
ENDMDL
MODEL 5
REMARK VINA RESULT:      -8.1      5.328      8.372
REMARK  4 active torsions:
REMARK  status: ('A' for Active; 'I' for Inactive)
REMARK    1  A    between atoms: C_2  and  C_3 
REMARK       I    between atoms: C_3  and  N_4 
REMARK    2  A    between atoms: N_4  and  C_5 
REMARK    3  A    between atoms: C_12  and  C_13 
REMARK       I    between atoms: C_13  and  N_14 
REMARK    4  A    between atoms: C_19  and  C_20 
ROOT
HETATM    1  C   UNL     1      43.354 -11.787   6.406  1.00  0.00     0.036 A 
HETATM    2  C   UNL     1      43.030 -10.530   6.949  1.00  0.00     0.046 A 
HETATM    3  C   UNL     1      44.037  -9.735   7.531  1.00  0.00     0.030 A 
HETATM    4  C   UNL     1      45.338 -10.215   7.555  1.00  0.00     0.063 A 
HETATM    5  N   UNL     1      46.073  -9.242   8.172  1.00  0.00    -0.277 N 
HETATM    6  H   UNL     1      47.069  -9.254   8.364  1.00  0.00     0.189 HD
HETATM    7  N   UNL     1      45.362  -8.166   8.555  1.00  0.00    -0.168 NA
HETATM    8  C   UNL     1      44.100  -8.458   8.164  1.00  0.00     0.156 A 
HETATM    9  C   UNL     1      45.697 -11.456   7.024  1.00  0.00     0.034 A 
HETATM   10  C   UNL     1      44.677 -12.230   6.450  1.00  0.00     0.032 A 
ENDROOT
BRANCH   1  11
HETATM   11  N   UNL     1      42.281 -12.530   5.858  1.00  0.00    -0.323 N 
HETATM   12  C   UNL     1      42.228 -13.165   4.631  1.00  0.00     0.251 C 
HETATM   13  O   UNL     1      43.116 -13.118   3.787  1.00  0.00    -0.268 OA
HETATM   14  H   UNL     1      41.470 -12.581   6.455  1.00  0.00     0.169 HD
BRANCH  12  15
HETATM   15  C   UNL     1      40.959 -13.961   4.390  1.00  0.00     0.007 C 
HETATM   16  C   UNL     1      39.656 -13.224   4.219  1.00  0.00     0.054 C 
HETATM   17  C   UNL     1      40.935 -15.312   4.325  1.00  0.00     0.025 C 
BRANCH  17  18
HETATM   18  C   UNL     1      42.030 -16.288   4.455  1.00  0.00    -0.014 A 
HETATM   19  C   UNL     1      42.575 -16.629   5.705  1.00  0.00     0.044 A 
HETATM   20 CL   UNL     1      41.948 -15.976   7.182  1.00  0.00    -0.083 Cl
HETATM   21  C   UNL     1      43.661 -17.506   5.793  1.00  0.00     0.024 A 
HETATM   22  C   UNL     1      44.217 -18.050   4.637  1.00  0.00     0.002 A 
HETATM   23  C   UNL     1      43.690 -17.715   3.391  1.00  0.00     0.001 A 
HETATM   24  C   UNL     1      42.611 -16.832   3.300  1.00  0.00     0.013 A 
ENDBRANCH  17  18
ENDBRANCH  12  15
ENDBRANCH   1  11
BRANCH   8  25
HETATM   25  C   UNL     1      42.988  -7.528   8.398  1.00  0.00     0.270 C 
HETATM   26  N   UNL     1      42.316  -7.742   9.570  1.00  0.00    -0.365 N 
HETATM   27  H   UNL     1      42.621  -8.497  10.173  1.00  0.00     0.159 HD
HETATM   28  H   UNL     1      41.539  -7.152   9.819  1.00  0.00     0.159 HD
HETATM   29  O   UNL     1      42.665  -6.627   7.630  1.00  0.00    -0.266 OA
ENDBRANCH   8  25
TORSDOF 4
ENDMDL
MODEL 6
REMARK VINA RESULT:      -8.1      3.180      8.112
REMARK  4 active torsions:
REMARK  status: ('A' for Active; 'I' for Inactive)
REMARK    1  A    between atoms: C_2  and  C_3 
REMARK       I    between atoms: C_3  and  N_4 
REMARK    2  A    between atoms: N_4  and  C_5 
REMARK    3  A    between atoms: C_12  and  C_13 
REMARK       I    between atoms: C_13  and  N_14 
REMARK    4  A    between atoms: C_19  and  C_20 
ROOT
HETATM    1  C   UNL     1      42.760 -15.112   2.410  1.00  0.00     0.036 A 
HETATM    2  C   UNL     1      42.677 -15.195   3.812  1.00  0.00     0.046 A 
HETATM    3  C   UNL     1      42.985 -16.406   4.465  1.00  0.00     0.030 A 
HETATM    4  C   UNL     1      43.367 -17.499   3.701  1.00  0.00     0.063 A 
HETATM    5  N   UNL     1      43.594 -18.506   4.596  1.00  0.00    -0.277 N 
HETATM    6  H   UNL     1      43.889 -19.455   4.390  1.00  0.00     0.189 HD
HETATM    7  N   UNL     1      43.392 -18.165   5.880  1.00  0.00    -0.168 NA
HETATM    8  C   UNL     1      43.014 -16.867   5.814  1.00  0.00     0.156 A 
HETATM    9  C   UNL     1      43.463 -17.453   2.308  1.00  0.00     0.034 A 
HETATM   10  C   UNL     1      43.151 -16.237   1.681  1.00  0.00     0.032 A 
ENDROOT
BRANCH   1  11
HETATM   11  N   UNL     1      42.415 -13.867   1.833  1.00  0.00    -0.323 N 
HETATM   12  C   UNL     1      41.148 -13.364   1.596  1.00  0.00     0.251 C 
HETATM   13  O   UNL     1      40.108 -13.979   1.803  1.00  0.00    -0.268 OA
HETATM   14  H   UNL     1      43.207 -13.303   1.569  1.00  0.00     0.169 HD
BRANCH  12  15
HETATM   15  C   UNL     1      41.127 -11.948   1.051  1.00  0.00     0.007 C 
HETATM   16  C   UNL     1      41.809 -10.855   1.835  1.00  0.00     0.054 C 
HETATM   17  C   UNL     1      40.518 -11.610  -0.107  1.00  0.00     0.025 C 
BRANCH  17  18
HETATM   18  C   UNL     1      39.781 -12.445  -1.071  1.00  0.00    -0.014 A 
HETATM   19  C   UNL     1      38.378 -12.408  -1.163  1.00  0.00     0.044 A 
HETATM   20 CL   UNL     1      37.429 -11.327  -0.198  1.00  0.00    -0.083 Cl
HETATM   21  C   UNL     1      37.699 -13.263  -2.038  1.00  0.00     0.024 A 
HETATM   22  C   UNL     1      38.410 -14.165  -2.827  1.00  0.00     0.002 A 
HETATM   23  C   UNL     1      39.799 -14.216  -2.740  1.00  0.00     0.001 A 
HETATM   24  C   UNL     1      40.479 -13.369  -1.861  1.00  0.00     0.013 A 
ENDBRANCH  17  18
ENDBRANCH  12  15
ENDBRANCH   1  11
BRANCH   8  25
HETATM   25  C   UNL     1      42.691 -16.097   7.021  1.00  0.00     0.270 C 
HETATM   26  N   UNL     1      43.392 -16.477   8.133  1.00  0.00    -0.365 N 
HETATM   27  H   UNL     1      44.062 -17.233   8.048  1.00  0.00     0.159 HD
HETATM   28  H   UNL     1      43.241 -16.004   9.009  1.00  0.00     0.159 HD
HETATM   29  O   UNL     1      41.869 -15.187   7.064  1.00  0.00    -0.266 OA
ENDBRANCH   8  25
TORSDOF 4
ENDMDL
MODEL 7
REMARK VINA RESULT:      -8.0      4.336      6.855
REMARK  4 active torsions:
REMARK  status: ('A' for Active; 'I' for Inactive)
REMARK    1  A    between atoms: C_2  and  C_3 
REMARK       I    between atoms: C_3  and  N_4 
REMARK    2  A    between atoms: N_4  and  C_5 
REMARK    3  A    between atoms: C_12  and  C_13 
REMARK       I    between atoms: C_13  and  N_14 
REMARK    4  A    between atoms: C_19  and  C_20 
ROOT
HETATM    1  C   UNL     1      40.840 -12.012   4.804  1.00  0.00     0.036 A 
HETATM    2  C   UNL     1      41.781 -11.921   5.847  1.00  0.00     0.046 A 
HETATM    3  C   UNL     1      42.089 -10.665   6.408  1.00  0.00     0.030 A 
HETATM    4  C   UNL     1      41.450  -9.537   5.915  1.00  0.00     0.063 A 
HETATM    5  N   UNL     1      41.947  -8.492   6.642  1.00  0.00    -0.277 N 
HETATM    6  H   UNL     1      41.704  -7.511   6.551  1.00  0.00     0.189 HD
HETATM    7  N   UNL     1      42.858  -8.841   7.567  1.00  0.00    -0.168 NA
HETATM    8  C   UNL     1      42.955 -10.184   7.434  1.00  0.00     0.156 A 
HETATM    9  C   UNL     1      40.510  -9.589   4.884  1.00  0.00     0.034 A 
HETATM   10  C   UNL     1      40.219 -10.851   4.341  1.00  0.00     0.032 A 
ENDROOT
BRANCH   1  11
HETATM   11  N   UNL     1      40.603 -13.306   4.284  1.00  0.00    -0.323 N 
HETATM   12  C   UNL     1      41.319 -13.970   3.303  1.00  0.00     0.251 C 
HETATM   13  O   UNL     1      42.256 -13.485   2.682  1.00  0.00    -0.268 OA
HETATM   14  H   UNL     1      39.809 -13.774   4.691  1.00  0.00     0.169 HD
BRANCH  12  15
HETATM   15  C   UNL     1      40.858 -15.393   3.045  1.00  0.00     0.007 C 
HETATM   16  C   UNL     1      39.897 -15.655   1.913  1.00  0.00     0.054 C 
HETATM   17  C   UNL     1      41.264 -16.447   3.787  1.00  0.00     0.025 C 
BRANCH  17  18
HETATM   18  C   UNL     1      42.180 -16.501   4.939  1.00  0.00    -0.014 A 
HETATM   19  C   UNL     1      41.744 -16.226   6.246  1.00  0.00     0.044 A 
HETATM   20 CL   UNL     1      40.085 -15.873   6.599  1.00  0.00    -0.083 Cl
HETATM   21  C   UNL     1      42.650 -16.215   7.312  1.00  0.00     0.024 A 
HETATM   22  C   UNL     1      44.000 -16.477   7.085  1.00  0.00     0.002 A 
HETATM   23  C   UNL     1      44.446 -16.745   5.793  1.00  0.00     0.001 A 
HETATM   24  C   UNL     1      43.544 -16.747   4.726  1.00  0.00     0.013 A 
ENDBRANCH  17  18
ENDBRANCH  12  15
ENDBRANCH   1  11
BRANCH   8  25
HETATM   25  C   UNL     1      43.862 -10.976   8.274  1.00  0.00     0.270 C 
HETATM   26  N   UNL     1      43.620 -10.868   9.616  1.00  0.00    -0.365 N 
HETATM   27  H   UNL     1      42.861 -10.272   9.925  1.00  0.00     0.159 HD
HETATM   28  H   UNL     1      44.189 -11.378  10.273  1.00  0.00     0.159 HD
HETATM   29  O   UNL     1      44.766 -11.685   7.842  1.00  0.00    -0.266 OA
ENDBRANCH   8  25
TORSDOF 4
ENDMDL
MODEL 8
REMARK VINA RESULT:      -7.8      7.368     10.587
REMARK  4 active torsions:
REMARK  status: ('A' for Active; 'I' for Inactive)
REMARK    1  A    between atoms: C_2  and  C_3 
REMARK       I    between atoms: C_3  and  N_4 
REMARK    2  A    between atoms: N_4  and  C_5 
REMARK    3  A    between atoms: C_12  and  C_13 
REMARK       I    between atoms: C_13  and  N_14 
REMARK    4  A    between atoms: C_19  and  C_20 
ROOT
HETATM    1  C   UNL     1      43.103  -9.015   9.984  1.00  0.00     0.036 A 
HETATM    2  C   UNL     1      42.067  -9.706  10.640  1.00  0.00     0.046 A 
HETATM    3  C   UNL     1      41.133  -8.997  11.421  1.00  0.00     0.030 A 
HETATM    4  C   UNL     1      41.257  -7.620  11.526  1.00  0.00     0.063 A 
HETATM    5  N   UNL     1      40.228  -7.223  12.333  1.00  0.00    -0.277 N 
HETATM    6  H   UNL     1      40.010  -6.277  12.628  1.00  0.00     0.189 HD
HETATM    7  N   UNL     1      39.443  -8.225  12.766  1.00  0.00    -0.168 NA
HETATM    8  C   UNL     1      39.991  -9.328  12.209  1.00  0.00     0.156 A 
HETATM    9  C   UNL     1      42.270  -6.900  10.888  1.00  0.00     0.034 A 
HETATM   10  C   UNL     1      43.189  -7.628  10.116  1.00  0.00     0.032 A 
ENDROOT
BRANCH   1  11
HETATM   11  N   UNL     1      44.010  -9.803   9.238  1.00  0.00    -0.323 N 
HETATM   12  C   UNL     1      43.874 -10.248   7.935  1.00  0.00     0.251 C 
HETATM   13  O   UNL     1      42.881 -10.065   7.240  1.00  0.00    -0.268 OA
HETATM   14  H   UNL     1      44.843 -10.061   9.743  1.00  0.00     0.169 HD
BRANCH  12  15
HETATM   15  C   UNL     1      45.081 -10.995   7.397  1.00  0.00     0.007 C 
HETATM   16  C   UNL     1      46.459 -10.444   7.663  1.00  0.00     0.054 C 
HETATM   17  C   UNL     1      44.984 -12.137   6.680  1.00  0.00     0.025 C 
BRANCH  17  18
HETATM   18  C   UNL     1      43.794 -12.901   6.267  1.00  0.00    -0.014 A 
HETATM   19  C   UNL     1      43.092 -12.597   5.087  1.00  0.00     0.044 A 
HETATM   20 CL   UNL     1      43.621 -11.351   4.006  1.00  0.00    -0.083 Cl
HETATM   21  C   UNL     1      41.925 -13.293   4.754  1.00  0.00     0.024 A 
HETATM   22  C   UNL     1      41.444 -14.295   5.595  1.00  0.00     0.002 A 
HETATM   23  C   UNL     1      42.127 -14.601   6.770  1.00  0.00     0.001 A 
HETATM   24  C   UNL     1      43.288 -13.901   7.109  1.00  0.00     0.013 A 
ENDBRANCH  17  18
ENDBRANCH  12  15
ENDBRANCH   1  11
BRANCH   8  25
HETATM   25  C   UNL     1      39.427 -10.665  12.434  1.00  0.00     0.270 C 
HETATM   26  N   UNL     1      38.825 -11.212  11.334  1.00  0.00    -0.365 N 
HETATM   27  H   UNL     1      38.814 -10.679  10.472  1.00  0.00     0.159 HD
HETATM   28  H   UNL     1      38.412 -12.129  11.390  1.00  0.00     0.159 HD
HETATM   29  O   UNL     1      39.474 -11.267  13.503  1.00  0.00    -0.266 OA
ENDBRANCH   8  25
TORSDOF 4
ENDMDL
MODEL 9
REMARK VINA RESULT:      -7.7      2.103      3.596
REMARK  4 active torsions:
REMARK  status: ('A' for Active; 'I' for Inactive)
REMARK    1  A    between atoms: C_2  and  C_3 
REMARK       I    between atoms: C_3  and  N_4 
REMARK    2  A    between atoms: N_4  and  C_5 
REMARK    3  A    between atoms: C_12  and  C_13 
REMARK       I    between atoms: C_13  and  N_14 
REMARK    4  A    between atoms: C_19  and  C_20 
ROOT
HETATM    1  C   UNL     1      39.921 -11.766   1.954  1.00  0.00     0.036 A 
HETATM    2  C   UNL     1      39.948 -12.611   0.829  1.00  0.00     0.046 A 
HETATM    3  C   UNL     1      38.995 -12.448  -0.197  1.00  0.00     0.030 A 
HETATM    4  C   UNL     1      38.043 -11.446  -0.072  1.00  0.00     0.063 A 
HETATM    5  N   UNL     1      37.274 -11.534  -1.198  1.00  0.00    -0.277 N 
HETATM    6  H   UNL     1      36.479 -10.955  -1.445  1.00  0.00     0.189 HD
HETATM    7  N   UNL     1      37.642 -12.510  -2.048  1.00  0.00    -0.168 NA
HETATM    8  C   UNL     1      38.706 -13.083  -1.440  1.00  0.00     0.156 A 
HETATM    9  C   UNL     1      37.987 -10.587   1.028  1.00  0.00     0.034 A 
HETATM   10  C   UNL     1      38.946 -10.769   2.036  1.00  0.00     0.032 A 
ENDROOT
BRANCH   1  11
HETATM   11  N   UNL     1      40.899 -12.010   2.946  1.00  0.00    -0.323 N 
HETATM   12  C   UNL     1      40.779 -12.791   4.082  1.00  0.00     0.251 C 
HETATM   13  O   UNL     1      39.748 -13.352   4.431  1.00  0.00    -0.268 OA
HETATM   14  H   UNL     1      41.776 -11.541   2.783  1.00  0.00     0.169 HD
BRANCH  12  15
HETATM   15  C   UNL     1      42.056 -12.922   4.891  1.00  0.00     0.007 C 
HETATM   16  C   UNL     1      42.356 -11.894   5.953  1.00  0.00     0.054 C 
HETATM   17  C   UNL     1      42.951 -13.918   4.705  1.00  0.00     0.025 C 
BRANCH  17  18
HETATM   18  C   UNL     1      42.932 -15.046   3.757  1.00  0.00    -0.014 A 
HETATM   19  C   UNL     1      42.686 -16.364   4.180  1.00  0.00     0.044 A 
HETATM   20 CL   UNL     1      42.317 -16.739   5.830  1.00  0.00    -0.083 Cl
HETATM   21  C   UNL     1      42.744 -17.426   3.270  1.00  0.00     0.024 A 
HETATM   22  C   UNL     1      43.051 -17.185   1.932  1.00  0.00     0.002 A 
HETATM   23  C   UNL     1      43.304 -15.884   1.503  1.00  0.00     0.001 A 
HETATM   24  C   UNL     1      43.255 -14.823   2.411  1.00  0.00     0.013 A 
ENDBRANCH  17  18
ENDBRANCH  12  15
ENDBRANCH   1  11
BRANCH   8  25
HETATM   25  C   UNL     1      39.421 -14.213  -2.046  1.00  0.00     0.270 C 
HETATM   26  N   UNL     1      38.973 -15.441  -1.642  1.00  0.00    -0.365 N 
HETATM   27  H   UNL     1      38.207 -15.483  -0.979  1.00  0.00     0.159 HD
HETATM   28  H   UNL     1      39.400 -16.277  -2.006  1.00  0.00     0.159 HD
HETATM   29  O   UNL     1      40.342 -14.101  -2.849  1.00  0.00    -0.266 OA
ENDBRANCH   8  25
TORSDOF 4
ENDMDL
MODEL 10
REMARK VINA RESULT:      -7.7      4.747      7.904
REMARK  4 active torsions:
REMARK  status: ('A' for Active; 'I' for Inactive)
REMARK    1  A    between atoms: C_2  and  C_3 
REMARK       I    between atoms: C_3  and  N_4 
REMARK    2  A    between atoms: N_4  and  C_5 
REMARK    3  A    between atoms: C_12  and  C_13 
REMARK       I    between atoms: C_13  and  N_14 
REMARK    4  A    between atoms: C_19  and  C_20 
ROOT
HETATM    1  C   UNL     1      42.727 -12.801   5.757  1.00  0.00     0.036 A 
HETATM    2  C   UNL     1      43.640 -12.129   6.591  1.00  0.00     0.046 A 
HETATM    3  C   UNL     1      43.367 -10.814   7.018  1.00  0.00     0.030 A 
HETATM    4  C   UNL     1      42.191 -10.207   6.604  1.00  0.00     0.063 A 
HETATM    5  N   UNL     1      42.208  -8.962   7.167  1.00  0.00    -0.277 N 
HETATM    6  H   UNL     1      41.503  -8.238   7.076  1.00  0.00     0.189 HD
HETATM    7  N   UNL     1      43.296  -8.703   7.913  1.00  0.00    -0.168 NA
HETATM    8  C   UNL     1      44.022  -9.842   7.830  1.00  0.00     0.156 A 
HETATM    9  C   UNL     1      41.260 -10.842   5.779  1.00  0.00     0.034 A 
HETATM   10  C   UNL     1      41.554 -12.151   5.366  1.00  0.00     0.032 A 
ENDROOT
BRANCH   1  11
HETATM   11  N   UNL     1      43.086 -14.109   5.358  1.00  0.00    -0.323 N 
HETATM   12  C   UNL     1      42.589 -15.309   5.836  1.00  0.00     0.251 C 
HETATM   13  O   UNL     1      41.782 -15.409   6.752  1.00  0.00    -0.268 OA
HETATM   14  H   UNL     1      43.794 -14.140   4.642  1.00  0.00     0.169 HD
BRANCH  12  15
HETATM   15  C   UNL     1      43.119 -16.538   5.120  1.00  0.00     0.007 C 
HETATM   16  C   UNL     1      44.116 -17.421   5.827  1.00  0.00     0.054 C 
HETATM   17  C   UNL     1      42.745 -16.882   3.868  1.00  0.00     0.025 C 
BRANCH  17  18
HETATM   18  C   UNL     1      41.806 -16.225   2.943  1.00  0.00    -0.014 A 
HETATM   19  C   UNL     1      42.253 -15.515   1.815  1.00  0.00     0.044 A 
HETATM   20 CL   UNL     1      43.932 -15.425   1.399  1.00  0.00    -0.083 Cl
HETATM   21  C   UNL     1      41.344 -14.841   0.991  1.00  0.00     0.024 A 
HETATM   22  C   UNL     1      39.982 -14.866   1.286  1.00  0.00     0.002 A 
HETATM   23  C   UNL     1      39.527 -15.561   2.404  1.00  0.00     0.001 A 
HETATM   24  C   UNL     1      40.434 -16.227   3.233  1.00  0.00     0.013 A 
ENDBRANCH  17  18
ENDBRANCH  12  15
ENDBRANCH   1  11
BRANCH   8  25
HETATM   25  C   UNL     1      45.313  -9.983   8.516  1.00  0.00     0.270 C 
HETATM   26  N   UNL     1      46.288  -9.143   8.052  1.00  0.00    -0.365 N 
HETATM   27  H   UNL     1      46.061  -8.506   7.298  1.00  0.00     0.159 HD
HETATM   28  H   UNL     1      47.207  -9.164   8.463  1.00  0.00     0.159 HD
HETATM   29  O   UNL     1      45.530 -10.773   9.429  1.00  0.00    -0.266 OA
ENDBRANCH   8  25
TORSDOF 4
ENDMDL
