MODEL 1
REMARK VINA RESULT:      -8.3      0.000      0.000
REMARK  4 active torsions:
REMARK  status: ('A' for Active; 'I' for Inactive)
REMARK    1  A    between atoms: C_2  and  N_3 
REMARK    2  A    between atoms: C_11  and  N_12 
REMARK    3  A    between atoms: N_12  and  C_15 
REMARK    4  A    between atoms: C_15  and  C_16 
ROOT
HETATM    1  N   UNL     1      40.802 -14.632   1.328  1.00  0.00    -0.067 N 
HETATM    2  H   UNL     1      40.259 -14.700   0.452  1.00  0.00     0.280 HD
HETATM    3  C   UNL     1      42.252 -14.758   0.896  1.00  0.00     0.238 C 
HETATM    4  C   UNL     1      43.162 -14.879   2.116  1.00  0.00     0.066 C 
HETATM    5  C   UNL     1      42.790 -16.073   3.031  1.00  0.00     0.073 C 
HETATM    6  O   UNL     1      42.982 -17.249   2.238  1.00  0.00    -0.339 OA
HETATM    7  C   UNL     1      43.309 -18.421   2.851  1.00  0.00     0.078 A 
HETATM    8  C   UNL     1      43.706 -18.538   4.187  1.00  0.00     0.006 A 
HETATM    9  C   UNL     1      43.754 -17.341   5.086  1.00  0.00     0.224 C 
HETATM   10  C   UNL     1      43.732 -16.049   4.256  1.00  0.00     0.076 C 
HETATM   11  C   UNL     1      43.273 -19.544   2.020  1.00  0.00     0.037 A 
HETATM   12  C   UNL     1      43.633 -20.796   2.512  1.00  0.00     0.003 A 
HETATM   13  C   UNL     1      44.052 -20.926   3.830  1.00  0.00     0.001 A 
HETATM   14  C   UNL     1      44.099 -19.804   4.660  1.00  0.00     0.012 A 
HETATM   15  C   UNL     1      41.290 -15.985   3.378  1.00  0.00     0.066 C 
HETATM   16  C   UNL     1      40.419 -15.858   2.125  1.00  0.00     0.238 C 
ENDROOT
BRANCH   9  17
HETATM   17  N   UNL     1      42.642 -17.305   6.095  1.00  0.00    -0.063 N 
HETATM   18  H   UNL     1      41.741 -17.144   5.628  1.00  0.00     0.278 HD
HETATM   19  H   UNL     1      42.573 -18.199   6.588  1.00  0.00     0.278 HD
BRANCH  17  20
HETATM   20  C   UNL     1      42.714 -16.253   7.163  1.00  0.00     0.274 C 
BRANCH  20  21
HETATM   21  C   UNL     1      41.732 -15.196   6.835  1.00  0.00     0.004 A 
HETATM   22  C   UNL     1      41.966 -13.891   6.440  1.00  0.00     0.122 A 
HETATM   23  N   UNL     1      40.737 -13.327   6.229  1.00  0.00    -0.285 N 
HETATM   24  C   UNL     1      40.446 -11.962   5.850  1.00  0.00     0.179 C 
HETATM   25  N   UNL     1      39.733 -14.205   6.379  1.00  0.00    -0.185 NA
HETATM   26  C   UNL     1      40.323 -15.311   6.821  1.00  0.00     0.149 A 
ENDBRANCH  20  21
ENDBRANCH  17  20
ENDBRANCH   9  17
BRANCH   1  27
HETATM   27  C   UNL     1      40.397 -13.270   1.921  1.00  0.00     0.180 C 
HETATM   28  C   UNL     1      39.098 -13.396   2.718  1.00  0.00     0.039 C 
HETATM   29  C   UNL     1      40.200 -12.249   0.799  1.00  0.00     0.039 C 
ENDBRANCH   1  27
TORSDOF 4
ENDMDL
MODEL 2
REMARK VINA RESULT:      -7.8      2.330      5.594
REMARK  4 active torsions:
REMARK  status: ('A' for Active; 'I' for Inactive)
REMARK    1  A    between atoms: C_2  and  N_3 
REMARK    2  A    between atoms: C_11  and  N_12 
REMARK    3  A    between atoms: N_12  and  C_15 
REMARK    4  A    between atoms: C_15  and  C_16 
ROOT
HETATM    1  N   UNL     1      40.044 -12.287   0.515  1.00  0.00    -0.067 N 
HETATM    2  H   UNL     1      39.903 -11.292   0.281  1.00  0.00     0.280 HD
HETATM    3  C   UNL     1      39.131 -12.541   1.703  1.00  0.00     0.238 C 
HETATM    4  C   UNL     1      39.389 -13.928   2.286  1.00  0.00     0.066 C 
HETATM    5  C   UNL     1      40.863 -14.139   2.713  1.00  0.00     0.073 C 
HETATM    6  O   UNL     1      41.109 -13.187   3.753  1.00  0.00    -0.339 OA
HETATM    7  C   UNL     1      42.040 -13.469   4.709  1.00  0.00     0.078 A 
HETATM    8  C   UNL     1      42.628 -14.723   4.904  1.00  0.00     0.006 A 
HETATM    9  C   UNL     1      42.298 -15.878   4.009  1.00  0.00     0.224 C 
HETATM   10  C   UNL     1      41.012 -15.592   3.220  1.00  0.00     0.076 C 
HETATM   11  C   UNL     1      42.351 -12.399   5.553  1.00  0.00     0.037 A 
HETATM   12  C   UNL     1      43.251 -12.569   6.602  1.00  0.00     0.003 A 
HETATM   13  C   UNL     1      43.825 -13.814   6.825  1.00  0.00     0.001 A 
HETATM   14  C   UNL     1      43.509 -14.887   5.989  1.00  0.00     0.012 A 
HETATM   15  C   UNL     1      41.782 -13.781   1.527  1.00  0.00     0.066 C 
HETATM   16  C   UNL     1      41.481 -12.385   0.972  1.00  0.00     0.238 C 
ENDROOT
BRANCH   9  17
HETATM   17  N   UNL     1      43.402 -16.229   3.054  1.00  0.00    -0.063 N 
HETATM   18  H   UNL     1      43.655 -15.412   2.484  1.00  0.00     0.278 HD
HETATM   19  H   UNL     1      44.242 -16.515   3.563  1.00  0.00     0.278 HD
BRANCH  17  20
HETATM   20  C   UNL     1      43.132 -17.321   2.060  1.00  0.00     0.274 C 
BRANCH  20  21
HETATM   21  C   UNL     1      43.460 -18.615   2.698  1.00  0.00     0.004 A 
HETATM   22  C   UNL     1      43.883 -18.856   3.993  1.00  0.00     0.122 A 
HETATM   23  N   UNL     1      44.025 -20.213   4.104  1.00  0.00    -0.285 N 
HETATM   24  C   UNL     1      44.491 -20.962   5.250  1.00  0.00     0.179 C 
HETATM   25  N   UNL     1      43.640 -20.865   2.994  1.00  0.00    -0.185 NA
HETATM   26  C   UNL     1      43.374 -19.901   2.119  1.00  0.00     0.149 A 
ENDBRANCH  20  21
ENDBRANCH  17  20
ENDBRANCH   9  17
BRANCH   1  27
HETATM   27  C   UNL     1      39.678 -13.037  -0.779  1.00  0.00     0.180 C 
HETATM   28  C   UNL     1      40.651 -12.673  -1.902  1.00  0.00     0.039 C 
HETATM   29  C   UNL     1      38.256 -12.674  -1.210  1.00  0.00     0.039 C 
ENDBRANCH   1  27
TORSDOF 4
ENDMDL
MODEL 3
REMARK VINA RESULT:      -7.8      2.431      5.836
REMARK  4 active torsions:
REMARK  status: ('A' for Active; 'I' for Inactive)
REMARK    1  A    between atoms: C_2  and  N_3 
REMARK    2  A    between atoms: C_11  and  N_12 
REMARK    3  A    between atoms: N_12  and  C_15 
REMARK    4  A    between atoms: C_15  and  C_16 
ROOT
HETATM    1  N   UNL     1      41.834 -12.064   5.792  1.00  0.00    -0.067 N 
HETATM    2  H   UNL     1      42.405 -11.792   6.608  1.00  0.00     0.280 HD
HETATM    3  C   UNL     1      40.963 -13.204   6.289  1.00  0.00     0.238 C 
HETATM    4  C   UNL     1      40.206 -13.842   5.127  1.00  0.00     0.066 C 
HETATM    5  C   UNL     1      41.144 -14.359   4.007  1.00  0.00     0.073 C 
HETATM    6  O   UNL     1      41.944 -15.383   4.609  1.00  0.00    -0.339 OA
HETATM    7  C   UNL     1      42.421 -16.398   3.834  1.00  0.00     0.078 A 
HETATM    8  C   UNL     1      42.007 -16.664   2.525  1.00  0.00     0.006 A 
HETATM    9  C   UNL     1      41.005 -15.787   1.839  1.00  0.00     0.224 C 
HETATM   10  C   UNL     1      40.265 -14.917   2.865  1.00  0.00     0.076 C 
HETATM   11  C   UNL     1      43.353 -17.226   4.466  1.00  0.00     0.037 A 
HETATM   12  C   UNL     1      43.880 -18.330   3.801  1.00  0.00     0.003 A 
HETATM   13  C   UNL     1      43.461 -18.622   2.510  1.00  0.00     0.001 A 
HETATM   14  C   UNL     1      42.524 -17.802   1.878  1.00  0.00     0.012 A 
HETATM   15  C   UNL     1      42.091 -13.218   3.584  1.00  0.00     0.066 C 
HETATM   16  C   UNL     1      42.820 -12.604   4.783  1.00  0.00     0.238 C 
ENDROOT
BRANCH   9  17
HETATM   17  N   UNL     1      41.606 -14.907   0.781  1.00  0.00    -0.063 N 
HETATM   18  H   UNL     1      42.553 -14.617   1.052  1.00  0.00     0.278 HD
HETATM   19  H   UNL     1      41.686 -15.413  -0.106  1.00  0.00     0.278 HD
BRANCH  17  20
HETATM   20  C   UNL     1      40.890 -13.627   0.460  1.00  0.00     0.274 C 
BRANCH  20  21
HETATM   21  C   UNL     1      40.313 -13.751  -0.897  1.00  0.00     0.004 A 
HETATM   22  C   UNL     1      39.313 -14.600  -1.336  1.00  0.00     0.122 A 
HETATM   23  N   UNL     1      39.118 -14.312  -2.660  1.00  0.00    -0.285 N 
HETATM   24  C   UNL     1      38.210 -14.960  -3.580  1.00  0.00     0.179 C 
HETATM   25  N   UNL     1      39.866 -13.278  -3.079  1.00  0.00    -0.185 NA
HETATM   26  C   UNL     1      40.644 -12.989  -2.040  1.00  0.00     0.149 A 
ENDBRANCH  20  21
ENDBRANCH  17  20
ENDBRANCH   9  17
BRANCH   1  27
HETATM   27  C   UNL     1      41.088 -10.773   5.405  1.00  0.00     0.180 C 
HETATM   28  C   UNL     1      42.065  -9.735   4.849  1.00  0.00     0.039 C 
HETATM   29  C   UNL     1      40.380 -10.191   6.630  1.00  0.00     0.039 C 
ENDBRANCH   1  27
TORSDOF 4
ENDMDL
MODEL 4
REMARK VINA RESULT:      -7.8      2.105      5.348
REMARK  4 active torsions:
REMARK  status: ('A' for Active; 'I' for Inactive)
REMARK    1  A    between atoms: C_2  and  N_3 
REMARK    2  A    between atoms: C_11  and  N_12 
REMARK    3  A    between atoms: N_12  and  C_15 
REMARK    4  A    between atoms: C_15  and  C_16 
ROOT
HETATM    1  N   UNL     1      42.354 -12.179   5.618  1.00  0.00    -0.067 N 
HETATM    2  H   UNL     1      43.076 -11.777   6.236  1.00  0.00     0.280 HD
HETATM    3  C   UNL     1      41.738 -13.309   6.423  1.00  0.00     0.238 C 
HETATM    4  C   UNL     1      40.788 -14.127   5.553  1.00  0.00     0.066 C 
HETATM    5  C   UNL     1      41.473 -14.707   4.291  1.00  0.00     0.073 C 
HETATM    6  O   UNL     1      42.486 -15.598   4.770  1.00  0.00    -0.339 OA
HETATM    7  C   UNL     1      42.856 -16.662   4.002  1.00  0.00     0.078 A 
HETATM    8  C   UNL     1      42.166 -17.106   2.870  1.00  0.00     0.006 A 
HETATM    9  C   UNL     1      40.951 -16.384   2.373  1.00  0.00     0.224 C 
HETATM   10  C   UNL     1      40.402 -15.452   3.462  1.00  0.00     0.076 C 
HETATM   11  C   UNL     1      43.985 -17.347   4.460  1.00  0.00     0.037 A 
HETATM   12  C   UNL     1      44.438 -18.483   3.794  1.00  0.00     0.003 A 
HETATM   13  C   UNL     1      43.751 -18.951   2.681  1.00  0.00     0.001 A 
HETATM   14  C   UNL     1      42.617 -18.275   2.227  1.00  0.00     0.012 A 
HETATM   15  C   UNL     1      42.179 -13.562   3.537  1.00  0.00     0.066 C 
HETATM   16  C   UNL     1      43.115 -12.766   4.452  1.00  0.00     0.238 C 
ENDROOT
BRANCH   9  17
HETATM   17  N   UNL     1      41.196 -15.595   1.119  1.00  0.00    -0.063 N 
HETATM   18  H   UNL     1      41.742 -14.750   1.328  1.00  0.00     0.278 HD
HETATM   19  H   UNL     1      41.736 -16.146   0.445  1.00  0.00     0.278 HD
BRANCH  17  20
HETATM   20  C   UNL     1      39.993 -15.099   0.371  1.00  0.00     0.274 C 
BRANCH  20  21
HETATM   21  C   UNL     1      40.384 -13.881  -0.374  1.00  0.00     0.004 A 
HETATM   22  C   UNL     1      40.263 -13.620  -1.727  1.00  0.00     0.122 A 
HETATM   23  N   UNL     1      40.739 -12.351  -1.917  1.00  0.00    -0.285 N 
HETATM   24  C   UNL     1      40.868 -11.635  -3.167  1.00  0.00     0.179 C 
HETATM   25  N   UNL     1      41.078 -11.749  -0.766  1.00  0.00    -0.185 NA
HETATM   26  C   UNL     1      40.940 -12.695   0.157  1.00  0.00     0.149 A 
ENDBRANCH  20  21
ENDBRANCH  17  20
ENDBRANCH   9  17
BRANCH   1  27
HETATM   27  C   UNL     1      41.419 -10.995   5.306  1.00  0.00     0.180 C 
HETATM   28  C   UNL     1      42.119  -9.985   4.395  1.00  0.00     0.039 C 
HETATM   29  C   UNL     1      41.008 -10.298   6.604  1.00  0.00     0.039 C 
ENDBRANCH   1  27
TORSDOF 4
ENDMDL
MODEL 5
REMARK VINA RESULT:      -7.2      2.672      6.014
REMARK  4 active torsions:
REMARK  status: ('A' for Active; 'I' for Inactive)
REMARK    1  A    between atoms: C_2  and  N_3 
REMARK    2  A    between atoms: C_11  and  N_12 
REMARK    3  A    between atoms: N_12  and  C_15 
REMARK    4  A    between atoms: C_15  and  C_16 
ROOT
HETATM    1  N   UNL     1      40.909 -10.608   4.497  1.00  0.00    -0.067 N 
HETATM    2  H   UNL     1      41.479 -10.023   5.129  1.00  0.00     0.280 HD
HETATM    3  C   UNL     1      40.243 -11.627   5.405  1.00  0.00     0.238 C 
HETATM    4  C   UNL     1      39.524 -12.688   4.577  1.00  0.00     0.066 C 
HETATM    5  C   UNL     1      40.464 -13.418   3.584  1.00  0.00     0.073 C 
HETATM    6  O   UNL     1      41.437 -14.092   4.389  1.00  0.00    -0.339 OA
HETATM    7  C   UNL     1      42.014 -15.235   3.921  1.00  0.00     0.078 A 
HETATM    8  C   UNL     1      41.570 -15.953   2.806  1.00  0.00     0.006 A 
HETATM    9  C   UNL     1      40.414 -15.468   1.986  1.00  0.00     0.224 C 
HETATM   10  C   UNL     1      39.614 -14.413   2.762  1.00  0.00     0.076 C 
HETATM   11  C   UNL     1      43.090 -15.699   4.683  1.00  0.00     0.037 A 
HETATM   12  C   UNL     1      43.735 -16.884   4.341  1.00  0.00     0.003 A 
HETATM   13  C   UNL     1      43.292 -17.622   3.250  1.00  0.00     0.001 A 
HETATM   14  C   UNL     1      42.212 -17.166   2.493  1.00  0.00     0.012 A 
HETATM   15  C   UNL     1      41.208 -12.365   2.738  1.00  0.00     0.066 C 
HETATM   16  C   UNL     1      41.906 -11.318   3.611  1.00  0.00     0.238 C 
ENDROOT
BRANCH   9  17
HETATM   17  N   UNL     1      40.820 -14.905   0.654  1.00  0.00    -0.063 N 
HETATM   18  H   UNL     1      41.175 -13.948   0.763  1.00  0.00     0.278 HD
HETATM   19  H   UNL     1      41.573 -15.463   0.241  1.00  0.00     0.278 HD
BRANCH  17  20
HETATM   20  C   UNL     1      39.760 -14.803  -0.404  1.00  0.00     0.274 C 
BRANCH  20  21
HETATM   21  C   UNL     1      40.142 -13.719  -1.336  1.00  0.00     0.004 A 
HETATM   22  C   UNL     1      40.420 -12.394  -1.052  1.00  0.00     0.122 A 
HETATM   23  N   UNL     1      40.749 -11.807  -2.244  1.00  0.00    -0.285 N 
HETATM   24  C   UNL     1      41.075 -10.419  -2.484  1.00  0.00     0.179 C 
HETATM   25  N   UNL     1      40.784 -12.685  -3.260  1.00  0.00    -0.185 NA
HETATM   26  C   UNL     1      40.343 -13.822  -2.731  1.00  0.00     0.149 A 
ENDBRANCH  20  21
ENDBRANCH  17  20
ENDBRANCH   9  17
BRANCH   1  27
HETATM   27  C   UNL     1      39.962  -9.608   3.807  1.00  0.00     0.180 C 
HETATM   28  C   UNL     1      40.757  -8.462   3.180  1.00  0.00     0.039 C 
HETATM   29  C   UNL     1      38.974  -9.036   4.825  1.00  0.00     0.039 C 
ENDBRANCH   1  27
TORSDOF 4
ENDMDL
MODEL 6
REMARK VINA RESULT:      -7.1      3.106      4.732
REMARK  4 active torsions:
REMARK  status: ('A' for Active; 'I' for Inactive)
REMARK    1  A    between atoms: C_2  and  N_3 
REMARK    2  A    between atoms: C_11  and  N_12 
REMARK    3  A    between atoms: N_12  and  C_15 
REMARK    4  A    between atoms: C_15  and  C_16 
ROOT
HETATM    1  N   UNL     1      39.311 -13.284   1.459  1.00  0.00    -0.067 N 
HETATM    2  H   UNL     1      38.553 -13.876   1.085  1.00  0.00     0.280 HD
HETATM    3  C   UNL     1      40.589 -14.034   1.128  1.00  0.00     0.238 C 
HETATM    4  C   UNL     1      41.786 -13.371   1.805  1.00  0.00     0.066 C 
HETATM    5  C   UNL     1      41.631 -13.269   3.343  1.00  0.00     0.073 C 
HETATM    6  O   UNL     1      41.565 -14.617   3.820  1.00  0.00    -0.339 OA
HETATM    7  C   UNL     1      42.003 -14.902   5.079  1.00  0.00     0.078 A 
HETATM    8  C   UNL     1      42.736 -14.025   5.885  1.00  0.00     0.006 A 
HETATM    9  C   UNL     1      43.063 -12.639   5.420  1.00  0.00     0.224 C 
HETATM   10  C   UNL     1      42.865 -12.525   3.902  1.00  0.00     0.076 C 
HETATM   11  C   UNL     1      41.709 -16.195   5.520  1.00  0.00     0.037 A 
HETATM   12  C   UNL     1      42.144 -16.629   6.770  1.00  0.00     0.003 A 
HETATM   13  C   UNL     1      42.894 -15.779   7.573  1.00  0.00     0.001 A 
HETATM   14  C   UNL     1      43.198 -14.490   7.131  1.00  0.00     0.012 A 
HETATM   15  C   UNL     1      40.281 -12.596   3.664  1.00  0.00     0.066 C 
HETATM   16  C   UNL     1      39.112 -13.290   2.958  1.00  0.00     0.238 C 
ENDROOT
BRANCH   9  17
HETATM   17  N   UNL     1      42.260 -11.573   6.109  1.00  0.00    -0.063 N 
HETATM   18  H   UNL     1      41.419 -11.349   5.564  1.00  0.00     0.278 HD
HETATM   19  H   UNL     1      41.948 -11.895   7.030  1.00  0.00     0.278 HD
BRANCH  17  20
HETATM   20  C   UNL     1      42.929 -10.250   6.343  1.00  0.00     0.274 C 
BRANCH  20  21
HETATM   21  C   UNL     1      43.541 -10.275   7.690  1.00  0.00     0.004 A 
HETATM   22  C   UNL     1      43.061  -9.731   8.867  1.00  0.00     0.122 A 
HETATM   23  N   UNL     1      43.974 -10.047   9.837  1.00  0.00    -0.285 N 
HETATM   24  C   UNL     1      43.948  -9.665  11.231  1.00  0.00     0.179 C 
HETATM   25  N   UNL     1      44.964 -10.830   9.379  1.00  0.00    -0.185 NA
HETATM   26  C   UNL     1      44.749 -10.904   8.069  1.00  0.00     0.149 A 
ENDBRANCH  20  21
ENDBRANCH  17  20
ENDBRANCH   9  17
BRANCH   1  27
HETATM   27  C   UNL     1      39.125 -11.933   0.744  1.00  0.00     0.180 C 
HETATM   28  C   UNL     1      37.799 -11.288   1.152  1.00  0.00     0.039 C 
HETATM   29  C   UNL     1      39.138 -12.137  -0.771  1.00  0.00     0.039 C 
ENDBRANCH   1  27
TORSDOF 4
ENDMDL
MODEL 7
REMARK VINA RESULT:      -7.1      4.290      7.168
REMARK  4 active torsions:
REMARK  status: ('A' for Active; 'I' for Inactive)
REMARK    1  A    between atoms: C_2  and  N_3 
REMARK    2  A    between atoms: C_11  and  N_12 
REMARK    3  A    between atoms: N_12  and  C_15 
REMARK    4  A    between atoms: C_15  and  C_16 
ROOT
HETATM    1  N   UNL     1      42.419 -14.949   4.450  1.00  0.00    -0.067 N 
HETATM    2  H   UNL     1      42.974 -15.816   4.374  1.00  0.00     0.280 HD
HETATM    3  C   UNL     1      43.141 -13.946   3.568  1.00  0.00     0.238 C 
HETATM    4  C   UNL     1      42.543 -12.553   3.744  1.00  0.00     0.066 C 
HETATM    5  C   UNL     1      42.573 -12.064   5.214  1.00  0.00     0.073 C 
HETATM    6  O   UNL     1      43.957 -11.981   5.570  1.00  0.00    -0.339 OA
HETATM    7  C   UNL     1      44.350 -11.079   6.514  1.00  0.00     0.078 A 
HETATM    8  C   UNL     1      43.548 -10.048   7.013  1.00  0.00     0.006 A 
HETATM    9  C   UNL     1      42.128  -9.887   6.564  1.00  0.00     0.224 C 
HETATM   10  C   UNL     1      41.883 -10.682   5.274  1.00  0.00     0.076 C 
HETATM   11  C   UNL     1      45.675 -11.217   6.936  1.00  0.00     0.037 A 
HETATM   12  C   UNL     1      46.216 -10.327   7.860  1.00  0.00     0.003 A 
HETATM   13  C   UNL     1      45.441  -9.283   8.348  1.00  0.00     0.001 A 
HETATM   14  C   UNL     1      44.120  -9.137   7.921  1.00  0.00     0.012 A 
HETATM   15  C   UNL     1      41.925 -13.139   6.110  1.00  0.00     0.066 C 
HETATM   16  C   UNL     1      42.553 -14.519   5.893  1.00  0.00     0.238 C 
ENDROOT
BRANCH   9  17
HETATM   17  N   UNL     1      41.123 -10.297   7.601  1.00  0.00    -0.063 N 
HETATM   18  H   UNL     1      40.381 -10.865   7.175  1.00  0.00     0.278 HD
HETATM   19  H   UNL     1      41.565 -10.870   8.326  1.00  0.00     0.278 HD
BRANCH  17  20
HETATM   20  C   UNL     1      40.398  -9.203   8.331  1.00  0.00     0.274 C 
BRANCH  20  21
HETATM   21  C   UNL     1      40.538  -9.448   9.783  1.00  0.00     0.004 A 
HETATM   22  C   UNL     1      39.600  -9.947  10.669  1.00  0.00     0.122 A 
HETATM   23  N   UNL     1      40.219 -10.012  11.888  1.00  0.00    -0.285 N 
HETATM   24  C   UNL     1      39.645 -10.424  13.149  1.00  0.00     0.179 C 
HETATM   25  N   UNL     1      41.516  -9.668  11.827  1.00  0.00    -0.185 NA
HETATM   26  C   UNL     1      41.691  -9.252  10.577  1.00  0.00     0.149 A 
ENDBRANCH  20  21
ENDBRANCH  17  20
ENDBRANCH   9  17
BRANCH   1  27
HETATM   27  C   UNL     1      41.010 -15.358   3.980  1.00  0.00     0.180 C 
HETATM   28  C   UNL     1      40.383 -16.346   4.966  1.00  0.00     0.039 C 
HETATM   29  C   UNL     1      41.089 -16.010   2.599  1.00  0.00     0.039 C 
ENDBRANCH   1  27
TORSDOF 4
ENDMDL
MODEL 8
REMARK VINA RESULT:      -7.0     13.798     15.267
REMARK  4 active torsions:
REMARK  status: ('A' for Active; 'I' for Inactive)
REMARK    1  A    between atoms: C_2  and  N_3 
REMARK    2  A    between atoms: C_11  and  N_12 
REMARK    3  A    between atoms: N_12  and  C_15 
REMARK    4  A    between atoms: C_15  and  C_16 
ROOT
HETATM    1  N   UNL     1      46.459 -29.977  -2.569  1.00  0.00    -0.067 N 
HETATM    2  H   UNL     1      46.805 -30.534  -3.366  1.00  0.00     0.280 HD
HETATM    3  C   UNL     1      47.510 -28.901  -2.360  1.00  0.00     0.238 C 
HETATM    4  C   UNL     1      47.229 -28.124  -1.077  1.00  0.00     0.066 C 
HETATM    5  C   UNL     1      47.162 -29.031   0.177  1.00  0.00     0.073 C 
HETATM    6  O   UNL     1      48.463 -29.613   0.309  1.00  0.00    -0.339 OA
HETATM    7  C   UNL     1      48.914 -29.964   1.547  1.00  0.00     0.078 A 
HETATM    8  C   UNL     1      48.308 -29.593   2.751  1.00  0.00     0.006 A 
HETATM    9  C   UNL     1      47.041 -28.793   2.764  1.00  0.00     0.224 C 
HETATM   10  C   UNL     1      46.806 -28.144   1.392  1.00  0.00     0.076 C 
HETATM   11  C   UNL     1      50.098 -30.706   1.547  1.00  0.00     0.037 A 
HETATM   12  C   UNL     1      50.693 -31.085   2.748  1.00  0.00     0.003 A 
HETATM   13  C   UNL     1      50.116 -30.704   3.953  1.00  0.00     0.001 A 
HETATM   14  C   UNL     1      48.938 -29.955   3.957  1.00  0.00     0.012 A 
HETATM   15  C   UNL     1      46.164 -30.177  -0.089  1.00  0.00     0.066 C 
HETATM   16  C   UNL     1      46.482 -30.922  -1.389  1.00  0.00     0.238 C 
ENDROOT
BRANCH   9  17
HETATM   17  N   UNL     1      45.832 -29.594   3.150  1.00  0.00    -0.063 N 
HETATM   18  H   UNL     1      45.808 -30.480   2.630  1.00  0.00     0.278 HD
HETATM   19  H   UNL     1      45.858 -29.829   4.147  1.00  0.00     0.278 HD
BRANCH  17  20
HETATM   20  C   UNL     1      44.487 -28.972   2.911  1.00  0.00     0.274 C 
BRANCH  20  21
HETATM   21  C   UNL     1      43.521 -30.057   2.632  1.00  0.00     0.004 A 
HETATM   22  C   UNL     1      42.200 -29.956   2.236  1.00  0.00     0.122 A 
HETATM   23  N   UNL     1      41.746 -31.239   2.081  1.00  0.00    -0.285 N 
HETATM   24  C   UNL     1      40.412 -31.666   1.723  1.00  0.00     0.179 C 
HETATM   25  N   UNL     1      42.711 -32.154   2.269  1.00  0.00    -0.185 NA
HETATM   26  C   UNL     1      43.761 -31.449   2.678  1.00  0.00     0.149 A 
ENDBRANCH  20  21
ENDBRANCH  17  20
ENDBRANCH   9  17
BRANCH   1  27
HETATM   27  C   UNL     1      45.076 -29.479  -3.026  1.00  0.00     0.180 C 
HETATM   28  C   UNL     1      44.292 -30.610  -3.694  1.00  0.00     0.039 C 
HETATM   29  C   UNL     1      45.238 -28.327  -4.020  1.00  0.00     0.039 C 
ENDBRANCH   1  27
TORSDOF 4
ENDMDL
MODEL 9
REMARK VINA RESULT:      -7.0     14.201     17.416
REMARK  4 active torsions:
REMARK  status: ('A' for Active; 'I' for Inactive)
REMARK    1  A    between atoms: C_2  and  N_3 
REMARK    2  A    between atoms: C_11  and  N_12 
REMARK    3  A    between atoms: N_12  and  C_15 
REMARK    4  A    between atoms: C_15  and  C_16 
ROOT
HETATM    1  N   UNL     1      45.146 -28.522  -1.785  1.00  0.00    -0.067 N 
HETATM    2  H   UNL     1      44.434 -27.794  -1.618  1.00  0.00     0.280 HD
HETATM    3  C   UNL     1      44.762 -29.662  -0.857  1.00  0.00     0.238 C 
HETATM    4  C   UNL     1      45.850 -30.732  -0.851  1.00  0.00     0.066 C 
HETATM    5  C   UNL     1      47.239 -30.180  -0.443  1.00  0.00     0.073 C 
HETATM    6  O   UNL     1      47.094 -29.711   0.902  1.00  0.00    -0.339 OA
HETATM    7  C   UNL     1      48.178 -29.714   1.730  1.00  0.00     0.078 A 
HETATM    8  C   UNL     1      49.388 -30.358   1.455  1.00  0.00     0.006 A 
HETATM    9  C   UNL     1      49.605 -31.076   0.158  1.00  0.00     0.224 C 
HETATM   10  C   UNL     1      48.262 -31.335  -0.539  1.00  0.00     0.076 C 
HETATM   11  C   UNL     1      47.985 -29.052   2.945  1.00  0.00     0.037 A 
HETATM   12  C   UNL     1      48.997 -29.025   3.901  1.00  0.00     0.003 A 
HETATM   13  C   UNL     1      50.197 -29.679   3.654  1.00  0.00     0.001 A 
HETATM   14  C   UNL     1      50.389 -30.350   2.445  1.00  0.00     0.012 A 
HETATM   15  C   UNL     1      47.569 -28.961  -1.328  1.00  0.00     0.066 C 
HETATM   16  C   UNL     1      46.447 -27.919  -1.309  1.00  0.00     0.238 C 
ENDROOT
BRANCH   9  17
HETATM   17  N   UNL     1      50.523 -30.349  -0.782  1.00  0.00    -0.063 N 
HETATM   18  H   UNL     1      50.208 -29.380  -0.911  1.00  0.00     0.278 HD
HETATM   19  H   UNL     1      51.473 -30.311  -0.401  1.00  0.00     0.278 HD
BRANCH  17  20
HETATM   20  C   UNL     1      50.660 -30.897  -2.173  1.00  0.00     0.274 C 
BRANCH  20  21
HETATM   21  C   UNL     1      51.961 -31.595  -2.265  1.00  0.00     0.004 A 
HETATM   22  C   UNL     1      52.732 -32.125  -1.246  1.00  0.00     0.122 A 
HETATM   23  N   UNL     1      53.826 -32.689  -1.845  1.00  0.00    -0.285 N 
HETATM   24  C   UNL     1      54.951 -33.331  -1.203  1.00  0.00     0.179 C 
HETATM   25  N   UNL     1      53.767 -32.632  -3.186  1.00  0.00    -0.185 NA
HETATM   26  C   UNL     1      52.684 -31.904  -3.440  1.00  0.00     0.149 A 
ENDBRANCH  20  21
ENDBRANCH  17  20
ENDBRANCH   9  17
BRANCH   1  27
HETATM   27  C   UNL     1      45.035 -28.822  -3.292  1.00  0.00     0.180 C 
HETATM   28  C   UNL     1      45.178 -27.535  -4.106  1.00  0.00     0.039 C 
HETATM   29  C   UNL     1      43.681 -29.463  -3.599  1.00  0.00     0.039 C 
ENDBRANCH   1  27
TORSDOF 4
ENDMDL
MODEL 10
REMARK VINA RESULT:      -6.8     14.222     15.838
REMARK  4 active torsions:
REMARK  status: ('A' for Active; 'I' for Inactive)
REMARK    1  A    between atoms: C_2  and  N_3 
REMARK    2  A    between atoms: C_11  and  N_12 
REMARK    3  A    between atoms: N_12  and  C_15 
REMARK    4  A    between atoms: C_15  and  C_16 
ROOT
HETATM    1  N   UNL     1      49.069 -29.206   1.639  1.00  0.00    -0.067 N 
HETATM    2  H   UNL     1      49.728 -28.413   1.703  1.00  0.00     0.280 HD
HETATM    3  C   UNL     1      49.494 -29.965   0.395  1.00  0.00     0.238 C 
HETATM    4  C   UNL     1      48.477 -31.053   0.061  1.00  0.00     0.066 C 
HETATM    5  C   UNL     1      47.043 -30.500  -0.135  1.00  0.00     0.073 C 
HETATM    6  O   UNL     1      47.114 -29.623  -1.264  1.00  0.00    -0.339 OA
HETATM    7  C   UNL     1      46.006 -29.442  -2.039  1.00  0.00     0.078 A 
HETATM    8  C   UNL     1      44.848 -30.223  -1.969  1.00  0.00     0.006 A 
HETATM    9  C   UNL     1      44.721 -31.327  -0.963  1.00  0.00     0.224 C 
HETATM   10  C   UNL     1      46.100 -31.696  -0.398  1.00  0.00     0.076 C 
HETATM   11  C   UNL     1      46.117 -28.419  -2.984  1.00  0.00     0.037 A 
HETATM   12  C   UNL     1      45.074 -28.164  -3.871  1.00  0.00     0.003 A 
HETATM   13  C   UNL     1      43.927 -28.946  -3.831  1.00  0.00     0.001 A 
HETATM   14  C   UNL     1      43.817 -29.976  -2.894  1.00  0.00     0.012 A 
HETATM   15  C   UNL     1      46.665 -29.648   1.094  1.00  0.00     0.066 C 
HETATM   16  C   UNL     1      47.718 -28.577   1.393  1.00  0.00     0.238 C 
ENDROOT
BRANCH   9  17
HETATM   17  N   UNL     1      43.790 -30.999   0.169  1.00  0.00    -0.063 N 
HETATM   18  H   UNL     1      43.999 -30.067   0.546  1.00  0.00     0.278 HD
HETATM   19  H   UNL     1      42.819 -30.985  -0.155  1.00  0.00     0.278 HD
BRANCH  17  20
HETATM   20  C   UNL     1      43.810 -31.909   1.363  1.00  0.00     0.274 C 
BRANCH  20  21
HETATM   21  C   UNL     1      42.820 -31.406   2.341  1.00  0.00     0.004 A 
HETATM   22  C   UNL     1      41.943 -32.127   3.131  1.00  0.00     0.122 A 
HETATM   23  N   UNL     1      41.261 -31.210   3.883  1.00  0.00    -0.285 N 
HETATM   24  C   UNL     1      40.199 -31.461   4.832  1.00  0.00     0.179 C 
HETATM   25  N   UNL     1      41.700 -29.955   3.692  1.00  0.00    -0.185 NA
HETATM   26  C   UNL     1      42.585 -30.061   2.706  1.00  0.00     0.149 A 
ENDBRANCH  20  21
ENDBRANCH  17  20
ENDBRANCH   9  17
BRANCH   1  27
HETATM   27  C   UNL     1      49.248 -29.956   2.972  1.00  0.00     0.180 C 
HETATM   28  C   UNL     1      48.824 -29.072   4.146  1.00  0.00     0.039 C 
HETATM   29  C   UNL     1      50.713 -30.360   3.152  1.00  0.00     0.039 C 
ENDBRANCH   1  27
TORSDOF 4
ENDMDL
