MODEL 1
REMARK VINA RESULT:      -8.6      0.000      0.000
REMARK  6 active torsions:
REMARK  status: ('A' for Active; 'I' for Inactive)
REMARK    1  A    between atoms: C_2  and  C_4 
REMARK    2  A    between atoms: C_2  and  C_11 
REMARK    3  A    between atoms: C_2  and  O_3 
REMARK    4  A    between atoms: C_11  and  N_12 
REMARK       I    between atoms: N_12  and  C_13 
REMARK    5  A    between atoms: C_13  and  C_14 
REMARK    6  A    between atoms: C_15  and  C_16 
ROOT
HETATM    1  N   UNL     1      41.718 -15.194   6.161  1.00  0.00    -0.354 N 
HETATM    2  C   UNL     1      40.464 -14.628   6.135  1.00  0.00     0.255 C 
HETATM    3  O   UNL     1      39.539 -15.071   6.811  1.00  0.00    -0.268 OA
HETATM    4  H   UNL     1      42.357 -14.940   5.419  1.00  0.00     0.162 HD
ENDROOT
BRANCH   2   5
HETATM    5  C   UNL     1      40.329 -13.486   5.247  1.00  0.00     0.080 A 
HETATM    6  C   UNL     1      40.755 -13.353   3.887  1.00  0.00     0.107 A 
HETATM    7  N   UNL     1      40.360 -12.172   3.375  1.00  0.00    -0.173 NA
HETATM    8  N   UNL     1      39.742 -11.553   4.386  1.00  0.00    -0.288 N 
HETATM    9  H   UNL     1      39.362 -10.628   4.218  1.00  0.00     0.188 HD
HETATM   10  C   UNL     1      39.699 -12.288   5.531  1.00  0.00     0.128 A 
BRANCH   6  11
HETATM   11  C   UNL     1      41.521 -14.288   3.069  1.00  0.00     0.034 A 
HETATM   12  C   UNL     1      40.983 -15.516   2.678  1.00  0.00     0.129 A 
HETATM   13  F   UNL     1      39.750 -15.877   3.066  1.00  0.00    -0.205 F 
HETATM   14  C   UNL     1      41.717 -16.414   1.904  1.00  0.00     0.043 A 
HETATM   15  C   UNL     1      43.017 -16.093   1.519  1.00  0.00     0.003 A 
HETATM   16  C   UNL     1      43.578 -14.878   1.915  1.00  0.00     0.001 A 
HETATM   17  C   UNL     1      42.836 -13.981   2.689  1.00  0.00     0.017 A 
ENDBRANCH   6  11
ENDBRANCH   2   5
BRANCH   1  18
HETATM   18  C   UNL     1      42.038 -16.356   6.979  1.00  0.00     0.165 C 
BRANCH  18  19
HETATM   19  C   UNL     1      43.506 -16.877   6.864  1.00  0.00     0.097 C 
HETATM   20  C   UNL     1      44.402 -15.730   6.368  1.00  0.00     0.053 C 
BRANCH  19  21
HETATM   21  C   UNL     1      43.663 -18.071   5.918  1.00  0.00    -0.023 A 
HETATM   22  C   UNL     1      43.914 -17.884   4.545  1.00  0.00     0.013 A 
HETATM   23  C   UNL     1      44.059 -18.978   3.687  1.00  0.00     0.043 A 
HETATM   24  C   UNL     1      43.964 -20.266   4.193  1.00  0.00     0.116 A 
HETATM   25  F   UNL     1      44.105 -21.312   3.369  1.00  0.00    -0.206 F 
HETATM   26  C   UNL     1      43.731 -20.484   5.543  1.00  0.00     0.043 A 
HETATM   27  C   UNL     1      43.585 -19.391   6.401  1.00  0.00     0.013 A 
ENDBRANCH  19  21
BRANCH  19  28
HETATM   28  O   UNL     1      44.013 -17.201   8.168  1.00  0.00    -0.384 OA
HETATM   29  H   UNL     1      43.753 -16.480   8.781  1.00  0.00     0.211 HD
ENDBRANCH  19  28
ENDBRANCH  18  19
ENDBRANCH   1  18
TORSDOF 6
ENDMDL
MODEL 2
REMARK VINA RESULT:      -8.2      3.063      6.672
REMARK  6 active torsions:
REMARK  status: ('A' for Active; 'I' for Inactive)
REMARK    1  A    between atoms: C_2  and  C_4 
REMARK    2  A    between atoms: C_2  and  C_11 
REMARK    3  A    between atoms: C_2  and  O_3 
REMARK    4  A    between atoms: C_11  and  N_12 
REMARK       I    between atoms: N_12  and  C_13 
REMARK    5  A    between atoms: C_13  and  C_14 
REMARK    6  A    between atoms: C_15  and  C_16 
ROOT
HETATM    1  N   UNL     1      41.686 -16.303   2.100  1.00  0.00    -0.354 N 
HETATM    2  C   UNL     1      43.037 -16.562   2.117  1.00  0.00     0.255 C 
HETATM    3  O   UNL     1      43.843 -15.843   1.533  1.00  0.00    -0.268 OA
HETATM    4  H   UNL     1      41.066 -17.048   2.390  1.00  0.00     0.162 HD
ENDROOT
BRANCH   2   5
HETATM    5  C   UNL     1      43.420 -17.747   2.865  1.00  0.00     0.080 A 
HETATM    6  C   UNL     1      43.426 -17.948   4.282  1.00  0.00     0.107 A 
HETATM    7  N   UNL     1      43.755 -19.219   4.584  1.00  0.00    -0.173 NA
HETATM    8  N   UNL     1      43.993 -19.798   3.403  1.00  0.00    -0.288 N 
HETATM    9  H   UNL     1      44.265 -20.775   3.397  1.00  0.00     0.188 HD
HETATM   10  C   UNL     1      43.816 -18.965   2.341  1.00  0.00     0.128 A 
BRANCH   6  11
HETATM   11  C   UNL     1      43.147 -16.991   5.347  1.00  0.00     0.034 A 
HETATM   12  C   UNL     1      44.182 -16.351   6.034  1.00  0.00     0.129 A 
HETATM   13  F   UNL     1      45.464 -16.620   5.744  1.00  0.00    -0.205 F 
HETATM   14  C   UNL     1      43.916 -15.443   7.058  1.00  0.00     0.043 A 
HETATM   15  C   UNL     1      42.598 -15.171   7.417  1.00  0.00     0.003 A 
HETATM   16  C   UNL     1      41.552 -15.814   6.755  1.00  0.00     0.001 A 
HETATM   17  C   UNL     1      41.824 -16.722   5.727  1.00  0.00     0.017 A 
ENDBRANCH   6  11
ENDBRANCH   2   5
BRANCH   1  18
HETATM   18  C   UNL     1      41.114 -15.167   1.387  1.00  0.00     0.165 C 
BRANCH  18  19
HETATM   19  C   UNL     1      40.155 -14.262   2.223  1.00  0.00     0.097 C 
HETATM   20  C   UNL     1      39.561 -13.184   1.301  1.00  0.00     0.053 C 
BRANCH  19  21
HETATM   21  C   UNL     1      40.835 -13.576   3.411  1.00  0.00    -0.023 A 
HETATM   22  C   UNL     1      42.225 -13.346   3.421  1.00  0.00     0.013 A 
HETATM   23  C   UNL     1      42.840 -12.718   4.507  1.00  0.00     0.043 A 
HETATM   24  C   UNL     1      42.073 -12.305   5.587  1.00  0.00     0.116 A 
HETATM   25  F   UNL     1      42.665 -11.701   6.626  1.00  0.00    -0.206 F 
HETATM   26  C   UNL     1      40.700 -12.504   5.602  1.00  0.00     0.043 A 
HETATM   27  C   UNL     1      40.085 -13.134   4.517  1.00  0.00     0.013 A 
ENDBRANCH  19  21
BRANCH  19  28
HETATM   28  O   UNL     1      39.024 -15.027   2.667  1.00  0.00    -0.384 OA
HETATM   29  H   UNL     1      38.852 -15.727   2.001  1.00  0.00     0.211 HD
ENDBRANCH  19  28
ENDBRANCH  18  19
ENDBRANCH   1  18
TORSDOF 6
ENDMDL
MODEL 3
REMARK VINA RESULT:      -8.2      2.856      6.515
REMARK  6 active torsions:
REMARK  status: ('A' for Active; 'I' for Inactive)
REMARK    1  A    between atoms: C_2  and  C_4 
REMARK    2  A    between atoms: C_2  and  C_11 
REMARK    3  A    between atoms: C_2  and  O_3 
REMARK    4  A    between atoms: C_11  and  N_12 
REMARK       I    between atoms: N_12  and  C_13 
REMARK    5  A    between atoms: C_13  and  C_14 
REMARK    6  A    between atoms: C_15  and  C_16 
ROOT
HETATM    1  N   UNL     1      41.821 -14.842   4.424  1.00  0.00    -0.354 N 
HETATM    2  C   UNL     1      41.379 -15.855   5.244  1.00  0.00     0.255 C 
HETATM    3  O   UNL     1      40.309 -16.425   5.052  1.00  0.00    -0.268 OA
HETATM    4  H   UNL     1      42.577 -14.265   4.766  1.00  0.00     0.162 HD
ENDROOT
BRANCH   2   5
HETATM    5  C   UNL     1      42.271 -16.182   6.344  1.00  0.00     0.080 A 
HETATM    6  C   UNL     1      43.251 -17.222   6.424  1.00  0.00     0.107 A 
HETATM    7  N   UNL     1      43.946 -17.138   7.574  1.00  0.00    -0.173 NA
HETATM    8  N   UNL     1      43.400 -16.107   8.226  1.00  0.00    -0.288 N 
HETATM    9  H   UNL     1      43.776 -15.864   9.136  1.00  0.00     0.188 HD
HETATM   10  C   UNL     1      42.391 -15.501   7.542  1.00  0.00     0.128 A 
BRANCH   6  11
HETATM   11  C   UNL     1      43.542 -18.286   5.468  1.00  0.00     0.034 A 
HETATM   12  C   UNL     1      43.528 -19.628   5.855  1.00  0.00     0.129 A 
HETATM   13  F   UNL     1      43.268 -19.972   7.125  1.00  0.00    -0.205 F 
HETATM   14  C   UNL     1      43.815 -20.645   4.945  1.00  0.00     0.043 A 
HETATM   15  C   UNL     1      44.133 -20.325   3.627  1.00  0.00     0.003 A 
HETATM   16  C   UNL     1      44.169 -18.989   3.227  1.00  0.00     0.001 A 
HETATM   17  C   UNL     1      43.878 -17.973   4.143  1.00  0.00     0.017 A 
ENDBRANCH   6  11
ENDBRANCH   2   5
BRANCH   1  18
HETATM   18  C   UNL     1      41.053 -14.368   3.280  1.00  0.00     0.165 C 
BRANCH  18  19
HETATM   19  C   UNL     1      41.354 -15.082   1.925  1.00  0.00     0.097 C 
HETATM   20  C   UNL     1      42.877 -15.224   1.766  1.00  0.00     0.053 C 
BRANCH  19  21
HETATM   21  C   UNL     1      40.797 -14.345   0.703  1.00  0.00    -0.023 A 
HETATM   22  C   UNL     1      39.890 -14.970  -0.174  1.00  0.00     0.013 A 
HETATM   23  C   UNL     1      39.383 -14.292  -1.285  1.00  0.00     0.043 A 
HETATM   24  C   UNL     1      39.769 -12.981  -1.526  1.00  0.00     0.116 A 
HETATM   25  F   UNL     1      39.280 -12.333  -2.591  1.00  0.00    -0.206 F 
HETATM   26  C   UNL     1      40.651 -12.332  -0.673  1.00  0.00     0.043 A 
HETATM   27  C   UNL     1      41.158 -13.011   0.437  1.00  0.00     0.013 A 
ENDBRANCH  19  21
BRANCH  19  28
HETATM   28  O   UNL     1      40.862 -16.431   1.962  1.00  0.00    -0.384 OA
HETATM   29  H   UNL     1      39.883 -16.396   1.901  1.00  0.00     0.211 HD
ENDBRANCH  19  28
ENDBRANCH  18  19
ENDBRANCH   1  18
TORSDOF 6
ENDMDL
MODEL 4
REMARK VINA RESULT:      -8.2      3.078      5.245
REMARK  6 active torsions:
REMARK  status: ('A' for Active; 'I' for Inactive)
REMARK    1  A    between atoms: C_2  and  C_4 
REMARK    2  A    between atoms: C_2  and  C_11 
REMARK    3  A    between atoms: C_2  and  O_3 
REMARK    4  A    between atoms: C_11  and  N_12 
REMARK       I    between atoms: N_12  and  C_13 
REMARK    5  A    between atoms: C_13  and  C_14 
REMARK    6  A    between atoms: C_15  and  C_16 
ROOT
HETATM    1  N   UNL     1      42.204 -11.845   3.846  1.00  0.00    -0.354 N 
HETATM    2  C   UNL     1      43.514 -11.688   4.237  1.00  0.00     0.255 C 
HETATM    3  O   UNL     1      44.418 -11.523   3.424  1.00  0.00    -0.268 OA
HETATM    4  H   UNL     1      41.555 -12.209   4.531  1.00  0.00     0.162 HD
ENDROOT
BRANCH   2   5
HETATM    5  C   UNL     1      43.731 -11.743   5.673  1.00  0.00     0.080 A 
HETATM    6  C   UNL     1      43.557 -12.850   6.564  1.00  0.00     0.107 A 
HETATM    7  N   UNL     1      43.956 -12.530   7.809  1.00  0.00    -0.173 NA
HETATM    8  N   UNL     1      44.331 -11.250   7.727  1.00  0.00    -0.288 N 
HETATM    9  H   UNL     1      44.670 -10.796   8.569  1.00  0.00     0.188 HD
HETATM   10  C   UNL     1      44.212 -10.725   6.477  1.00  0.00     0.128 A 
BRANCH   6  11
HETATM   11  C   UNL     1      43.023 -14.179   6.284  1.00  0.00     0.034 A 
HETATM   12  C   UNL     1      41.646 -14.404   6.210  1.00  0.00     0.129 A 
HETATM   13  F   UNL     1      40.777 -13.403   6.418  1.00  0.00    -0.205 F 
HETATM   14  C   UNL     1      41.134 -15.675   5.952  1.00  0.00     0.043 A 
HETATM   15  C   UNL     1      42.005 -16.748   5.775  1.00  0.00     0.003 A 
HETATM   16  C   UNL     1      43.382 -16.546   5.862  1.00  0.00     0.001 A 
HETATM   17  C   UNL     1      43.890 -15.269   6.118  1.00  0.00     0.017 A 
ENDBRANCH   6  11
ENDBRANCH   2   5
BRANCH   1  18
HETATM   18  C   UNL     1      41.797 -11.834   2.447  1.00  0.00     0.165 C 
BRANCH  18  19
HETATM   19  C   UNL     1      40.861 -13.005   2.010  1.00  0.00     0.097 C 
HETATM   20  C   UNL     1      39.633 -13.030   2.934  1.00  0.00     0.053 C 
BRANCH  19  21
HETATM   21  C   UNL     1      41.536 -14.380   2.047  1.00  0.00    -0.023 A 
HETATM   22  C   UNL     1      40.788 -15.552   2.273  1.00  0.00     0.013 A 
HETATM   23  C   UNL     1      41.409 -16.803   2.305  1.00  0.00     0.043 A 
HETATM   24  C   UNL     1      42.778 -16.897   2.102  1.00  0.00     0.116 A 
HETATM   25  F   UNL     1      43.370 -18.098   2.131  1.00  0.00    -0.206 F 
HETATM   26  C   UNL     1      43.541 -15.762   1.864  1.00  0.00     0.043 A 
HETATM   27  C   UNL     1      42.921 -14.511   1.834  1.00  0.00     0.013 A 
ENDBRANCH  19  21
BRANCH  19  28
HETATM   28  O   UNL     1      40.330 -12.744   0.701  1.00  0.00    -0.384 OA
HETATM   29  H   UNL     1      39.371 -12.952   0.718  1.00  0.00     0.211 HD
ENDBRANCH  19  28
ENDBRANCH  18  19
ENDBRANCH   1  18
TORSDOF 6
ENDMDL
MODEL 5
REMARK VINA RESULT:      -8.2      3.962      6.389
REMARK  6 active torsions:
REMARK  status: ('A' for Active; 'I' for Inactive)
REMARK    1  A    between atoms: C_2  and  C_4 
REMARK    2  A    between atoms: C_2  and  C_11 
REMARK    3  A    between atoms: C_2  and  O_3 
REMARK    4  A    between atoms: C_11  and  N_12 
REMARK       I    between atoms: N_12  and  C_13 
REMARK    5  A    between atoms: C_13  and  C_14 
REMARK    6  A    between atoms: C_15  and  C_16 
ROOT
HETATM    1  N   UNL     1      43.567 -15.273   5.800  1.00  0.00    -0.354 N 
HETATM    2  C   UNL     1      42.925 -16.490   5.779  1.00  0.00     0.255 C 
HETATM    3  O   UNL     1      42.107 -16.807   6.638  1.00  0.00    -0.268 OA
HETATM    4  H   UNL     1      44.387 -15.170   5.217  1.00  0.00     0.162 HD
ENDROOT
BRANCH   2   5
HETATM    5  C   UNL     1      43.300 -17.357   4.675  1.00  0.00     0.080 A 
HETATM    6  C   UNL     1      42.961 -17.240   3.289  1.00  0.00     0.107 A 
HETATM    7  N   UNL     1      43.583 -18.188   2.562  1.00  0.00    -0.173 NA
HETATM    8  N   UNL     1      44.260 -18.912   3.458  1.00  0.00    -0.288 N 
HETATM    9  H   UNL     1      44.808 -19.697   3.121  1.00  0.00     0.188 HD
HETATM   10  C   UNL     1      44.124 -18.467   4.736  1.00  0.00     0.128 A 
BRANCH   6  11
HETATM   11  C   UNL     1      42.073 -16.282   2.638  1.00  0.00     0.034 A 
HETATM   12  C   UNL     1      42.573 -15.301   1.778  1.00  0.00     0.129 A 
HETATM   13  F   UNL     1      43.891 -15.203   1.546  1.00  0.00    -0.205 F 
HETATM   14  C   UNL     1      41.727 -14.380   1.163  1.00  0.00     0.043 A 
HETATM   15  C   UNL     1      40.357 -14.423   1.414  1.00  0.00     0.003 A 
HETATM   16  C   UNL     1      39.842 -15.384   2.284  1.00  0.00     0.001 A 
HETATM   17  C   UNL     1      40.695 -16.308   2.896  1.00  0.00     0.017 A 
ENDBRANCH   6  11
ENDBRANCH   2   5
BRANCH   1  18
HETATM   18  C   UNL     1      43.331 -14.280   6.841  1.00  0.00     0.165 C 
BRANCH  18  19
HETATM   19  C   UNL     1      43.016 -12.837   6.335  1.00  0.00     0.097 C 
HETATM   20  C   UNL     1      43.086 -12.824   4.799  1.00  0.00     0.053 C 
BRANCH  19  21
HETATM   21  C   UNL     1      43.969 -11.771   6.883  1.00  0.00    -0.023 A 
HETATM   22  C   UNL     1      43.508 -10.755   7.743  1.00  0.00     0.013 A 
HETATM   23  C   UNL     1      44.383  -9.786   8.241  1.00  0.00     0.043 A 
HETATM   24  C   UNL     1      45.725  -9.827   7.893  1.00  0.00     0.116 A 
HETATM   25  F   UNL     1      46.562  -8.898   8.374  1.00  0.00    -0.206 F 
HETATM   26  C   UNL     1      46.213 -10.822   7.058  1.00  0.00     0.043 A 
HETATM   27  C   UNL     1      45.339 -11.790   6.559  1.00  0.00     0.013 A 
ENDBRANCH  19  21
BRANCH  19  28
HETATM   28  O   UNL     1      41.655 -12.498   6.643  1.00  0.00    -0.384 OA
HETATM   29  H   UNL     1      41.381 -13.028   7.422  1.00  0.00     0.211 HD
ENDBRANCH  19  28
ENDBRANCH  18  19
ENDBRANCH   1  18
TORSDOF 6
ENDMDL
MODEL 6
REMARK VINA RESULT:      -8.1      3.038      5.647
REMARK  6 active torsions:
REMARK  status: ('A' for Active; 'I' for Inactive)
REMARK    1  A    between atoms: C_2  and  C_4 
REMARK    2  A    between atoms: C_2  and  C_11 
REMARK    3  A    between atoms: C_2  and  O_3 
REMARK    4  A    between atoms: C_11  and  N_12 
REMARK       I    between atoms: N_12  and  C_13 
REMARK    5  A    between atoms: C_13  and  C_14 
REMARK    6  A    between atoms: C_15  and  C_16 
ROOT
HETATM    1  N   UNL     1      41.552 -16.035   5.370  1.00  0.00    -0.354 N 
HETATM    2  C   UNL     1      42.858 -16.470   5.353  1.00  0.00     0.255 C 
HETATM    3  O   UNL     1      43.668 -16.123   6.207  1.00  0.00    -0.268 OA
HETATM    4  H   UNL     1      41.010 -16.161   4.525  1.00  0.00     0.162 HD
ENDROOT
BRANCH   2   5
HETATM    5  C   UNL     1      43.190 -17.356   4.250  1.00  0.00     0.080 A 
HETATM    6  C   UNL     1      42.881 -17.209   2.860  1.00  0.00     0.107 A 
HETATM    7  N   UNL     1      43.448 -18.195   2.137  1.00  0.00    -0.173 NA
HETATM    8  N   UNL     1      44.060 -18.968   3.039  1.00  0.00    -0.288 N 
HETATM    9  H   UNL     1      44.558 -19.787   2.706  1.00  0.00     0.188 HD
HETATM   10  C   UNL     1      43.935 -18.519   4.318  1.00  0.00     0.128 A 
BRANCH   6  11
HETATM   11  C   UNL     1      42.071 -16.190   2.201  1.00  0.00     0.034 A 
HETATM   12  C   UNL     1      42.595 -14.929   1.907  1.00  0.00     0.129 A 
HETATM   13  F   UNL     1      43.855 -14.616   2.245  1.00  0.00    -0.205 F 
HETATM   14  C   UNL     1      41.819 -13.951   1.285  1.00  0.00     0.043 A 
HETATM   15  C   UNL     1      40.492 -14.225   0.959  1.00  0.00     0.003 A 
HETATM   16  C   UNL     1      39.947 -15.472   1.261  1.00  0.00     0.001 A 
HETATM   17  C   UNL     1      40.730 -16.450   1.882  1.00  0.00     0.017 A 
ENDBRANCH   6  11
ENDBRANCH   2   5
BRANCH   1  18
HETATM   18  C   UNL     1      41.041 -15.129   6.391  1.00  0.00     0.165 C 
BRANCH  18  19
HETATM   19  C   UNL     1      40.932 -13.630   5.967  1.00  0.00     0.097 C 
HETATM   20  C   UNL     1      40.231 -13.551   4.601  1.00  0.00     0.053 C 
BRANCH  19  21
HETATM   21  C   UNL     1      42.285 -12.919   5.870  1.00  0.00    -0.023 A 
HETATM   22  C   UNL     1      42.682 -12.266   4.687  1.00  0.00     0.013 A 
HETATM   23  C   UNL     1      43.916 -11.617   4.605  1.00  0.00     0.043 A 
HETATM   24  C   UNL     1      44.761 -11.604   5.706  1.00  0.00     0.116 A 
HETATM   25  F   UNL     1      45.943 -10.979   5.625  1.00  0.00    -0.206 F 
HETATM   26  C   UNL     1      44.394 -12.226   6.890  1.00  0.00     0.043 A 
HETATM   27  C   UNL     1      43.161 -12.877   6.971  1.00  0.00     0.013 A 
ENDBRANCH  19  21
BRANCH  19  28
HETATM   28  O   UNL     1      40.061 -12.929   6.868  1.00  0.00    -0.384 OA
HETATM   29  H   UNL     1      39.475 -13.590   7.296  1.00  0.00     0.211 HD
ENDBRANCH  19  28
ENDBRANCH  18  19
ENDBRANCH   1  18
TORSDOF 6
ENDMDL
MODEL 7
REMARK VINA RESULT:      -8.0      1.945      2.563
REMARK  6 active torsions:
REMARK  status: ('A' for Active; 'I' for Inactive)
REMARK    1  A    between atoms: C_2  and  C_4 
REMARK    2  A    between atoms: C_2  and  C_11 
REMARK    3  A    between atoms: C_2  and  O_3 
REMARK    4  A    between atoms: C_11  and  N_12 
REMARK       I    between atoms: N_12  and  C_13 
REMARK    5  A    between atoms: C_13  and  C_14 
REMARK    6  A    between atoms: C_15  and  C_16 
ROOT
HETATM    1  N   UNL     1      44.283 -15.417   5.791  1.00  0.00    -0.354 N 
HETATM    2  C   UNL     1      43.581 -14.466   6.496  1.00  0.00     0.255 C 
HETATM    3  O   UNL     1      43.146 -14.685   7.623  1.00  0.00    -0.268 OA
HETATM    4  H   UNL     1      44.404 -15.264   4.798  1.00  0.00     0.162 HD
ENDROOT
BRANCH   2   5
HETATM    5  C   UNL     1      43.394 -13.205   5.798  1.00  0.00     0.080 A 
HETATM    6  C   UNL     1      42.720 -12.958   4.559  1.00  0.00     0.107 A 
HETATM    7  N   UNL     1      42.678 -11.639   4.293  1.00  0.00    -0.173 NA
HETATM    8  N   UNL     1      43.339 -11.067   5.303  1.00  0.00    -0.288 N 
HETATM    9  H   UNL     1      43.432 -10.057   5.301  1.00  0.00     0.188 HD
HETATM   10  C   UNL     1      43.796 -11.954   6.229  1.00  0.00     0.128 A 
BRANCH   6  11
HETATM   11  C   UNL     1      42.133 -13.914   3.626  1.00  0.00     0.034 A 
HETATM   12  C   UNL     1      40.973 -14.622   3.951  1.00  0.00     0.129 A 
HETATM   13  F   UNL     1      40.382 -14.455   5.144  1.00  0.00    -0.205 F 
HETATM   14  C   UNL     1      40.416 -15.542   3.064  1.00  0.00     0.043 A 
HETATM   15  C   UNL     1      41.027 -15.775   1.834  1.00  0.00     0.003 A 
HETATM   16  C   UNL     1      42.196 -15.091   1.500  1.00  0.00     0.001 A 
HETATM   17  C   UNL     1      42.749 -14.167   2.392  1.00  0.00     0.017 A 
ENDBRANCH   6  11
ENDBRANCH   2   5
BRANCH   1  18
HETATM   18  C   UNL     1      44.554 -16.746   6.323  1.00  0.00     0.165 C 
BRANCH  18  19
HETATM   19  C   UNL     1      43.423 -17.800   6.108  1.00  0.00     0.097 C 
HETATM   20  C   UNL     1      43.449 -18.802   7.275  1.00  0.00     0.053 C 
BRANCH  19  21
HETATM   21  C   UNL     1      43.543 -18.573   4.791  1.00  0.00    -0.023 A 
HETATM   22  C   UNL     1      43.880 -19.941   4.777  1.00  0.00     0.013 A 
HETATM   23  C   UNL     1      43.986 -20.641   3.573  1.00  0.00     0.043 A 
HETATM   24  C   UNL     1      43.749 -19.986   2.373  1.00  0.00     0.116 A 
HETATM   25  F   UNL     1      43.850 -20.660   1.220  1.00  0.00    -0.206 F 
HETATM   26  C   UNL     1      43.403 -18.643   2.353  1.00  0.00     0.043 A 
HETATM   27  C   UNL     1      43.298 -17.942   3.557  1.00  0.00     0.013 A 
ENDBRANCH  19  21
BRANCH  19  28
HETATM   28  O   UNL     1      42.138 -17.164   6.199  1.00  0.00    -0.384 OA
HETATM   29  H   UNL     1      42.161 -16.358   5.640  1.00  0.00     0.211 HD
ENDBRANCH  19  28
ENDBRANCH  18  19
ENDBRANCH   1  18
TORSDOF 6
ENDMDL
MODEL 8
REMARK VINA RESULT:      -8.0      2.336      3.376
REMARK  6 active torsions:
REMARK  status: ('A' for Active; 'I' for Inactive)
REMARK    1  A    between atoms: C_2  and  C_4 
REMARK    2  A    between atoms: C_2  and  C_11 
REMARK    3  A    between atoms: C_2  and  O_3 
REMARK    4  A    between atoms: C_11  and  N_12 
REMARK       I    between atoms: N_12  and  C_13 
REMARK    5  A    between atoms: C_13  and  C_14 
REMARK    6  A    between atoms: C_15  and  C_16 
ROOT
HETATM    1  N   UNL     1      41.248 -12.191   5.009  1.00  0.00    -0.354 N 
HETATM    2  C   UNL     1      39.952 -12.566   4.737  1.00  0.00     0.255 C 
HETATM    3  O   UNL     1      39.151 -12.826   5.630  1.00  0.00    -0.268 OA
HETATM    4  H   UNL     1      41.910 -12.223   4.246  1.00  0.00     0.162 HD
ENDROOT
BRANCH   2   5
HETATM    5  C   UNL     1      39.622 -12.633   3.323  1.00  0.00     0.080 A 
HETATM    6  C   UNL     1      40.100 -13.552   2.335  1.00  0.00     0.107 A 
HETATM    7  N   UNL     1      39.483 -13.349   1.155  1.00  0.00    -0.173 NA
HETATM    8  N   UNL     1      38.671 -12.309   1.371  1.00  0.00    -0.288 N 
HETATM    9  H   UNL     1      38.102 -11.980   0.598  1.00  0.00     0.188 HD
HETATM   10  C   UNL     1      38.717 -11.836   2.646  1.00  0.00     0.128 A 
BRANCH   6  11
HETATM   11  C   UNL     1      41.114 -14.593   2.462  1.00  0.00     0.034 A 
HETATM   12  C   UNL     1      42.476 -14.280   2.454  1.00  0.00     0.129 A 
HETATM   13  F   UNL     1      42.886 -13.011   2.306  1.00  0.00    -0.205 F 
HETATM   14  C   UNL     1      43.447 -15.275   2.566  1.00  0.00     0.043 A 
HETATM   15  C   UNL     1      43.060 -16.609   2.678  1.00  0.00     0.003 A 
HETATM   16  C   UNL     1      41.706 -16.942   2.670  1.00  0.00     0.001 A 
HETATM   17  C   UNL     1      40.737 -15.940   2.560  1.00  0.00     0.017 A 
ENDBRANCH   6  11
ENDBRANCH   2   5
BRANCH   1  18
HETATM   18  C   UNL     1      41.765 -12.085   6.368  1.00  0.00     0.165 C 
BRANCH  18  19
HETATM   19  C   UNL     1      43.141 -12.777   6.620  1.00  0.00     0.097 C 
HETATM   20  C   UNL     1      44.163 -12.233   5.608  1.00  0.00     0.053 C 
BRANCH  19  21
HETATM   21  C   UNL     1      43.093 -14.303   6.502  1.00  0.00    -0.023 A 
HETATM   22  C   UNL     1      41.872 -15.001   6.574  1.00  0.00     0.013 A 
HETATM   23  C   UNL     1      41.834 -16.394   6.463  1.00  0.00     0.043 A 
HETATM   24  C   UNL     1      43.013 -17.101   6.271  1.00  0.00     0.116 A 
HETATM   25  F   UNL     1      42.973 -18.435   6.164  1.00  0.00    -0.206 F 
HETATM   26  C   UNL     1      44.230 -16.441   6.183  1.00  0.00     0.043 A 
HETATM   27  C   UNL     1      44.269 -15.050   6.295  1.00  0.00     0.013 A 
ENDBRANCH  19  21
BRANCH  19  28
HETATM   28  O   UNL     1      43.655 -12.391   7.904  1.00  0.00    -0.384 OA
HETATM   29  H   UNL     1      44.387 -13.003   8.133  1.00  0.00     0.211 HD
ENDBRANCH  19  28
ENDBRANCH  18  19
ENDBRANCH   1  18
TORSDOF 6
ENDMDL
MODEL 9
REMARK VINA RESULT:      -7.9      3.301      4.527
REMARK  6 active torsions:
REMARK  status: ('A' for Active; 'I' for Inactive)
REMARK    1  A    between atoms: C_2  and  C_4 
REMARK    2  A    between atoms: C_2  and  C_11 
REMARK    3  A    between atoms: C_2  and  O_3 
REMARK    4  A    between atoms: C_11  and  N_12 
REMARK       I    between atoms: N_12  and  C_13 
REMARK    5  A    between atoms: C_13  and  C_14 
REMARK    6  A    between atoms: C_15  and  C_16 
ROOT
HETATM    1  N   UNL     1      42.624 -14.033   4.587  1.00  0.00    -0.354 N 
HETATM    2  C   UNL     1      41.824 -13.547   5.596  1.00  0.00     0.255 C 
HETATM    3  O   UNL     1      41.451 -14.256   6.526  1.00  0.00    -0.268 OA
HETATM    4  H   UNL     1      42.697 -13.478   3.745  1.00  0.00     0.162 HD
ENDROOT
BRANCH   2   5
HETATM    5  C   UNL     1      41.460 -12.146   5.463  1.00  0.00     0.080 A 
HETATM    6  C   UNL     1      42.204 -10.986   5.849  1.00  0.00     0.107 A 
HETATM    7  N   UNL     1      41.568  -9.862   5.469  1.00  0.00    -0.173 NA
HETATM    8  N   UNL     1      40.437 -10.287   4.900  1.00  0.00    -0.288 N 
HETATM    9  H   UNL     1      39.793  -9.591   4.538  1.00  0.00     0.188 HD
HETATM   10  C   UNL     1      40.315 -11.642   4.874  1.00  0.00     0.128 A 
BRANCH   6  11
HETATM   11  C   UNL     1      43.473 -10.905   6.565  1.00  0.00     0.034 A 
HETATM   12  C   UNL     1      44.682 -11.201   5.929  1.00  0.00     0.129 A 
HETATM   13  F   UNL     1      44.702 -11.589   4.645  1.00  0.00    -0.205 F 
HETATM   14  C   UNL     1      45.894 -11.132   6.614  1.00  0.00     0.043 A 
HETATM   15  C   UNL     1      45.909 -10.776   7.961  1.00  0.00     0.003 A 
HETATM   16  C   UNL     1      44.710 -10.495   8.617  1.00  0.00     0.001 A 
HETATM   17  C   UNL     1      43.497 -10.562   7.924  1.00  0.00     0.017 A 
ENDBRANCH   6  11
ENDBRANCH   2   5
BRANCH   1  18
HETATM   18  C   UNL     1      43.076 -15.418   4.543  1.00  0.00     0.165 C 
BRANCH  18  19
HETATM   19  C   UNL     1      42.827 -16.165   3.195  1.00  0.00     0.097 C 
HETATM   20  C   UNL     1      41.339 -16.044   2.828  1.00  0.00     0.053 C 
BRANCH  19  21
HETATM   21  C   UNL     1      43.208 -17.648   3.233  1.00  0.00    -0.023 A 
HETATM   22  C   UNL     1      43.830 -18.211   4.364  1.00  0.00     0.013 A 
HETATM   23  C   UNL     1      44.173 -19.565   4.394  1.00  0.00     0.043 A 
HETATM   24  C   UNL     1      43.890 -20.371   3.300  1.00  0.00     0.116 A 
HETATM   25  F   UNL     1      44.218 -21.669   3.333  1.00  0.00    -0.206 F 
HETATM   26  C   UNL     1      43.266 -19.849   2.176  1.00  0.00     0.043 A 
HETATM   27  C   UNL     1      42.925 -18.495   2.146  1.00  0.00     0.013 A 
ENDBRANCH  19  21
BRANCH  19  28
HETATM   28  O   UNL     1      43.523 -15.497   2.130  1.00  0.00    -0.384 OA
HETATM   29  H   UNL     1      43.182 -15.850   1.280  1.00  0.00     0.211 HD
ENDBRANCH  19  28
ENDBRANCH  18  19
ENDBRANCH   1  18
TORSDOF 6
ENDMDL
MODEL 10
REMARK VINA RESULT:      -7.8      4.691      6.271
REMARK  6 active torsions:
REMARK  status: ('A' for Active; 'I' for Inactive)
REMARK    1  A    between atoms: C_2  and  C_4 
REMARK    2  A    between atoms: C_2  and  C_11 
REMARK    3  A    between atoms: C_2  and  O_3 
REMARK    4  A    between atoms: C_11  and  N_12 
REMARK       I    between atoms: N_12  and  C_13 
REMARK    5  A    between atoms: C_13  and  C_14 
REMARK    6  A    between atoms: C_15  and  C_16 
ROOT
HETATM    1  N   UNL     1      43.192 -13.284   6.721  1.00  0.00    -0.354 N 
HETATM    2  C   UNL     1      43.200 -11.909   6.668  1.00  0.00     0.255 C 
HETATM    3  O   UNL     1      42.218 -11.268   6.306  1.00  0.00    -0.268 OA
HETATM    4  H   UNL     1      44.086 -13.751   6.794  1.00  0.00     0.162 HD
ENDROOT
BRANCH   2   5
HETATM    5  C   UNL     1      44.454 -11.292   7.065  1.00  0.00     0.080 A 
HETATM    6  C   UNL     1      44.753 -10.554   8.254  1.00  0.00     0.107 A 
HETATM    7  N   UNL     1      46.058 -10.226   8.300  1.00  0.00    -0.173 NA
HETATM    8  N   UNL     1      46.567 -10.701   7.158  1.00  0.00    -0.288 N 
HETATM    9  H   UNL     1      47.556 -10.559   6.981  1.00  0.00     0.188 HD
HETATM   10  C   UNL     1      45.654 -11.341   6.378  1.00  0.00     0.128 A 
BRANCH   6  11
HETATM   11  C   UNL     1      43.857 -10.143   9.330  1.00  0.00     0.034 A 
HETATM   12  C   UNL     1      42.868  -9.178   9.118  1.00  0.00     0.129 A 
HETATM   13  F   UNL     1      42.733  -8.589   7.921  1.00  0.00    -0.205 F 
HETATM   14  C   UNL     1      42.017  -8.779  10.148  1.00  0.00     0.043 A 
HETATM   15  C   UNL     1      42.155  -9.337  11.416  1.00  0.00     0.003 A 
HETATM   16  C   UNL     1      43.148 -10.288  11.651  1.00  0.00     0.001 A 
HETATM   17  C   UNL     1      43.998 -10.688  10.614  1.00  0.00     0.017 A 
ENDBRANCH   6  11
ENDBRANCH   2   5
BRANCH   1  18
HETATM   18  C   UNL     1      42.028 -14.077   6.345  1.00  0.00     0.165 C 
BRANCH  18  19
HETATM   19  C   UNL     1      42.106 -15.595   6.699  1.00  0.00     0.097 C 
HETATM   20  C   UNL     1      42.992 -15.770   7.944  1.00  0.00     0.053 C 
BRANCH  19  21
HETATM   21  C   UNL     1      42.666 -16.464   5.568  1.00  0.00    -0.023 A 
HETATM   22  C   UNL     1      42.158 -16.369   4.258  1.00  0.00     0.013 A 
HETATM   23  C   UNL     1      42.674 -17.162   3.230  1.00  0.00     0.043 A 
HETATM   24  C   UNL     1      43.707 -18.049   3.499  1.00  0.00     0.116 A 
HETATM   25  F   UNL     1      44.201 -18.807   2.510  1.00  0.00    -0.206 F 
HETATM   26  C   UNL     1      44.238 -18.157   4.776  1.00  0.00     0.043 A 
HETATM   27  C   UNL     1      43.721 -17.365   5.804  1.00  0.00     0.013 A 
ENDBRANCH  19  21
BRANCH  19  28
HETATM   28  O   UNL     1      40.811 -16.070   7.100  1.00  0.00    -0.384 OA
HETATM   29  H   UNL     1      40.640 -16.915   6.630  1.00  0.00     0.211 HD
ENDBRANCH  19  28
ENDBRANCH  18  19
ENDBRANCH   1  18
TORSDOF 6
ENDMDL
