MODEL 1
REMARK VINA RESULT:      -9.3      0.000      0.000
REMARK  6 active torsions:
REMARK  status: ('A' for Active; 'I' for Inactive)
REMARK    1  A    between atoms: C_2  and  C_3 
REMARK    2  A    between atoms: C_2  and  C_9 
REMARK    3  A    between atoms: C_9  and  C_10 
REMARK    4  A    between atoms: C_10  and  C_11 
REMARK       I    between atoms: C_11  and  N_12 
REMARK    5  A    between atoms: N_12  and  C_13 
REMARK    6  A    between atoms: C_20  and  C_21 
REMARK       I    between atoms: C_21  and  N_22 
ROOT
HETATM    1  C   UNL     1      43.403 -11.985   6.797  1.00  0.00     0.035 A 
HETATM    2  C   UNL     1      43.211 -10.704   7.334  1.00  0.00     0.046 A 
HETATM    3  C   UNL     1      44.330  -9.901   7.626  1.00  0.00     0.030 A 
HETATM    4  C   UNL     1      45.595 -10.371   7.302  1.00  0.00     0.063 A 
HETATM    5  N   UNL     1      46.458  -9.386   7.695  1.00  0.00    -0.277 N 
HETATM    6  H   UNL     1      47.467  -9.382   7.606  1.00  0.00     0.189 HD
HETATM    7  N   UNL     1      45.866  -8.331   8.281  1.00  0.00    -0.168 NA
HETATM    8  C   UNL     1      44.550  -8.635   8.243  1.00  0.00     0.156 A 
HETATM    9  C   UNL     1      45.813 -11.611   6.697  1.00  0.00     0.034 A 
HETATM   10  C   UNL     1      44.688 -12.413   6.456  1.00  0.00     0.032 A 
ENDROOT
BRANCH   1  11
HETATM   11  N   UNL     1      42.255 -12.766   6.611  1.00  0.00    -0.327 N 
HETATM   12  C   UNL     1      41.847 -13.555   5.576  1.00  0.00     0.222 C 
HETATM   13  O   UNL     1      40.700 -14.012   5.619  1.00  0.00    -0.273 OA
HETATM   14  H   UNL     1      41.632 -12.857   7.407  1.00  0.00     0.169 HD
BRANCH  12  15
HETATM   15  C   UNL     1      42.775 -13.943   4.439  1.00  0.00     0.104 C 
BRANCH  15  16
HETATM   16  C   UNL     1      43.180 -15.423   4.346  1.00  0.00     0.023 C 
BRANCH  16  17
HETATM   17  C   UNL     1      42.824 -16.203   3.039  1.00  0.00    -0.020 C 
HETATM   18  C   UNL     1      43.420 -15.488   1.804  1.00  0.00     0.020 C 
HETATM   19  C   UNL     1      41.283 -16.115   2.853  1.00  0.00     0.020 C 
BRANCH  17  20
HETATM   20  C   UNL     1      43.216 -17.686   3.151  1.00  0.00    -0.050 A 
HETATM   21  C   UNL     1      42.972 -18.612   2.124  1.00  0.00     0.008 A 
HETATM   22  C   UNL     1      43.324 -19.959   2.259  1.00  0.00     0.001 A 
HETATM   23  C   UNL     1      43.931 -20.412   3.425  1.00  0.00     0.000 A 
HETATM   24  C   UNL     1      44.194 -19.516   4.455  1.00  0.00     0.001 A 
HETATM   25  C   UNL     1      43.842 -18.170   4.318  1.00  0.00     0.008 A 
ENDBRANCH  17  20
ENDBRANCH  16  17
ENDBRANCH  15  16
ENDBRANCH  12  15
ENDBRANCH   1  11
BRANCH   8  26
HETATM   26  C   UNL     1      43.534  -7.740   8.815  1.00  0.00     0.270 C 
HETATM   27  N   UNL     1      43.021  -8.165  10.009  1.00  0.00    -0.365 N 
HETATM   28  H   UNL     1      43.348  -9.043  10.394  1.00  0.00     0.159 HD
HETATM   29  H   UNL     1      42.290  -7.634  10.457  1.00  0.00     0.159 HD
HETATM   30  O   UNL     1      43.147  -6.703   8.285  1.00  0.00    -0.266 OA
ENDBRANCH   8  26
TORSDOF 6
ENDMDL
MODEL 2
REMARK VINA RESULT:      -9.1      4.867      7.393
REMARK  6 active torsions:
REMARK  status: ('A' for Active; 'I' for Inactive)
REMARK    1  A    between atoms: C_2  and  C_3 
REMARK    2  A    between atoms: C_2  and  C_9 
REMARK    3  A    between atoms: C_9  and  C_10 
REMARK    4  A    between atoms: C_10  and  C_11 
REMARK       I    between atoms: C_11  and  N_12 
REMARK    5  A    between atoms: N_12  and  C_13 
REMARK    6  A    between atoms: C_20  and  C_21 
REMARK       I    between atoms: C_21  and  N_22 
ROOT
HETATM    1  C   UNL     1      41.153 -11.488   1.836  1.00  0.00     0.035 A 
HETATM    2  C   UNL     1      41.246 -11.440   0.438  1.00  0.00     0.046 A 
HETATM    3  C   UNL     1      40.157 -11.874  -0.343  1.00  0.00     0.030 A 
HETATM    4  C   UNL     1      38.989 -12.266   0.296  1.00  0.00     0.063 A 
HETATM    5  N   UNL     1      38.131 -12.621  -0.707  1.00  0.00    -0.277 N 
HETATM    6  H   UNL     1      37.178 -12.952  -0.612  1.00  0.00     0.189 HD
HETATM    7  N   UNL     1      38.653 -12.530  -1.943  1.00  0.00    -0.168 NA
HETATM    8  C   UNL     1      39.905 -12.067  -1.732  1.00  0.00     0.156 A 
HETATM    9  C   UNL     1      38.840 -12.251   1.685  1.00  0.00     0.034 A 
HETATM   10  C   UNL     1      39.952 -11.858   2.444  1.00  0.00     0.032 A 
ENDROOT
BRANCH   1  11
HETATM   11  N   UNL     1      42.301 -11.124   2.554  1.00  0.00    -0.327 N 
HETATM   12  C   UNL     1      43.297 -11.866   3.116  1.00  0.00     0.222 C 
HETATM   13  O   UNL     1      44.115 -11.280   3.833  1.00  0.00    -0.273 OA
HETATM   14  H   UNL     1      42.508 -10.132   2.608  1.00  0.00     0.169 HD
BRANCH  12  15
HETATM   15  C   UNL     1      43.470 -13.345   2.824  1.00  0.00     0.104 C 
BRANCH  15  16
HETATM   16  C   UNL     1      42.574 -14.319   3.606  1.00  0.00     0.023 C 
BRANCH  16  17
HETATM   17  C   UNL     1      41.978 -15.545   2.843  1.00  0.00    -0.020 C 
HETATM   18  C   UNL     1      41.841 -15.230   1.336  1.00  0.00     0.020 C 
HETATM   19  C   UNL     1      40.520 -15.741   3.349  1.00  0.00     0.020 C 
BRANCH  17  20
HETATM   20  C   UNL     1      42.772 -16.828   3.143  1.00  0.00    -0.050 A 
HETATM   21  C   UNL     1      42.771 -17.937   2.281  1.00  0.00     0.008 A 
HETATM   22  C   UNL     1      43.490 -19.097   2.587  1.00  0.00     0.001 A 
HETATM   23  C   UNL     1      44.229 -19.176   3.762  1.00  0.00     0.000 A 
HETATM   24  C   UNL     1      44.255 -18.090   4.630  1.00  0.00     0.001 A 
HETATM   25  C   UNL     1      43.537 -16.931   4.323  1.00  0.00     0.008 A 
ENDBRANCH  17  20
ENDBRANCH  16  17
ENDBRANCH  15  16
ENDBRANCH  12  15
ENDBRANCH   1  11
BRANCH   8  26
HETATM   26  C   UNL     1      40.843 -11.846  -2.842  1.00  0.00     0.270 C 
HETATM   27  N   UNL     1      41.627 -12.927  -3.138  1.00  0.00    -0.365 N 
HETATM   28  H   UNL     1      41.526 -13.767  -2.580  1.00  0.00     0.159 HD
HETATM   29  H   UNL     1      42.327 -12.856  -3.859  1.00  0.00     0.159 HD
HETATM   30  O   UNL     1      40.950 -10.791  -3.459  1.00  0.00    -0.266 OA
ENDBRANCH   8  26
TORSDOF 6
ENDMDL
MODEL 3
REMARK VINA RESULT:      -8.9      4.914      6.159
REMARK  6 active torsions:
REMARK  status: ('A' for Active; 'I' for Inactive)
REMARK    1  A    between atoms: C_2  and  C_3 
REMARK    2  A    between atoms: C_2  and  C_9 
REMARK    3  A    between atoms: C_9  and  C_10 
REMARK    4  A    between atoms: C_10  and  C_11 
REMARK       I    between atoms: C_11  and  N_12 
REMARK    5  A    between atoms: N_12  and  C_13 
REMARK    6  A    between atoms: C_20  and  C_21 
REMARK       I    between atoms: C_21  and  N_22 
ROOT
HETATM    1  C   UNL     1      40.124 -14.261   3.360  1.00  0.00     0.035 A 
HETATM    2  C   UNL     1      40.272 -13.024   2.717  1.00  0.00     0.046 A 
HETATM    3  C   UNL     1      40.505 -12.989   1.329  1.00  0.00     0.030 A 
HETATM    4  C   UNL     1      40.503 -14.182   0.619  1.00  0.00     0.063 A 
HETATM    5  N   UNL     1      40.747 -13.829  -0.679  1.00  0.00    -0.277 N 
HETATM    6  H   UNL     1      40.808 -14.445  -1.482  1.00  0.00     0.189 HD
HETATM    7  N   UNL     1      40.943 -12.513  -0.870  1.00  0.00    -0.168 NA
HETATM    8  C   UNL     1      40.794 -11.981   0.363  1.00  0.00     0.156 A 
HETATM    9  C   UNL     1      40.282 -15.424   1.220  1.00  0.00     0.034 A 
HETATM   10  C   UNL     1      40.098 -15.438   2.610  1.00  0.00     0.032 A 
ENDROOT
BRANCH   1  11
HETATM   11  N   UNL     1      39.982 -14.231   4.754  1.00  0.00    -0.327 N 
HETATM   12  C   UNL     1      40.195 -15.178   5.712  1.00  0.00     0.222 C 
HETATM   13  O   UNL     1      39.836 -14.918   6.865  1.00  0.00    -0.273 OA
HETATM   14  H   UNL     1      39.770 -13.330   5.170  1.00  0.00     0.169 HD
BRANCH  12  15
HETATM   15  C   UNL     1      40.921 -16.478   5.420  1.00  0.00     0.104 C 
BRANCH  15  16
HETATM   16  C   UNL     1      42.294 -16.673   6.083  1.00  0.00     0.023 C 
BRANCH  16  17
HETATM   17  C   UNL     1      43.557 -16.705   5.164  1.00  0.00    -0.020 C 
HETATM   18  C   UNL     1      44.840 -16.484   5.999  1.00  0.00     0.020 C 
HETATM   19  C   UNL     1      43.473 -15.473   4.219  1.00  0.00     0.020 C 
BRANCH  17  20
HETATM   20  C   UNL     1      43.586 -17.979   4.301  1.00  0.00    -0.050 A 
HETATM   21  C   UNL     1      43.232 -17.979   2.942  1.00  0.00     0.008 A 
HETATM   22  C   UNL     1      43.251 -19.155   2.185  1.00  0.00     0.001 A 
HETATM   23  C   UNL     1      43.628 -20.359   2.769  1.00  0.00     0.000 A 
HETATM   24  C   UNL     1      43.992 -20.387   4.110  1.00  0.00     0.001 A 
HETATM   25  C   UNL     1      43.973 -19.211   4.865  1.00  0.00     0.008 A 
ENDBRANCH  17  20
ENDBRANCH  16  17
ENDBRANCH  15  16
ENDBRANCH  12  15
ENDBRANCH   1  11
BRANCH   8  26
HETATM   26  C   UNL     1      40.957 -10.541   0.608  1.00  0.00     0.270 C 
HETATM   27  N   UNL     1      41.993 -10.228   1.443  1.00  0.00    -0.365 N 
HETATM   28  H   UNL     1      42.544 -10.981   1.838  1.00  0.00     0.159 HD
HETATM   29  H   UNL     1      42.158  -9.267   1.699  1.00  0.00     0.159 HD
HETATM   30  O   UNL     1      40.234  -9.672   0.132  1.00  0.00    -0.266 OA
ENDBRANCH   8  26
TORSDOF 6
ENDMDL
MODEL 4
REMARK VINA RESULT:      -8.7      4.614      7.745
REMARK  6 active torsions:
REMARK  status: ('A' for Active; 'I' for Inactive)
REMARK    1  A    between atoms: C_2  and  C_3 
REMARK    2  A    between atoms: C_2  and  C_9 
REMARK    3  A    between atoms: C_9  and  C_10 
REMARK    4  A    between atoms: C_10  and  C_11 
REMARK       I    between atoms: C_11  and  N_12 
REMARK    5  A    between atoms: N_12  and  C_13 
REMARK    6  A    between atoms: C_20  and  C_21 
REMARK       I    between atoms: C_21  and  N_22 
ROOT
HETATM    1  C   UNL     1      41.476 -13.349   1.514  1.00  0.00     0.035 A 
HETATM    2  C   UNL     1      41.113 -12.813   0.271  1.00  0.00     0.046 A 
HETATM    3  C   UNL     1      40.288 -13.561  -0.591  1.00  0.00     0.030 A 
HETATM    4  C   UNL     1      39.792 -14.781  -0.151  1.00  0.00     0.063 A 
HETATM    5  N   UNL     1      39.036 -15.256  -1.186  1.00  0.00    -0.277 N 
HETATM    6  H   UNL     1      38.512 -16.124  -1.217  1.00  0.00     0.189 HD
HETATM    7  N   UNL     1      39.027 -14.469  -2.276  1.00  0.00    -0.168 NA
HETATM    8  C   UNL     1      39.795 -13.416  -1.921  1.00  0.00     0.156 A 
HETATM    9  C   UNL     1      40.074 -15.306   1.112  1.00  0.00     0.034 A 
HETATM   10  C   UNL     1      40.934 -14.564   1.935  1.00  0.00     0.032 A 
ENDROOT
BRANCH   1  11
HETATM   11  N   UNL     1      42.369 -12.593   2.287  1.00  0.00    -0.327 N 
HETATM   12  C   UNL     1      42.585 -12.533   3.631  1.00  0.00     0.222 C 
HETATM   13  O   UNL     1      43.341 -11.651   4.053  1.00  0.00    -0.273 OA
HETATM   14  H   UNL     1      43.057 -12.045   1.780  1.00  0.00     0.169 HD
BRANCH  12  15
HETATM   15  C   UNL     1      42.000 -13.552   4.592  1.00  0.00     0.104 C 
BRANCH  15  16
HETATM   16  C   UNL     1      42.939 -14.665   5.083  1.00  0.00     0.023 C 
BRANCH  16  17
HETATM   17  C   UNL     1      42.319 -16.063   5.403  1.00  0.00    -0.020 C 
HETATM   18  C   UNL     1      40.775 -15.992   5.361  1.00  0.00     0.020 C 
HETATM   19  C   UNL     1      42.668 -16.397   6.881  1.00  0.00     0.020 C 
BRANCH  17  20
HETATM   20  C   UNL     1      42.918 -17.158   4.503  1.00  0.00    -0.050 A 
HETATM   21  C   UNL     1      42.586 -17.285   3.144  1.00  0.00     0.008 A 
HETATM   22  C   UNL     1      43.134 -18.300   2.353  1.00  0.00     0.001 A 
HETATM   23  C   UNL     1      44.029 -19.212   2.902  1.00  0.00     0.000 A 
HETATM   24  C   UNL     1      44.383 -19.105   4.242  1.00  0.00     0.001 A 
HETATM   25  C   UNL     1      43.835 -18.089   5.031  1.00  0.00     0.008 A 
ENDBRANCH  17  20
ENDBRANCH  16  17
ENDBRANCH  15  16
ENDBRANCH  12  15
ENDBRANCH   1  11
BRANCH   8  26
HETATM   26  C   UNL     1      40.072 -12.313  -2.852  1.00  0.00     0.270 C 
HETATM   27  N   UNL     1      41.351 -12.296  -3.337  1.00  0.00    -0.365 N 
HETATM   28  H   UNL     1      42.001 -13.004  -3.018  1.00  0.00     0.159 HD
HETATM   29  H   UNL     1      41.643 -11.553  -3.953  1.00  0.00     0.159 HD
HETATM   30  O   UNL     1      39.254 -11.458  -3.175  1.00  0.00    -0.266 OA
ENDBRANCH   8  26
TORSDOF 6
ENDMDL
MODEL 5
REMARK VINA RESULT:      -8.5      2.734      4.334
REMARK  6 active torsions:
REMARK  status: ('A' for Active; 'I' for Inactive)
REMARK    1  A    between atoms: C_2  and  C_3 
REMARK    2  A    between atoms: C_2  and  C_9 
REMARK    3  A    between atoms: C_9  and  C_10 
REMARK    4  A    between atoms: C_10  and  C_11 
REMARK       I    between atoms: C_11  and  N_12 
REMARK    5  A    between atoms: N_12  and  C_13 
REMARK    6  A    between atoms: C_20  and  C_21 
REMARK       I    between atoms: C_21  and  N_22 
ROOT
HETATM    1  C   UNL     1      40.348 -12.697   3.813  1.00  0.00     0.035 A 
HETATM    2  C   UNL     1      41.710 -12.451   4.040  1.00  0.00     0.046 A 
HETATM    3  C   UNL     1      42.105 -11.779   5.213  1.00  0.00     0.030 A 
HETATM    4  C   UNL     1      41.139 -11.447   6.152  1.00  0.00     0.063 A 
HETATM    5  N   UNL     1      41.817 -10.821   7.161  1.00  0.00    -0.277 N 
HETATM    6  H   UNL     1      41.432 -10.448   8.021  1.00  0.00     0.189 HD
HETATM    7  N   UNL     1      43.137 -10.685   6.943  1.00  0.00    -0.168 NA
HETATM    8  C   UNL     1      43.329 -11.276   5.742  1.00  0.00     0.156 A 
HETATM    9  C   UNL     1      39.784 -11.747   5.989  1.00  0.00     0.034 A 
HETATM   10  C   UNL     1      39.408 -12.376   4.793  1.00  0.00     0.032 A 
ENDROOT
BRANCH   1  11
HETATM   11  N   UNL     1      40.014 -13.291   2.588  1.00  0.00    -0.327 N 
HETATM   12  C   UNL     1      40.106 -14.576   2.142  1.00  0.00     0.222 C 
HETATM   13  O   UNL     1      39.877 -14.787   0.947  1.00  0.00    -0.273 OA
HETATM   14  H   UNL     1      39.528 -12.705   1.917  1.00  0.00     0.169 HD
BRANCH  12  15
HETATM   15  C   UNL     1      40.394 -15.738   3.075  1.00  0.00     0.104 C 
BRANCH  15  16
HETATM   16  C   UNL     1      41.289 -16.863   2.530  1.00  0.00     0.023 C 
BRANCH  16  17
HETATM   17  C   UNL     1      42.823 -16.785   2.815  1.00  0.00    -0.020 C 
HETATM   18  C   UNL     1      43.490 -15.723   1.910  1.00  0.00     0.020 C 
HETATM   19  C   UNL     1      43.445 -18.141   2.372  1.00  0.00     0.020 C 
BRANCH  17  20
HETATM   20  C   UNL     1      43.102 -16.591   4.316  1.00  0.00    -0.050 A 
HETATM   21  C   UNL     1      43.141 -17.662   5.222  1.00  0.00     0.008 A 
HETATM   22  C   UNL     1      43.380 -17.455   6.585  1.00  0.00     0.001 A 
HETATM   23  C   UNL     1      43.588 -16.169   7.073  1.00  0.00     0.000 A 
HETATM   24  C   UNL     1      43.565 -15.090   6.197  1.00  0.00     0.001 A 
HETATM   25  C   UNL     1      43.326 -15.300   4.836  1.00  0.00     0.008 A 
ENDBRANCH  17  20
ENDBRANCH  16  17
ENDBRANCH  15  16
ENDBRANCH  12  15
ENDBRANCH   1  11
BRANCH   8  26
HETATM   26  C   UNL     1      44.654 -11.324   5.109  1.00  0.00     0.270 C 
HETATM   27  N   UNL     1      45.699 -11.243   5.988  1.00  0.00    -0.365 N 
HETATM   28  H   UNL     1      45.497 -11.139   6.976  1.00  0.00     0.159 HD
HETATM   29  H   UNL     1      46.645 -11.229   5.641  1.00  0.00     0.159 HD
HETATM   30  O   UNL     1      44.841 -11.412   3.900  1.00  0.00    -0.266 OA
ENDBRANCH   8  26
TORSDOF 6
ENDMDL
MODEL 6
REMARK VINA RESULT:      -8.5      1.934      2.659
REMARK  6 active torsions:
REMARK  status: ('A' for Active; 'I' for Inactive)
REMARK    1  A    between atoms: C_2  and  C_3 
REMARK    2  A    between atoms: C_2  and  C_9 
REMARK    3  A    between atoms: C_9  and  C_10 
REMARK    4  A    between atoms: C_10  and  C_11 
REMARK       I    between atoms: C_11  and  N_12 
REMARK    5  A    between atoms: N_12  and  C_13 
REMARK    6  A    between atoms: C_20  and  C_21 
REMARK       I    between atoms: C_21  and  N_22 
ROOT
HETATM    1  C   UNL     1      44.032 -10.916   6.284  1.00  0.00     0.035 A 
HETATM    2  C   UNL     1      43.229 -10.366   7.293  1.00  0.00     0.046 A 
HETATM    3  C   UNL     1      43.789 -10.104   8.558  1.00  0.00     0.030 A 
HETATM    4  C   UNL     1      45.146 -10.326   8.748  1.00  0.00     0.063 A 
HETATM    5  N   UNL     1      45.389  -9.981  10.049  1.00  0.00    -0.277 N 
HETATM    6  H   UNL     1      46.278 -10.008  10.536  1.00  0.00     0.189 HD
HETATM    7  N   UNL     1      44.300  -9.589  10.733  1.00  0.00    -0.168 NA
HETATM    8  C   UNL     1      43.304  -9.658   9.822  1.00  0.00     0.156 A 
HETATM    9  C   UNL     1      45.988 -10.801   7.740  1.00  0.00     0.034 A 
HETATM   10  C   UNL     1      45.399 -11.098   6.502  1.00  0.00     0.032 A 
ENDROOT
BRANCH   1  11
HETATM   11  N   UNL     1      43.394 -11.234   5.078  1.00  0.00    -0.327 N 
HETATM   12  C   UNL     1      43.077 -12.429   4.501  1.00  0.00     0.222 C 
HETATM   13  O   UNL     1      42.647 -12.412   3.343  1.00  0.00    -0.273 OA
HETATM   14  H   UNL     1      43.002 -10.459   4.553  1.00  0.00     0.169 HD
BRANCH  12  15
HETATM   15  C   UNL     1      43.159 -13.741   5.259  1.00  0.00     0.104 C 
BRANCH  15  16
HETATM   16  C   UNL     1      41.869 -14.240   5.929  1.00  0.00     0.023 C 
BRANCH  16  17
HETATM   17  C   UNL     1      41.640 -15.783   6.027  1.00  0.00    -0.020 C 
HETATM   18  C   UNL     1      40.174 -16.089   6.410  1.00  0.00     0.020 C 
HETATM   19  C   UNL     1      42.488 -16.300   7.224  1.00  0.00     0.020 C 
BRANCH  17  20
HETATM   20  C   UNL     1      42.114 -16.499   4.750  1.00  0.00    -0.050 A 
HETATM   21  C   UNL     1      41.463 -16.350   3.515  1.00  0.00     0.008 A 
HETATM   22  C   UNL     1      41.906 -17.026   2.373  1.00  0.00     0.001 A 
HETATM   23  C   UNL     1      43.013 -17.865   2.439  1.00  0.00     0.000 A 
HETATM   24  C   UNL     1      43.683 -18.024   3.647  1.00  0.00     0.001 A 
HETATM   25  C   UNL     1      43.239 -17.347   4.787  1.00  0.00     0.008 A 
ENDBRANCH  17  20
ENDBRANCH  16  17
ENDBRANCH  15  16
ENDBRANCH  12  15
ENDBRANCH   1  11
BRANCH   8  26
HETATM   26  C   UNL     1      41.915  -9.331  10.172  1.00  0.00     0.270 C 
HETATM   27  N   UNL     1      41.391 -10.105  11.170  1.00  0.00    -0.365 N 
HETATM   28  H   UNL     1      41.966 -10.835  11.572  1.00  0.00     0.159 HD
HETATM   29  H   UNL     1      40.431  -9.978  11.451  1.00  0.00     0.159 HD
HETATM   30  O   UNL     1      41.249  -8.457   9.624  1.00  0.00    -0.266 OA
ENDBRANCH   8  26
TORSDOF 6
ENDMDL
MODEL 7
REMARK VINA RESULT:      -8.4      4.635      7.255
REMARK  6 active torsions:
REMARK  status: ('A' for Active; 'I' for Inactive)
REMARK    1  A    between atoms: C_2  and  C_3 
REMARK    2  A    between atoms: C_2  and  C_9 
REMARK    3  A    between atoms: C_9  and  C_10 
REMARK    4  A    between atoms: C_10  and  C_11 
REMARK       I    between atoms: C_11  and  N_12 
REMARK    5  A    between atoms: N_12  and  C_13 
REMARK    6  A    between atoms: C_20  and  C_21 
REMARK       I    between atoms: C_21  and  N_22 
ROOT
HETATM    1  C   UNL     1      40.192 -11.791   2.124  1.00  0.00     0.035 A 
HETATM    2  C   UNL     1      39.688 -12.595   1.093  1.00  0.00     0.046 A 
HETATM    3  C   UNL     1      40.042 -12.314  -0.240  1.00  0.00     0.030 A 
HETATM    4  C   UNL     1      40.946 -11.292  -0.492  1.00  0.00     0.063 A 
HETATM    5  N   UNL     1      41.091 -11.264  -1.851  1.00  0.00    -0.277 N 
HETATM    6  H   UNL     1      41.683 -10.646  -2.394  1.00  0.00     0.189 HD
HETATM    7  N   UNL     1      40.330 -12.157  -2.509  1.00  0.00    -0.168 NA
HETATM    8  C   UNL     1      39.678 -12.815  -1.524  1.00  0.00     0.156 A 
HETATM    9  C   UNL     1      41.525 -10.522   0.521  1.00  0.00     0.034 A 
HETATM   10  C   UNL     1      41.123 -10.790   1.837  1.00  0.00     0.032 A 
ENDROOT
BRANCH   1  11
HETATM   11  N   UNL     1      39.733 -12.068   3.419  1.00  0.00    -0.327 N 
HETATM   12  C   UNL     1      40.194 -12.909   4.389  1.00  0.00     0.222 C 
HETATM   13  O   UNL     1      39.492 -13.068   5.393  1.00  0.00    -0.273 OA
HETATM   14  H   UNL     1      38.974 -11.491   3.766  1.00  0.00     0.169 HD
BRANCH  12  15
HETATM   15  C   UNL     1      41.555 -13.575   4.305  1.00  0.00     0.104 C 
BRANCH  15  16
HETATM   16  C   UNL     1      41.574 -15.106   4.177  1.00  0.00     0.023 C 
BRANCH  16  17
HETATM   17  C   UNL     1      42.070 -15.727   2.831  1.00  0.00    -0.020 C 
HETATM   18  C   UNL     1      42.910 -14.698   2.039  1.00  0.00     0.020 C 
HETATM   19  C   UNL     1      40.814 -15.988   1.952  1.00  0.00     0.020 C 
BRANCH  17  20
HETATM   20  C   UNL     1      42.786 -17.068   3.066  1.00  0.00    -0.050 A 
HETATM   21  C   UNL     1      42.705 -18.137   2.158  1.00  0.00     0.008 A 
HETATM   22  C   UNL     1      43.353 -19.352   2.405  1.00  0.00     0.001 A 
HETATM   23  C   UNL     1      44.099 -19.526   3.566  1.00  0.00     0.000 A 
HETATM   24  C   UNL     1      44.204 -18.483   4.478  1.00  0.00     0.001 A 
HETATM   25  C   UNL     1      43.556 -17.269   4.229  1.00  0.00     0.008 A 
ENDBRANCH  17  20
ENDBRANCH  16  17
ENDBRANCH  15  16
ENDBRANCH  12  15
ENDBRANCH   1  11
BRANCH   8  26
HETATM   26  C   UNL     1      38.706 -13.877  -1.819  1.00  0.00     0.270 C 
HETATM   27  N   UNL     1      39.005 -15.084  -1.249  1.00  0.00    -0.365 N 
HETATM   28  H   UNL     1      39.853 -15.167  -0.702  1.00  0.00     0.159 HD
HETATM   29  H   UNL     1      38.415 -15.882  -1.428  1.00  0.00     0.159 HD
HETATM   30  O   UNL     1      37.712 -13.730  -2.523  1.00  0.00    -0.266 OA
ENDBRANCH   8  26
TORSDOF 6
ENDMDL
MODEL 8
REMARK VINA RESULT:      -8.4     17.169     19.007
REMARK  6 active torsions:
REMARK  status: ('A' for Active; 'I' for Inactive)
REMARK    1  A    between atoms: C_2  and  C_3 
REMARK    2  A    between atoms: C_2  and  C_9 
REMARK    3  A    between atoms: C_9  and  C_10 
REMARK    4  A    between atoms: C_10  and  C_11 
REMARK       I    between atoms: C_11  and  N_12 
REMARK    5  A    between atoms: N_12  and  C_13 
REMARK    6  A    between atoms: C_20  and  C_21 
REMARK       I    between atoms: C_21  and  N_22 
ROOT
HETATM    1  C   UNL     1      47.031 -28.322  -1.595  1.00  0.00     0.035 A 
HETATM    2  C   UNL     1      48.157 -29.068  -1.970  1.00  0.00     0.046 A 
HETATM    3  C   UNL     1      49.053 -29.514  -0.978  1.00  0.00     0.030 A 
HETATM    4  C   UNL     1      48.753 -29.268   0.354  1.00  0.00     0.063 A 
HETATM    5  N   UNL     1      49.787 -29.814   1.063  1.00  0.00    -0.277 N 
HETATM    6  H   UNL     1      49.900 -29.831   2.070  1.00  0.00     0.189 HD
HETATM    7  N   UNL     1      50.751 -30.364   0.305  1.00  0.00    -0.168 NA
HETATM    8  C   UNL     1      50.309 -30.187  -0.960  1.00  0.00     0.156 A 
HETATM    9  C   UNL     1      47.600 -28.593   0.762  1.00  0.00     0.034 A 
HETATM   10  C   UNL     1      46.746 -28.119  -0.244  1.00  0.00     0.032 A 
ENDROOT
BRANCH   1  11
HETATM   11  N   UNL     1      46.228 -27.834  -2.635  1.00  0.00    -0.327 N 
HETATM   12  C   UNL     1      45.500 -28.467  -3.599  1.00  0.00     0.222 C 
HETATM   13  O   UNL     1      45.004 -27.773  -4.492  1.00  0.00    -0.273 OA
HETATM   14  H   UNL     1      46.061 -26.833  -2.650  1.00  0.00     0.169 HD
BRANCH  12  15
HETATM   15  C   UNL     1      45.221 -29.958  -3.555  1.00  0.00     0.104 C 
BRANCH  15  16
HETATM   16  C   UNL     1      44.168 -30.440  -2.544  1.00  0.00     0.023 C 
BRANCH  16  17
HETATM   17  C   UNL     1      44.614 -31.459  -1.447  1.00  0.00    -0.020 C 
HETATM   18  C   UNL     1      46.045 -31.970  -1.732  1.00  0.00     0.020 C 
HETATM   19  C   UNL     1      43.702 -32.712  -1.581  1.00  0.00     0.020 C 
BRANCH  17  20
HETATM   20  C   UNL     1      44.429 -30.874  -0.036  1.00  0.00    -0.050 A 
HETATM   21  C   UNL     1      45.169 -31.323   1.071  1.00  0.00     0.008 A 
HETATM   22  C   UNL     1      44.969 -30.784   2.347  1.00  0.00     0.001 A 
HETATM   23  C   UNL     1      44.026 -29.781   2.545  1.00  0.00     0.000 A 
HETATM   24  C   UNL     1      43.287 -29.311   1.466  1.00  0.00     0.001 A 
HETATM   25  C   UNL     1      43.488 -29.850   0.192  1.00  0.00     0.008 A 
ENDBRANCH  17  20
ENDBRANCH  16  17
ENDBRANCH  15  16
ENDBRANCH  12  15
ENDBRANCH   1  11
BRANCH   8  26
HETATM   26  C   UNL     1      51.094 -30.629  -2.121  1.00  0.00     0.270 C 
HETATM   27  N   UNL     1      50.528 -31.658  -2.823  1.00  0.00    -0.365 N 
HETATM   28  H   UNL     1      49.651 -32.044  -2.496  1.00  0.00     0.159 HD
HETATM   29  H   UNL     1      51.015 -32.053  -3.612  1.00  0.00     0.159 HD
HETATM   30  O   UNL     1      52.174 -30.149  -2.449  1.00  0.00    -0.266 OA
ENDBRANCH   8  26
TORSDOF 6
ENDMDL
MODEL 9
REMARK VINA RESULT:      -8.4      4.068      7.150
REMARK  6 active torsions:
REMARK  status: ('A' for Active; 'I' for Inactive)
REMARK    1  A    between atoms: C_2  and  C_3 
REMARK    2  A    between atoms: C_2  and  C_9 
REMARK    3  A    between atoms: C_9  and  C_10 
REMARK    4  A    between atoms: C_10  and  C_11 
REMARK       I    between atoms: C_11  and  N_12 
REMARK    5  A    between atoms: N_12  and  C_13 
REMARK    6  A    between atoms: C_20  and  C_21 
REMARK       I    between atoms: C_21  and  N_22 
ROOT
HETATM    1  C   UNL     1      40.621 -12.214   3.067  1.00  0.00     0.035 A 
HETATM    2  C   UNL     1      40.780 -11.919   1.706  1.00  0.00     0.046 A 
HETATM    3  C   UNL     1      40.456 -12.896   0.744  1.00  0.00     0.030 A 
HETATM    4  C   UNL     1      39.913 -14.100   1.169  1.00  0.00     0.063 A 
HETATM    5  N   UNL     1      39.705 -14.824   0.028  1.00  0.00    -0.277 N 
HETATM    6  H   UNL     1      39.311 -15.755  -0.045  1.00  0.00     0.189 HD
HETATM    7  N   UNL     1      40.101 -14.210  -1.100  1.00  0.00    -0.168 NA
HETATM    8  C   UNL     1      40.565 -13.015  -0.672  1.00  0.00     0.156 A 
HETATM    9  C   UNL     1      39.671 -14.393   2.514  1.00  0.00     0.034 A 
HETATM   10  C   UNL     1      40.043 -13.424   3.457  1.00  0.00     0.032 A 
ENDROOT
BRANCH   1  11
HETATM   11  N   UNL     1      41.042 -11.233   3.975  1.00  0.00    -0.327 N 
HETATM   12  C   UNL     1      41.370 -11.295   5.297  1.00  0.00     0.222 C 
HETATM   13  O   UNL     1      41.561 -10.229   5.892  1.00  0.00    -0.273 OA
HETATM   14  H   UNL     1      41.235 -10.313   3.593  1.00  0.00     0.169 HD
BRANCH  12  15
HETATM   15  C   UNL     1      41.583 -12.613   6.018  1.00  0.00     0.104 C 
BRANCH  15  16
HETATM   16  C   UNL     1      42.886 -13.370   5.714  1.00  0.00     0.023 C 
BRANCH  16  17
HETATM   17  C   UNL     1      42.822 -14.927   5.597  1.00  0.00    -0.020 C 
HETATM   18  C   UNL     1      41.573 -15.474   6.325  1.00  0.00     0.020 C 
HETATM   19  C   UNL     1      44.034 -15.500   6.386  1.00  0.00     0.020 C 
BRANCH  17  20
HETATM   20  C   UNL     1      42.939 -15.380   4.131  1.00  0.00    -0.050 A 
HETATM   21  C   UNL     1      43.358 -14.518   3.105  1.00  0.00     0.008 A 
HETATM   22  C   UNL     1      43.440 -14.952   1.777  1.00  0.00     0.001 A 
HETATM   23  C   UNL     1      43.106 -16.261   1.446  1.00  0.00     0.000 A 
HETATM   24  C   UNL     1      42.697 -17.139   2.443  1.00  0.00     0.001 A 
HETATM   25  C   UNL     1      42.617 -16.704   3.768  1.00  0.00     0.008 A 
ENDBRANCH  17  20
ENDBRANCH  16  17
ENDBRANCH  15  16
ENDBRANCH  12  15
ENDBRANCH   1  11
BRANCH   8  26
HETATM   26  C   UNL     1      41.127 -12.027  -1.603  1.00  0.00     0.270 C 
HETATM   27  N   UNL     1      41.602 -12.562  -2.769  1.00  0.00    -0.365 N 
HETATM   28  H   UNL     1      41.554 -13.566  -2.898  1.00  0.00     0.159 HD
HETATM   29  H   UNL     1      42.041 -11.965  -3.452  1.00  0.00     0.159 HD
HETATM   30  O   UNL     1      41.195 -10.823  -1.378  1.00  0.00    -0.266 OA
ENDBRANCH   8  26
TORSDOF 6
ENDMDL
MODEL 10
REMARK VINA RESULT:      -8.3      9.183     12.098
REMARK  6 active torsions:
REMARK  status: ('A' for Active; 'I' for Inactive)
REMARK    1  A    between atoms: C_2  and  C_3 
REMARK    2  A    between atoms: C_2  and  C_9 
REMARK    3  A    between atoms: C_9  and  C_10 
REMARK    4  A    between atoms: C_10  and  C_11 
REMARK       I    between atoms: C_11  and  N_12 
REMARK    5  A    between atoms: N_12  and  C_13 
REMARK    6  A    between atoms: C_20  and  C_21 
REMARK       I    between atoms: C_21  and  N_22 
ROOT
HETATM    1  C   UNL     1      41.707  -7.397  15.352  1.00  0.00     0.035 A 
HETATM    2  C   UNL     1      41.029  -8.444  14.713  1.00  0.00     0.046 A 
HETATM    3  C   UNL     1      41.525  -8.948  13.495  1.00  0.00     0.030 A 
HETATM    4  C   UNL     1      42.720  -8.445  12.999  1.00  0.00     0.063 A 
HETATM    5  N   UNL     1      42.938  -9.121  11.831  1.00  0.00    -0.277 N 
HETATM    6  H   UNL     1      43.724  -9.018  11.199  1.00  0.00     0.189 HD
HETATM    7  N   UNL     1      41.969  -9.994  11.505  1.00  0.00    -0.168 NA
HETATM    8  C   UNL     1      41.090  -9.900  12.527  1.00  0.00     0.156 A 
HETATM    9  C   UNL     1      43.457  -7.455  13.652  1.00  0.00     0.034 A 
HETATM   10  C   UNL     1      42.922  -6.936  14.840  1.00  0.00     0.032 A 
ENDROOT
BRANCH   1  11
HETATM   11  N   UNL     1      41.116  -6.883  16.514  1.00  0.00    -0.327 N 
HETATM   12  C   UNL     1      39.940  -6.224  16.724  1.00  0.00     0.222 C 
HETATM   13  O   UNL     1      39.743  -5.744  17.845  1.00  0.00    -0.273 OA
HETATM   14  H   UNL     1      41.575  -7.100  17.393  1.00  0.00     0.169 HD
BRANCH  12  15
HETATM   15  C   UNL     1      38.858  -6.140  15.663  1.00  0.00     0.104 C 
BRANCH  15  16
HETATM   16  C   UNL     1      39.091  -5.152  14.508  1.00  0.00     0.023 C 
BRANCH  16  17
HETATM   17  C   UNL     1      38.723  -5.612  13.061  1.00  0.00    -0.020 C 
HETATM   18  C   UNL     1      37.553  -4.767  12.505  1.00  0.00     0.020 C 
HETATM   19  C   UNL     1      38.163  -7.060  13.164  1.00  0.00     0.020 C 
BRANCH  17  20
HETATM   20  C   UNL     1      39.963  -5.635  12.151  1.00  0.00    -0.050 A 
HETATM   21  C   UNL     1      40.074  -6.494  11.046  1.00  0.00     0.008 A 
HETATM   22  C   UNL     1      41.221  -6.506  10.245  1.00  0.00     0.001 A 
HETATM   23  C   UNL     1      42.284  -5.655  10.529  1.00  0.00     0.000 A 
HETATM   24  C   UNL     1      42.198  -4.787  11.611  1.00  0.00     0.001 A 
HETATM   25  C   UNL     1      41.051  -4.777  12.410  1.00  0.00     0.008 A 
ENDBRANCH  17  20
ENDBRANCH  16  17
ENDBRANCH  15  16
ENDBRANCH  12  15
ENDBRANCH   1  11
BRANCH   8  26
HETATM   26  C   UNL     1      39.849 -10.685  12.552  1.00  0.00     0.270 C 
HETATM   27  N   UNL     1      39.161 -10.685  11.371  1.00  0.00    -0.365 N 
HETATM   28  H   UNL     1      39.529 -10.148  10.594  1.00  0.00     0.159 HD
HETATM   29  H   UNL     1      38.277 -11.166  11.305  1.00  0.00     0.159 HD
HETATM   30  O   UNL     1      39.429 -11.287  13.536  1.00  0.00    -0.266 OA
ENDBRANCH   8  26
TORSDOF 6
ENDMDL
