MODEL 1
REMARK VINA RESULT:      -9.0      0.000      0.000
REMARK  3 active torsions:
REMARK  status: ('A' for Active; 'I' for Inactive)
REMARK    1  A    between atoms: C_4  and  C_5 
REMARK    2  A    between atoms: C_11  and  C_12 
REMARK    3  A    between atoms: C_21  and  N_22 
ROOT
HETATM    1  C   UNL     1      43.429 -17.309   6.111  1.00  0.00     0.071 A 
HETATM    2  N   UNL     1      43.461 -17.314   7.491  1.00  0.00    -0.274 N 
HETATM    3  H   UNL     1      43.616 -18.110   8.099  1.00  0.00     0.189 HD
HETATM    4  N   UNL     1      43.307 -16.103   8.051  1.00  0.00    -0.148 NA
HETATM    5  C   UNL     1      43.174 -15.317   6.992  1.00  0.00     0.199 A 
HETATM    6  C   UNL     1      43.186 -15.985   5.758  1.00  0.00     0.036 A 
HETATM    7  C   UNL     1      43.052 -15.230   4.459  1.00  0.00     0.079 A 
HETATM    8  C   UNL     1      43.054 -13.705   4.781  1.00  0.00     0.063 A 
HETATM    9  C   UNL     1      42.909 -12.760   3.599  1.00  0.00     0.020 C 
HETATM   10  N   UNL     1      42.790 -11.977   2.618  1.00  0.00    -0.096 N 
HETATM   11  C   UNL     1      43.061 -13.183   6.034  1.00  0.00     0.139 A 
HETATM   12  O   UNL     1      43.091 -13.989   7.171  1.00  0.00    -0.277 OA
ENDROOT
BRANCH   7  13
HETATM   13  C   UNL     1      41.812 -15.636   3.538  1.00  0.00     0.022 C 
HETATM   14  C   UNL     1      42.103 -15.798   2.060  1.00  0.00    -0.025 C 
HETATM   15  C   UNL     1      41.503 -15.112   1.076  1.00  0.00    -0.030 C 
HETATM   16  C   UNL     1      40.396 -14.140   1.318  1.00  0.00     0.027 C 
HETATM   17  C   UNL     1      39.656 -14.502   2.594  1.00  0.00     0.004 C 
HETATM   18  C   UNL     1      40.622 -14.650   3.768  1.00  0.00     0.010 C 
ENDBRANCH   7  13
BRANCH  11  19
HETATM   19  N   UNL     1      43.017 -11.841   6.338  1.00  0.00    -0.282 NA
HETATM   20  H   UNL     1      43.266 -11.200   5.589  1.00  0.00     0.126 HD
HETATM   21  H   UNL     1      42.152 -11.588   6.811  1.00  0.00     0.126 HD
ENDBRANCH  11  19
BRANCH   1  22
HETATM   22  C   UNL     1      43.635 -18.534   5.345  1.00  0.00    -0.007 A 
HETATM   23  C   UNL     1      43.625 -19.780   5.991  1.00  0.00     0.014 A 
HETATM   24  C   UNL     1      43.799 -20.960   5.264  1.00  0.00     0.001 A 
HETATM   25  C   UNL     1      43.991 -20.904   3.887  1.00  0.00     0.000 A 
HETATM   26  C   UNL     1      44.010 -19.671   3.236  1.00  0.00     0.001 A 
HETATM   27  C   UNL     1      43.832 -18.490   3.960  1.00  0.00     0.014 A 
ENDBRANCH   1  22
TORSDOF 3
ENDMDL
MODEL 2
REMARK VINA RESULT:      -9.0      2.264      3.572
REMARK  3 active torsions:
REMARK  status: ('A' for Active; 'I' for Inactive)
REMARK    1  A    between atoms: C_4  and  C_5 
REMARK    2  A    between atoms: C_11  and  C_12 
REMARK    3  A    between atoms: C_21  and  N_22 
ROOT
HETATM    1  C   UNL     1      42.811 -14.063   4.316  1.00  0.00     0.071 A 
HETATM    2  N   UNL     1      43.074 -13.863   5.657  1.00  0.00    -0.274 N 
HETATM    3  H   UNL     1      43.434 -14.541   6.320  1.00  0.00     0.189 HD
HETATM    4  N   UNL     1      42.856 -12.608   6.081  1.00  0.00    -0.148 NA
HETATM    5  C   UNL     1      42.444 -12.004   4.975  1.00  0.00     0.199 A 
HETATM    6  C   UNL     1      42.338 -12.840   3.852  1.00  0.00     0.036 A 
HETATM    7  C   UNL     1      41.889 -12.302   2.517  1.00  0.00     0.079 A 
HETATM    8  C   UNL     1      41.741 -10.755   2.641  1.00  0.00     0.063 A 
HETATM    9  C   UNL     1      41.275 -10.015   1.398  1.00  0.00     0.020 C 
HETATM   10  N   UNL     1      40.889  -9.401   0.367  1.00  0.00    -0.096 N 
HETATM   11  C   UNL     1      41.889 -10.058   3.797  1.00  0.00     0.139 A 
HETATM   12  O   UNL     1      42.216 -10.681   5.000  1.00  0.00    -0.277 OA
ENDROOT
BRANCH   7  13
HETATM   13  C   UNL     1      40.577 -12.971   1.899  1.00  0.00     0.022 C 
HETATM   14  C   UNL     1      39.833 -13.938   2.797  1.00  0.00    -0.025 C 
HETATM   15  C   UNL     1      39.580 -15.223   2.506  1.00  0.00    -0.030 C 
HETATM   16  C   UNL     1      39.940 -15.848   1.199  1.00  0.00     0.027 C 
HETATM   17  C   UNL     1      39.996 -14.787   0.113  1.00  0.00     0.004 C 
HETATM   18  C   UNL     1      40.904 -13.630   0.520  1.00  0.00     0.010 C 
ENDBRANCH   7  13
BRANCH  11  19
HETATM   19  N   UNL     1      41.717  -8.699   3.934  1.00  0.00    -0.282 NA
HETATM   20  H   UNL     1      42.543  -8.163   4.189  1.00  0.00     0.126 HD
HETATM   21  H   UNL     1      41.208  -8.300   3.148  1.00  0.00     0.126 HD
ENDBRANCH  11  19
BRANCH   1  22
HETATM   22  C   UNL     1      43.047 -15.358   3.684  1.00  0.00    -0.007 A 
HETATM   23  C   UNL     1      43.003 -16.535   4.448  1.00  0.00     0.014 A 
HETATM   24  C   UNL     1      43.206 -17.779   3.848  1.00  0.00     0.001 A 
HETATM   25  C   UNL     1      43.461 -17.858   2.482  1.00  0.00     0.000 A 
HETATM   26  C   UNL     1      43.514 -16.695   1.716  1.00  0.00     0.001 A 
HETATM   27  C   UNL     1      43.307 -15.449   2.312  1.00  0.00     0.014 A 
ENDBRANCH   1  22
TORSDOF 3
ENDMDL
MODEL 3
REMARK VINA RESULT:      -9.0      2.674      3.981
REMARK  3 active torsions:
REMARK  status: ('A' for Active; 'I' for Inactive)
REMARK    1  A    between atoms: C_4  and  C_5 
REMARK    2  A    between atoms: C_11  and  C_12 
REMARK    3  A    between atoms: C_21  and  N_22 
ROOT
HETATM    1  C   UNL     1      41.159 -14.115   5.631  1.00  0.00     0.071 A 
HETATM    2  N   UNL     1      40.129 -13.983   6.542  1.00  0.00    -0.274 N 
HETATM    3  H   UNL     1      39.990 -14.516   7.393  1.00  0.00     0.189 HD
HETATM    4  N   UNL     1      39.260 -13.001   6.254  1.00  0.00    -0.148 NA
HETATM    5  C   UNL     1      39.759 -12.503   5.131  1.00  0.00     0.199 A 
HETATM    6  C   UNL     1      40.899 -13.164   4.649  1.00  0.00     0.036 A 
HETATM    7  C   UNL     1      41.588 -12.715   3.385  1.00  0.00     0.079 A 
HETATM    8  C   UNL     1      40.899 -11.405   2.896  1.00  0.00     0.063 A 
HETATM    9  C   UNL     1      41.437 -10.792   1.613  1.00  0.00     0.020 C 
HETATM   10  N   UNL     1      41.884 -10.283   0.550  1.00  0.00    -0.096 N 
HETATM   11  C   UNL     1      39.798 -10.854   3.468  1.00  0.00     0.139 A 
HETATM   12  O   UNL     1      39.187 -11.417   4.588  1.00  0.00    -0.277 OA
ENDROOT
BRANCH   7  13
HETATM   13  C   UNL     1      41.686 -13.800   2.218  1.00  0.00     0.022 C 
HETATM   14  C   UNL     1      40.610 -14.867   2.205  1.00  0.00    -0.025 C 
HETATM   15  C   UNL     1      40.832 -16.188   2.277  1.00  0.00    -0.030 C 
HETATM   16  C   UNL     1      42.200 -16.784   2.300  1.00  0.00     0.027 C 
HETATM   17  C   UNL     1      43.185 -15.853   1.612  1.00  0.00     0.004 C 
HETATM   18  C   UNL     1      43.110 -14.444   2.196  1.00  0.00     0.010 C 
ENDBRANCH   7  13
BRANCH  11  19
HETATM   19  N   UNL     1      39.150  -9.724   3.022  1.00  0.00    -0.282 NA
HETATM   20  H   UNL     1      39.623  -9.187   2.300  1.00  0.00     0.126 HD
HETATM   21  H   UNL     1      38.171  -9.909   2.809  1.00  0.00     0.126 HD
ENDBRANCH  11  19
BRANCH   1  22
HETATM   22  C   UNL     1      42.218 -15.101   5.825  1.00  0.00    -0.007 A 
HETATM   23  C   UNL     1      41.919 -16.472   5.803  1.00  0.00     0.014 A 
HETATM   24  C   UNL     1      42.929 -17.422   5.965  1.00  0.00     0.001 A 
HETATM   25  C   UNL     1      44.244 -17.011   6.158  1.00  0.00     0.000 A 
HETATM   26  C   UNL     1      44.551 -15.652   6.189  1.00  0.00     0.001 A 
HETATM   27  C   UNL     1      43.543 -14.699   6.022  1.00  0.00     0.014 A 
ENDBRANCH   1  22
TORSDOF 3
ENDMDL
MODEL 4
REMARK VINA RESULT:      -8.6      7.340      9.963
REMARK  3 active torsions:
REMARK  status: ('A' for Active; 'I' for Inactive)
REMARK    1  A    between atoms: C_4  and  C_5 
REMARK    2  A    between atoms: C_11  and  C_12 
REMARK    3  A    between atoms: C_21  and  N_22 
ROOT
HETATM    1  C   UNL     1      43.804 -10.246  11.046  1.00  0.00     0.071 A 
HETATM    2  N   UNL     1      43.605 -11.408  11.765  1.00  0.00    -0.274 N 
HETATM    3  H   UNL     1      43.898 -12.345  11.511  1.00  0.00     0.189 HD
HETATM    4  N   UNL     1      42.989 -11.230  12.945  1.00  0.00    -0.148 NA
HETATM    5  C   UNL     1      42.796  -9.918  12.966  1.00  0.00     0.199 A 
HETATM    6  C   UNL     1      43.221  -9.241  11.813  1.00  0.00     0.036 A 
HETATM    7  C   UNL     1      43.077  -7.746  11.686  1.00  0.00     0.079 A 
HETATM    8  C   UNL     1      42.548  -7.192  13.044  1.00  0.00     0.063 A 
HETATM    9  C   UNL     1      42.314  -5.692  13.121  1.00  0.00     0.020 C 
HETATM   10  N   UNL     1      42.121  -4.447  13.185  1.00  0.00    -0.096 N 
HETATM   11  C   UNL     1      42.183  -7.962  14.099  1.00  0.00     0.139 A 
HETATM   12  O   UNL     1      42.274  -9.353  14.066  1.00  0.00    -0.277 OA
ENDROOT
BRANCH   7  13
HETATM   13  C   UNL     1      42.197  -7.230  10.457  1.00  0.00     0.022 C 
HETATM   14  C   UNL     1      41.171  -8.204   9.914  1.00  0.00    -0.025 C 
HETATM   15  C   UNL     1      41.120  -8.646   8.648  1.00  0.00    -0.030 C 
HETATM   16  C   UNL     1      42.042  -8.161   7.579  1.00  0.00     0.027 C 
HETATM   17  C   UNL     1      42.529  -6.760   7.908  1.00  0.00     0.004 C 
HETATM   18  C   UNL     1      43.122  -6.700   9.314  1.00  0.00     0.010 C 
ENDBRANCH   7  13
BRANCH  11  19
HETATM   19  N   UNL     1      41.672  -7.493  15.289  1.00  0.00    -0.282 NA
HETATM   20  H   UNL     1      42.183  -6.735  15.732  1.00  0.00     0.126 HD
HETATM   21  H   UNL     1      40.670  -7.320  15.228  1.00  0.00     0.126 HD
ENDBRANCH  11  19
BRANCH   1  22
HETATM   22  C   UNL     1      44.506 -10.259   9.767  1.00  0.00    -0.007 A 
HETATM   23  C   UNL     1      44.096 -11.129   8.745  1.00  0.00     0.014 A 
HETATM   24  C   UNL     1      44.748 -11.133   7.510  1.00  0.00     0.001 A 
HETATM   25  C   UNL     1      45.819 -10.273   7.288  1.00  0.00     0.000 A 
HETATM   26  C   UNL     1      46.240  -9.410   8.299  1.00  0.00     0.001 A 
HETATM   27  C   UNL     1      45.586  -9.401   9.534  1.00  0.00     0.014 A 
ENDBRANCH   1  22
TORSDOF 3
ENDMDL
MODEL 5
REMARK VINA RESULT:      -8.4     14.125     15.934
REMARK  3 active torsions:
REMARK  status: ('A' for Active; 'I' for Inactive)
REMARK    1  A    between atoms: C_4  and  C_5 
REMARK    2  A    between atoms: C_11  and  C_12 
REMARK    3  A    between atoms: C_21  and  N_22 
ROOT
HETATM    1  C   UNL     1      43.976 -29.484  -0.236  1.00  0.00     0.071 A 
HETATM    2  N   UNL     1      42.890 -28.827   0.307  1.00  0.00    -0.274 N 
HETATM    3  H   UNL     1      42.217 -28.247  -0.181  1.00  0.00     0.189 HD
HETATM    4  N   UNL     1      42.717 -29.038   1.622  1.00  0.00    -0.148 NA
HETATM    5  C   UNL     1      43.724 -29.851   1.911  1.00  0.00     0.199 A 
HETATM    6  C   UNL     1      44.579 -30.136   0.836  1.00  0.00     0.036 A 
HETATM    7  C   UNL     1      45.766 -31.050   1.002  1.00  0.00     0.079 A 
HETATM    8  C   UNL     1      45.723 -31.646   2.442  1.00  0.00     0.063 A 
HETATM    9  C   UNL     1      46.854 -32.589   2.822  1.00  0.00     0.020 C 
HETATM   10  N   UNL     1      47.791 -33.371   3.137  1.00  0.00    -0.096 N 
HETATM   11  C   UNL     1      44.822 -31.294   3.394  1.00  0.00     0.139 A 
HETATM   12  O   UNL     1      43.817 -30.359   3.150  1.00  0.00    -0.277 OA
ENDROOT
BRANCH   7  13
HETATM   13  C   UNL     1      47.192 -30.412   0.671  1.00  0.00     0.022 C 
HETATM   14  C   UNL     1      47.322 -28.918   0.887  1.00  0.00    -0.025 C 
HETATM   15  C   UNL     1      47.667 -28.029  -0.056  1.00  0.00    -0.030 C 
HETATM   16  C   UNL     1      48.050 -28.422  -1.445  1.00  0.00     0.027 C 
HETATM   17  C   UNL     1      48.604 -29.836  -1.450  1.00  0.00     0.004 C 
HETATM   18  C   UNL     1      47.641 -30.808  -0.773  1.00  0.00     0.010 C 
ENDBRANCH   7  13
BRANCH  11  19
HETATM   19  N   UNL     1      44.797 -31.775   4.684  1.00  0.00    -0.282 NA
HETATM   20  H   UNL     1      44.228 -31.257   5.348  1.00  0.00     0.126 HD
HETATM   21  H   UNL     1      44.629 -32.779   4.709  1.00  0.00     0.126 HD
ENDBRANCH  11  19
BRANCH   1  22
HETATM   22  C   UNL     1      44.274 -29.404  -1.663  1.00  0.00    -0.007 A 
HETATM   23  C   UNL     1      44.700 -28.191  -2.227  1.00  0.00     0.014 A 
HETATM   24  C   UNL     1      45.008 -28.109  -3.586  1.00  0.00     0.001 A 
HETATM   25  C   UNL     1      44.886 -29.235  -4.395  1.00  0.00     0.000 A 
HETATM   26  C   UNL     1      44.456 -30.442  -3.846  1.00  0.00     0.001 A 
HETATM   27  C   UNL     1      44.152 -30.528  -2.485  1.00  0.00     0.014 A 
ENDBRANCH   1  22
TORSDOF 3
ENDMDL
MODEL 6
REMARK VINA RESULT:      -8.4      6.743      9.984
REMARK  3 active torsions:
REMARK  status: ('A' for Active; 'I' for Inactive)
REMARK    1  A    between atoms: C_4  and  C_5 
REMARK    2  A    between atoms: C_11  and  C_12 
REMARK    3  A    between atoms: C_21  and  N_22 
ROOT
HETATM    1  C   UNL     1      43.591  -9.679  10.767  1.00  0.00     0.071 A 
HETATM    2  N   UNL     1      44.849 -10.247  10.748  1.00  0.00    -0.274 N 
HETATM    3  H   UNL     1      45.465 -10.402  11.539  1.00  0.00     0.189 HD
HETATM    4  N   UNL     1      45.248 -10.667   9.536  1.00  0.00    -0.148 NA
HETATM    5  C   UNL     1      44.210 -10.352   8.773  1.00  0.00     0.199 A 
HETATM    6  C   UNL     1      43.167  -9.692   9.442  1.00  0.00     0.036 A 
HETATM    7  C   UNL     1      41.914  -9.273   8.714  1.00  0.00     0.079 A 
HETATM    8  C   UNL     1      41.991  -9.823   7.258  1.00  0.00     0.063 A 
HETATM    9  C   UNL     1      40.822  -9.492   6.344  1.00  0.00     0.020 C 
HETATM   10  N   UNL     1      39.853  -9.218   5.586  1.00  0.00    -0.096 N 
HETATM   11  C   UNL     1      43.065 -10.466   6.733  1.00  0.00     0.139 A 
HETATM   12  O   UNL     1      44.215 -10.716   7.482  1.00  0.00    -0.277 OA
ENDROOT
BRANCH   7  13
HETATM   13  C   UNL     1      41.581  -7.712   8.738  1.00  0.00     0.022 C 
HETATM   14  C   UNL     1      42.770  -6.775   8.806  1.00  0.00    -0.025 C 
HETATM   15  C   UNL     1      42.983  -5.866   9.769  1.00  0.00    -0.030 C 
HETATM   16  C   UNL     1      42.012  -5.607  10.873  1.00  0.00     0.027 C 
HETATM   17  C   UNL     1      40.606  -5.971  10.425  1.00  0.00     0.004 C 
HETATM   18  C   UNL     1      40.555  -7.394   9.874  1.00  0.00     0.010 C 
ENDBRANCH   7  13
BRANCH  11  19
HETATM   19  N   UNL     1      43.169 -10.917   5.437  1.00  0.00    -0.282 NA
HETATM   20  H   UNL     1      42.463 -11.583   5.133  1.00  0.00     0.126 HD
HETATM   21  H   UNL     1      43.308 -10.152   4.780  1.00  0.00     0.126 HD
ENDBRANCH  11  19
BRANCH   1  22
HETATM   22  C   UNL     1      42.987  -9.219  12.014  1.00  0.00    -0.007 A 
HETATM   23  C   UNL     1      43.541  -8.133  12.708  1.00  0.00     0.014 A 
HETATM   24  C   UNL     1      42.958  -7.672  13.890  1.00  0.00     0.001 A 
HETATM   25  C   UNL     1      41.821  -8.297  14.392  1.00  0.00     0.000 A 
HETATM   26  C   UNL     1      41.266  -9.382  13.715  1.00  0.00     0.001 A 
HETATM   27  C   UNL     1      41.845  -9.842  12.529  1.00  0.00     0.014 A 
ENDBRANCH   1  22
TORSDOF 3
ENDMDL
MODEL 7
REMARK VINA RESULT:      -8.4      3.339      4.438
REMARK  3 active torsions:
REMARK  status: ('A' for Active; 'I' for Inactive)
REMARK    1  A    between atoms: C_4  and  C_5 
REMARK    2  A    between atoms: C_11  and  C_12 
REMARK    3  A    between atoms: C_21  and  N_22 
ROOT
HETATM    1  C   UNL     1      40.925 -14.278   4.550  1.00  0.00     0.071 A 
HETATM    2  N   UNL     1      40.389 -15.011   5.590  1.00  0.00    -0.274 N 
HETATM    3  H   UNL     1      40.488 -16.007   5.754  1.00  0.00     0.189 HD
HETATM    4  N   UNL     1      39.705 -14.281   6.485  1.00  0.00    -0.148 NA
HETATM    5  C   UNL     1      39.814 -13.055   5.992  1.00  0.00     0.199 A 
HETATM    6  C   UNL     1      40.506 -12.970   4.774  1.00  0.00     0.036 A 
HETATM    7  C   UNL     1      40.721 -11.645   4.088  1.00  0.00     0.079 A 
HETATM    8  C   UNL     1      40.187 -10.520   5.026  1.00  0.00     0.063 A 
HETATM    9  C   UNL     1      40.293  -9.095   4.508  1.00  0.00     0.020 C 
HETATM   10  N   UNL     1      40.382  -7.913   4.078  1.00  0.00    -0.096 N 
HETATM   11  C   UNL     1      39.542 -10.739   6.200  1.00  0.00     0.139 A 
HETATM   12  O   UNL     1      39.317 -12.023   6.692  1.00  0.00    -0.277 OA
ENDROOT
BRANCH   7  13
HETATM   13  C   UNL     1      40.122 -11.516   2.613  1.00  0.00     0.022 C 
HETATM   14  C   UNL     1      39.277 -12.677   2.131  1.00  0.00    -0.025 C 
HETATM   15  C   UNL     1      39.526 -13.411   1.036  1.00  0.00    -0.030 C 
HETATM   16  C   UNL     1      40.647 -13.115   0.095  1.00  0.00     0.027 C 
HETATM   17  C   UNL     1      41.001 -11.639   0.156  1.00  0.00     0.004 C 
HETATM   18  C   UNL     1      41.262 -11.194   1.593  1.00  0.00     0.010 C 
ENDBRANCH   7  13
BRANCH  11  19
HETATM   19  N   UNL     1      39.023  -9.760   7.018  1.00  0.00    -0.282 NA
HETATM   20  H   UNL     1      39.637  -9.410   7.749  1.00  0.00     0.126 HD
HETATM   21  H   UNL     1      38.573  -9.019   6.484  1.00  0.00     0.126 HD
ENDBRANCH  11  19
BRANCH   1  22
HETATM   22  C   UNL     1      41.743 -14.912   3.521  1.00  0.00    -0.007 A 
HETATM   23  C   UNL     1      42.785 -14.198   2.908  1.00  0.00     0.014 A 
HETATM   24  C   UNL     1      43.586 -14.802   1.938  1.00  0.00     0.001 A 
HETATM   25  C   UNL     1      43.350 -16.122   1.566  1.00  0.00     0.000 A 
HETATM   26  C   UNL     1      42.313 -16.838   2.163  1.00  0.00     0.001 A 
HETATM   27  C   UNL     1      41.513 -16.237   3.137  1.00  0.00     0.014 A 
ENDBRANCH   1  22
TORSDOF 3
ENDMDL
MODEL 8
REMARK VINA RESULT:      -8.2      3.102      7.231
REMARK  3 active torsions:
REMARK  status: ('A' for Active; 'I' for Inactive)
REMARK    1  A    between atoms: C_4  and  C_5 
REMARK    2  A    between atoms: C_11  and  C_12 
REMARK    3  A    between atoms: C_21  and  N_22 
ROOT
HETATM    1  C   UNL     1      40.506 -11.881  -0.538  1.00  0.00     0.071 A 
HETATM    2  N   UNL     1      40.979 -10.645  -0.932  1.00  0.00    -0.274 N 
HETATM    3  H   UNL     1      40.776 -10.157  -1.797  1.00  0.00     0.189 HD
HETATM    4  N   UNL     1      41.756 -10.036  -0.022  1.00  0.00    -0.148 NA
HETATM    5  C   UNL     1      41.771 -10.915   0.970  1.00  0.00     0.199 A 
HETATM    6  C   UNL     1      41.069 -12.103   0.715  1.00  0.00     0.036 A 
HETATM    7  C   UNL     1      40.986 -13.199   1.747  1.00  0.00     0.079 A 
HETATM    8  C   UNL     1      41.658 -12.685   3.056  1.00  0.00     0.063 A 
HETATM    9  C   UNL     1      41.696 -13.656   4.226  1.00  0.00     0.020 C 
HETATM   10  N   UNL     1      41.728 -14.460   5.196  1.00  0.00    -0.096 N 
HETATM   11  C   UNL     1      42.298 -11.495   3.177  1.00  0.00     0.139 A 
HETATM   12  O   UNL     1      42.391 -10.595   2.117  1.00  0.00    -0.277 OA
ENDROOT
BRANCH   7  13
HETATM   13  C   UNL     1      41.566 -14.620   1.305  1.00  0.00     0.022 C 
HETATM   14  C   UNL     1      40.787 -15.834   1.771  1.00  0.00    -0.025 C 
HETATM   15  C   UNL     1      41.283 -16.829   2.521  1.00  0.00    -0.030 C 
HETATM   16  C   UNL     1      42.717 -16.902   2.931  1.00  0.00     0.027 C 
HETATM   17  C   UNL     1      43.584 -16.159   1.928  1.00  0.00     0.004 C 
HETATM   18  C   UNL     1      43.073 -14.738   1.705  1.00  0.00     0.010 C 
ENDBRANCH   7  13
BRANCH  11  19
HETATM   19  N   UNL     1      42.935 -11.045   4.312  1.00  0.00    -0.282 NA
HETATM   20  H   UNL     1      43.093 -10.043   4.373  1.00  0.00     0.126 HD
HETATM   21  H   UNL     1      42.527 -11.440   5.157  1.00  0.00     0.126 HD
ENDBRANCH  11  19
BRANCH   1  22
HETATM   22  C   UNL     1      39.604 -12.651  -1.389  1.00  0.00    -0.007 A 
HETATM   23  C   UNL     1      38.285 -12.216  -1.596  1.00  0.00     0.014 A 
HETATM   24  C   UNL     1      37.422 -12.934  -2.426  1.00  0.00     0.001 A 
HETATM   25  C   UNL     1      37.866 -14.097  -3.049  1.00  0.00     0.000 A 
HETATM   26  C   UNL     1      39.171 -14.542  -2.843  1.00  0.00     0.001 A 
HETATM   27  C   UNL     1      40.038 -13.823  -2.018  1.00  0.00     0.014 A 
ENDBRANCH   1  22
TORSDOF 3
ENDMDL
MODEL 9
REMARK VINA RESULT:      -7.9     11.683     14.341
REMARK  3 active torsions:
REMARK  status: ('A' for Active; 'I' for Inactive)
REMARK    1  A    between atoms: C_4  and  C_5 
REMARK    2  A    between atoms: C_11  and  C_12 
REMARK    3  A    between atoms: C_21  and  N_22 
ROOT
HETATM    1  C   UNL     1      41.206  -7.569  15.614  1.00  0.00     0.071 A 
HETATM    2  N   UNL     1      41.119  -8.272  16.799  1.00  0.00    -0.274 N 
HETATM    3  H   UNL     1      41.438  -9.218  16.976  1.00  0.00     0.189 HD
HETATM    4  N   UNL     1      40.585  -7.576  17.816  1.00  0.00    -0.148 NA
HETATM    5  C   UNL     1      40.330  -6.403  17.252  1.00  0.00     0.199 A 
HETATM    6  C   UNL     1      40.634  -6.329  15.884  1.00  0.00     0.036 A 
HETATM    7  C   UNL     1      40.407  -5.061  15.100  1.00  0.00     0.079 A 
HETATM    8  C   UNL     1      39.955  -3.950  16.096  1.00  0.00     0.063 A 
HETATM    9  C   UNL     1      39.654  -2.584  15.498  1.00  0.00     0.020 C 
HETATM   10  N   UNL     1      39.404  -1.452  15.003  1.00  0.00    -0.096 N 
HETATM   11  C   UNL     1      39.708  -4.152  17.415  1.00  0.00     0.139 A 
HETATM   12  O   UNL     1      39.864  -5.401  18.013  1.00  0.00    -0.277 OA
ENDROOT
BRANCH   7  13
HETATM   13  C   UNL     1      39.413  -5.177  13.855  1.00  0.00     0.022 C 
HETATM   14  C   UNL     1      38.270  -6.160  14.001  1.00  0.00    -0.025 C 
HETATM   15  C   UNL     1      38.034  -7.197  13.184  1.00  0.00    -0.030 C 
HETATM   16  C   UNL     1      38.842  -7.468  11.958  1.00  0.00     0.027 C 
HETATM   17  C   UNL     1      39.452  -6.176  11.441  1.00  0.00     0.004 C 
HETATM   18  C   UNL     1      40.218  -5.449  12.543  1.00  0.00     0.010 C 
ENDBRANCH   7  13
BRANCH  11  19
HETATM   19  N   UNL     1      39.265  -3.193  18.298  1.00  0.00    -0.282 NA
HETATM   20  H   UNL     1      39.071  -2.275  17.908  1.00  0.00     0.126 HD
HETATM   21  H   UNL     1      38.515  -3.543  18.892  1.00  0.00     0.126 HD
ENDBRANCH  11  19
BRANCH   1  22
HETATM   22  C   UNL     1      41.811  -8.162  14.425  1.00  0.00    -0.007 A 
HETATM   23  C   UNL     1      41.272  -9.332  13.868  1.00  0.00     0.014 A 
HETATM   24  C   UNL     1      41.830  -9.894  12.718  1.00  0.00     0.001 A 
HETATM   25  C   UNL     1      42.935  -9.297  12.119  1.00  0.00     0.000 A 
HETATM   26  C   UNL     1      43.483  -8.139  12.669  1.00  0.00     0.001 A 
HETATM   27  C   UNL     1      42.923  -7.571  13.816  1.00  0.00     0.014 A 
ENDBRANCH   1  22
TORSDOF 3
ENDMDL
MODEL 10
REMARK VINA RESULT:      -7.8      9.405     12.134
REMARK  3 active torsions:
REMARK  status: ('A' for Active; 'I' for Inactive)
REMARK    1  A    between atoms: C_4  and  C_5 
REMARK    2  A    between atoms: C_11  and  C_12 
REMARK    3  A    between atoms: C_21  and  N_22 
ROOT
HETATM    1  C   UNL     1      39.615  -7.968  11.615  1.00  0.00     0.071 A 
HETATM    2  N   UNL     1      38.878  -8.749  12.482  1.00  0.00    -0.274 N 
HETATM    3  H   UNL     1      37.909  -8.620  12.752  1.00  0.00     0.189 HD
HETATM    4  N   UNL     1      39.540  -9.812  12.966  1.00  0.00    -0.148 NA
HETATM    5  C   UNL     1      40.726  -9.694  12.386  1.00  0.00     0.199 A 
HETATM    6  C   UNL     1      40.876  -8.556  11.578  1.00  0.00     0.036 A 
HETATM    7  C   UNL     1      42.164  -8.282  10.845  1.00  0.00     0.079 A 
HETATM    8  C   UNL     1      43.113  -9.501  11.057  1.00  0.00     0.063 A 
HETATM    9  C   UNL     1      44.485  -9.415  10.408  1.00  0.00     0.020 C 
HETATM   10  N   UNL     1      45.623  -9.344   9.870  1.00  0.00    -0.096 N 
HETATM   11  C   UNL     1      42.839 -10.558  11.863  1.00  0.00     0.139 A 
HETATM   12  O   UNL     1      41.642 -10.658  12.570  1.00  0.00    -0.277 OA
ENDROOT
BRANCH   7  13
HETATM   13  C   UNL     1      42.889  -6.903  11.196  1.00  0.00     0.022 C 
HETATM   14  C   UNL     1      42.559  -6.299  12.546  1.00  0.00    -0.025 C 
HETATM   15  C   UNL     1      42.036  -5.079  12.739  1.00  0.00    -0.030 C 
HETATM   16  C   UNL     1      41.784  -4.116  11.626  1.00  0.00     0.027 C 
HETATM   17  C   UNL     1      42.728  -4.398  10.470  1.00  0.00     0.004 C 
HETATM   18  C   UNL     1      42.661  -5.865  10.050  1.00  0.00     0.010 C 
ENDBRANCH   7  13
BRANCH  11  19
HETATM   19  N   UNL     1      43.683 -11.620  12.098  1.00  0.00    -0.282 NA
HETATM   20  H   UNL     1      44.627 -11.536  11.731  1.00  0.00     0.126 HD
HETATM   21  H   UNL     1      43.656 -11.916  13.072  1.00  0.00     0.126 HD
ENDBRANCH  11  19
BRANCH   1  22
HETATM   22  C   UNL     1      39.027  -6.804  10.958  1.00  0.00    -0.007 A 
HETATM   23  C   UNL     1      38.430  -5.790  11.723  1.00  0.00     0.014 A 
HETATM   24  C   UNL     1      37.884  -4.662  11.106  1.00  0.00     0.001 A 
HETATM   25  C   UNL     1      37.923  -4.542   9.720  1.00  0.00     0.000 A 
HETATM   26  C   UNL     1      38.507  -5.548   8.951  1.00  0.00     0.001 A 
HETATM   27  C   UNL     1      39.058  -6.674   9.566  1.00  0.00     0.014 A 
ENDBRANCH   1  22
TORSDOF 3
ENDMDL
