MODEL 1
REMARK VINA RESULT:     -10.2      0.000      0.000
REMARK  9 active torsions:
REMARK  status: ('A' for Active; 'I' for Inactive)
REMARK    1  A    between atoms: C_2  and  O_3 
REMARK    2  A    between atoms: O_3  and  C_4 
REMARK    3  A    between atoms: C_7  and  C_8 
REMARK    4  A    between atoms: C_9  and  C_10 
REMARK       I    between atoms: C_10  and  N_11 
REMARK    5  A    between atoms: N_11  and  C_12 
REMARK    6  A    between atoms: C_22  and  S_23 
REMARK    7  A    between atoms: S_23  and  C_24 
REMARK    8  A    between atoms: C_24  and  C_25 
REMARK       I    between atoms: C_25  and  N_26 
REMARK    9  A    between atoms: N_26  and  C_27 
ROOT
HETATM    1  C   UNL     1      43.021 -14.058   4.293  1.00  0.00     0.104 C 
HETATM    2  C   UNL     1      43.153 -15.018   5.477  1.00  0.00     0.046 C 
HETATM    3  C   UNL     1      42.666 -14.696   6.698  1.00  0.00     0.019 C 
HETATM    4  C   UNL     1      42.819 -15.516   7.954  1.00  0.00     0.069 C 
HETATM    5  N   UNL     1      41.992 -13.503   6.854  1.00  0.00    -0.353 N 
HETATM    6  C   UNL     1      41.898 -12.504   5.909  1.00  0.00     0.087 C 
HETATM    7  C   UNL     1      42.470 -12.682   4.697  1.00  0.00     0.055 C 
HETATM    8  C   UNL     1      42.424 -11.594   3.636  1.00  0.00     0.019 C 
HETATM    9  N   UNL     1      42.385 -10.692   2.756  1.00  0.00    -0.096 N 
HETATM   10  H   UNL     1      41.447 -13.348   7.704  1.00  0.00     0.166 HD
ENDROOT
BRANCH   1  11
HETATM   11  C   UNL     1      42.103 -14.619   3.193  1.00  0.00    -0.044 A 
HETATM   12  C   UNL     1      40.753 -14.927   3.445  1.00  0.00     0.011 A 
HETATM   13  C   UNL     1      39.890 -15.266   2.400  1.00  0.00     0.037 A 
HETATM   14  C   UNL     1      40.343 -15.255   1.083  1.00  0.00     0.068 A 
HETATM   15  C   UNL     1      41.690 -15.004   0.827  1.00  0.00     0.037 A 
HETATM   16  C   UNL     1      42.567 -14.692   1.870  1.00  0.00     0.011 A 
BRANCH  14  17
HETATM   17  O   UNL     1      39.563 -15.475  -0.018  1.00  0.00    -0.352 OA
BRANCH  17  18
HETATM   18  C   UNL     1      39.583 -14.446  -1.009  1.00  0.00     0.171 C 
HETATM   19  C   UNL     1      38.944 -14.987  -2.275  1.00  0.00     0.034 C 
ENDBRANCH  17  18
ENDBRANCH  14  17
ENDBRANCH   1  11
BRANCH   6  20
HETATM   20  S   UNL     1      40.978 -11.062   6.296  1.00  0.00    -0.102 SA
BRANCH  20  21
HETATM   21  C   UNL     1      42.312 -10.031   6.997  1.00  0.00     0.184 C 
BRANCH  21  22
HETATM   22  C   UNL     1      41.903  -9.283   8.270  1.00  0.00     0.231 C 
HETATM   23  N   UNL     1      42.194 -10.017   9.415  1.00  0.00    -0.326 N 
HETATM   24  H   UNL     1      42.889 -10.745   9.297  1.00  0.00     0.169 HD
HETATM   25  O   UNL     1      41.400  -8.163   8.248  1.00  0.00    -0.272 OA
BRANCH  23  26
HETATM   26  C   UNL     1      41.905  -9.683  10.761  1.00  0.00     0.040 A 
HETATM   27  C   UNL     1      42.823  -9.244  11.731  1.00  0.00    -0.035 A 
HETATM   28  C   UNL     1      44.261  -8.903  11.460  1.00  0.00     0.050 C 
HETATM   29  C   UNL     1      42.373  -9.038  13.054  1.00  0.00     0.009 A 
HETATM   30  C   UNL     1      41.032  -9.192  13.400  1.00  0.00     0.001 A 
HETATM   31  C   UNL     1      40.111  -9.540  12.424  1.00  0.00     0.002 A 
HETATM   32  C   UNL     1      40.545  -9.769  11.116  1.00  0.00     0.030 A 
ENDBRANCH  23  26
ENDBRANCH  21  22
ENDBRANCH  20  21
ENDBRANCH   6  20
BRANCH   2  33
HETATM   33  C   UNL     1      43.873 -16.294   5.198  1.00  0.00     0.255 C 
HETATM   34  N   UNL     1      43.171 -17.122   4.345  1.00  0.00    -0.323 N 
HETATM   35  H   UNL     1      42.297 -16.764   3.983  1.00  0.00     0.169 HD
HETATM   36  O   UNL     1      44.979 -16.481   5.688  1.00  0.00    -0.268 OA
BRANCH  34  37
HETATM   37  C   UNL     1      43.481 -18.445   3.975  1.00  0.00     0.035 A 
HETATM   38  C   UNL     1      43.902 -19.427   4.870  1.00  0.00     0.029 A 
HETATM   39  C   UNL     1      44.155 -20.728   4.422  1.00  0.00     0.002 A 
HETATM   40  C   UNL     1      43.982 -21.057   3.079  1.00  0.00     0.000 A 
HETATM   41  C   UNL     1      43.563 -20.083   2.178  1.00  0.00     0.002 A 
HETATM   42  C   UNL     1      43.319 -18.781   2.623  1.00  0.00     0.029 A 
ENDBRANCH  34  37
ENDBRANCH   2  33
TORSDOF 9
ENDMDL
MODEL 2
REMARK VINA RESULT:     -10.2      3.394      7.968
REMARK  9 active torsions:
REMARK  status: ('A' for Active; 'I' for Inactive)
REMARK    1  A    between atoms: C_2  and  O_3 
REMARK    2  A    between atoms: O_3  and  C_4 
REMARK    3  A    between atoms: C_7  and  C_8 
REMARK    4  A    between atoms: C_9  and  C_10 
REMARK       I    between atoms: C_10  and  N_11 
REMARK    5  A    between atoms: N_11  and  C_12 
REMARK    6  A    between atoms: C_22  and  S_23 
REMARK    7  A    between atoms: S_23  and  C_24 
REMARK    8  A    between atoms: C_24  and  C_25 
REMARK       I    between atoms: C_25  and  N_26 
REMARK    9  A    between atoms: N_26  and  C_27 
ROOT
HETATM    1  C   UNL     1      40.790 -13.449   5.251  1.00  0.00     0.104 C 
HETATM    2  C   UNL     1      40.703 -14.527   4.169  1.00  0.00     0.046 C 
HETATM    3  C   UNL     1      40.064 -14.296   2.999  1.00  0.00     0.019 C 
HETATM    4  C   UNL     1      39.835 -15.306   1.903  1.00  0.00     0.069 C 
HETATM    5  N   UNL     1      39.531 -13.046   2.766  1.00  0.00    -0.353 N 
HETATM    6  C   UNL     1      39.441 -12.026   3.688  1.00  0.00     0.087 C 
HETATM    7  C   UNL     1      39.937 -12.212   4.932  1.00  0.00     0.055 C 
HETATM    8  C   UNL     1      39.827 -11.130   5.994  1.00  0.00     0.019 C 
HETATM    9  N   UNL     1      39.736 -10.232   6.875  1.00  0.00    -0.096 N 
HETATM   10  H   UNL     1      39.236 -12.801   1.818  1.00  0.00     0.166 HD
ENDROOT
BRANCH   1  11
HETATM   11  C   UNL     1      42.235 -12.969   5.475  1.00  0.00    -0.044 A 
HETATM   12  C   UNL     1      42.884 -12.129   4.552  1.00  0.00     0.011 A 
HETATM   13  C   UNL     1      44.125 -11.561   4.852  1.00  0.00     0.037 A 
HETATM   14  C   UNL     1      44.715 -11.778   6.096  1.00  0.00     0.068 A 
HETATM   15  C   UNL     1      44.106 -12.650   6.997  1.00  0.00     0.037 A 
HETATM   16  C   UNL     1      42.879 -13.246   6.692  1.00  0.00     0.011 A 
BRANCH  14  17
HETATM   17  O   UNL     1      45.873 -11.195   6.528  1.00  0.00    -0.352 OA
BRANCH  17  18
HETATM   18  C   UNL     1      45.882 -10.765   7.891  1.00  0.00     0.171 C 
HETATM   19  C   UNL     1      46.332  -9.317   7.933  1.00  0.00     0.034 C 
ENDBRANCH  17  18
ENDBRANCH  14  17
ENDBRANCH   1  11
BRANCH   6  20
HETATM   20  S   UNL     1      38.741 -10.498   3.189  1.00  0.00    -0.102 SA
BRANCH  20  21
HETATM   21  C   UNL     1      40.255  -9.635   2.643  1.00  0.00     0.184 C 
BRANCH  21  22
HETATM   22  C   UNL     1      40.966 -10.327   1.476  1.00  0.00     0.231 C 
HETATM   23  N   UNL     1      40.087 -10.622   0.439  1.00  0.00    -0.326 N 
HETATM   24  H   UNL     1      39.227 -10.087   0.436  1.00  0.00     0.169 HD
HETATM   25  O   UNL     1      42.172 -10.560   1.478  1.00  0.00    -0.272 OA
BRANCH  23  26
HETATM   26  C   UNL     1      40.362 -11.312  -0.768  1.00  0.00     0.040 A 
HETATM   27  C   UNL     1      40.883 -10.757  -1.950  1.00  0.00    -0.035 A 
HETATM   28  C   UNL     1      41.387  -9.347  -2.088  1.00  0.00     0.050 C 
HETATM   29  C   UNL     1      41.014 -11.579  -3.091  1.00  0.00     0.009 A 
HETATM   30  C   UNL     1      40.706 -12.938  -3.050  1.00  0.00     0.001 A 
HETATM   31  C   UNL     1      40.275 -13.504  -1.860  1.00  0.00     0.002 A 
HETATM   32  C   UNL     1      40.120 -12.698  -0.729  1.00  0.00     0.030 A 
ENDBRANCH  23  26
ENDBRANCH  21  22
ENDBRANCH  20  21
ENDBRANCH   6  20
BRANCH   2  33
HETATM   33  C   UNL     1      41.336 -15.835   4.507  1.00  0.00     0.255 C 
HETATM   34  N   UNL     1      42.269 -16.230   3.570  1.00  0.00    -0.323 N 
HETATM   35  H   UNL     1      42.444 -15.590   2.806  1.00  0.00     0.169 HD
HETATM   36  O   UNL     1      41.024 -16.404   5.545  1.00  0.00    -0.268 OA
BRANCH  34  37
HETATM   37  C   UNL     1      42.955 -17.458   3.497  1.00  0.00     0.035 A 
HETATM   38  C   UNL     1      43.802 -17.939   4.495  1.00  0.00     0.029 A 
HETATM   39  C   UNL     1      44.416 -19.188   4.355  1.00  0.00     0.002 A 
HETATM   40  C   UNL     1      44.183 -19.966   3.223  1.00  0.00     0.000 A 
HETATM   41  C   UNL     1      43.342 -19.493   2.222  1.00  0.00     0.002 A 
HETATM   42  C   UNL     1      42.735 -18.242   2.355  1.00  0.00     0.029 A 
ENDBRANCH  34  37
ENDBRANCH   2  33
TORSDOF 9
ENDMDL
MODEL 3
REMARK VINA RESULT:     -10.0      3.456      8.552
REMARK  9 active torsions:
REMARK  status: ('A' for Active; 'I' for Inactive)
REMARK    1  A    between atoms: C_2  and  O_3 
REMARK    2  A    between atoms: O_3  and  C_4 
REMARK    3  A    between atoms: C_7  and  C_8 
REMARK    4  A    between atoms: C_9  and  C_10 
REMARK       I    between atoms: C_10  and  N_11 
REMARK    5  A    between atoms: N_11  and  C_12 
REMARK    6  A    between atoms: C_22  and  S_23 
REMARK    7  A    between atoms: S_23  and  C_24 
REMARK    8  A    between atoms: C_24  and  C_25 
REMARK       I    between atoms: C_25  and  N_26 
REMARK    9  A    between atoms: N_26  and  C_27 
ROOT
HETATM    1  C   UNL     1      41.622 -12.511   4.107  1.00  0.00     0.104 C 
HETATM    2  C   UNL     1      40.862 -13.687   3.490  1.00  0.00     0.046 C 
HETATM    3  C   UNL     1      40.885 -14.914   4.062  1.00  0.00     0.019 C 
HETATM    4  C   UNL     1      40.255 -16.162   3.498  1.00  0.00     0.069 C 
HETATM    5  N   UNL     1      41.564 -15.083   5.250  1.00  0.00    -0.353 N 
HETATM    6  C   UNL     1      42.376 -14.147   5.852  1.00  0.00     0.087 C 
HETATM    7  C   UNL     1      42.521 -12.930   5.281  1.00  0.00     0.055 C 
HETATM    8  C   UNL     1      43.435 -11.878   5.888  1.00  0.00     0.019 C 
HETATM    9  N   UNL     1      44.193 -11.005   6.392  1.00  0.00    -0.096 N 
HETATM   10  H   UNL     1      41.415 -15.938   5.789  1.00  0.00     0.166 HD
ENDROOT
BRANCH   1  11
HETATM   11  C   UNL     1      40.674 -11.413   4.620  1.00  0.00    -0.044 A 
HETATM   12  C   UNL     1      40.653 -10.130   4.044  1.00  0.00     0.011 A 
HETATM   13  C   UNL     1      39.670  -9.202   4.400  1.00  0.00     0.037 A 
HETATM   14  C   UNL     1      38.663  -9.555   5.295  1.00  0.00     0.068 A 
HETATM   15  C   UNL     1      38.704 -10.805   5.911  1.00  0.00     0.037 A 
HETATM   16  C   UNL     1      39.702 -11.727   5.583  1.00  0.00     0.011 A 
BRANCH  14  17
HETATM   17  O   UNL     1      37.602  -8.762   5.636  1.00  0.00    -0.352 OA
BRANCH  17  18
HETATM   18  C   UNL     1      37.709  -7.387   5.264  1.00  0.00     0.171 C 
HETATM   19  C   UNL     1      37.943  -6.567   6.519  1.00  0.00     0.034 C 
ENDBRANCH  17  18
ENDBRANCH  14  17
ENDBRANCH   1  11
BRANCH   6  20
HETATM   20  S   UNL     1      43.142 -14.552   7.377  1.00  0.00    -0.102 SA
BRANCH  20  21
HETATM   21  C   UNL     1      44.369 -15.768   6.785  1.00  0.00     0.184 C 
BRANCH  21  22
HETATM   22  C   UNL     1      43.740 -17.003   6.132  1.00  0.00     0.231 C 
HETATM   23  N   UNL     1      44.379 -17.338   4.942  1.00  0.00    -0.326 N 
HETATM   24  H   UNL     1      45.314 -16.963   4.834  1.00  0.00     0.169 HD
HETATM   25  O   UNL     1      42.800 -17.613   6.634  1.00  0.00    -0.272 OA
BRANCH  23  26
HETATM   26  C   UNL     1      44.042 -18.370   4.032  1.00  0.00     0.040 A 
HETATM   27  C   UNL     1      43.508 -18.208   2.742  1.00  0.00    -0.035 A 
HETATM   28  C   UNL     1      43.344 -16.889   2.040  1.00  0.00     0.050 C 
HETATM   29  C   UNL     1      43.150 -19.356   2.001  1.00  0.00     0.009 A 
HETATM   30  C   UNL     1      43.380 -20.640   2.491  1.00  0.00     0.001 A 
HETATM   31  C   UNL     1      43.987 -20.801   3.727  1.00  0.00     0.002 A 
HETATM   32  C   UNL     1      44.326 -19.674   4.480  1.00  0.00     0.030 A 
ENDBRANCH  23  26
ENDBRANCH  21  22
ENDBRANCH  20  21
ENDBRANCH   6  20
BRANCH   2  33
HETATM   33  C   UNL     1      40.135 -13.392   2.222  1.00  0.00     0.255 C 
HETATM   34  N   UNL     1      40.919 -13.594   1.103  1.00  0.00    -0.323 N 
HETATM   35  H   UNL     1      41.853 -13.949   1.262  1.00  0.00     0.169 HD
HETATM   36  O   UNL     1      38.961 -13.050   2.266  1.00  0.00    -0.268 OA
BRANCH  34  37
HETATM   37  C   UNL     1      40.608 -13.291  -0.237  1.00  0.00     0.035 A 
HETATM   38  C   UNL     1      40.970 -12.103  -0.871  1.00  0.00     0.029 A 
HETATM   39  C   UNL     1      40.651 -11.899  -2.218  1.00  0.00     0.002 A 
HETATM   40  C   UNL     1      39.976 -12.881  -2.940  1.00  0.00     0.000 A 
HETATM   41  C   UNL     1      39.609 -14.068  -2.314  1.00  0.00     0.002 A 
HETATM   42  C   UNL     1      39.919 -14.269  -0.967  1.00  0.00     0.029 A 
ENDBRANCH  34  37
ENDBRANCH   2  33
TORSDOF 9
ENDMDL
MODEL 4
REMARK VINA RESULT:      -9.8      3.848      8.338
REMARK  9 active torsions:
REMARK  status: ('A' for Active; 'I' for Inactive)
REMARK    1  A    between atoms: C_2  and  O_3 
REMARK    2  A    between atoms: O_3  and  C_4 
REMARK    3  A    between atoms: C_7  and  C_8 
REMARK    4  A    between atoms: C_9  and  C_10 
REMARK       I    between atoms: C_10  and  N_11 
REMARK    5  A    between atoms: N_11  and  C_12 
REMARK    6  A    between atoms: C_22  and  S_23 
REMARK    7  A    between atoms: S_23  and  C_24 
REMARK    8  A    between atoms: C_24  and  C_25 
REMARK       I    between atoms: C_25  and  N_26 
REMARK    9  A    between atoms: N_26  and  C_27 
ROOT
HETATM    1  C   UNL     1      40.363 -13.482   4.211  1.00  0.00     0.104 C 
HETATM    2  C   UNL     1      40.425 -14.665   3.244  1.00  0.00     0.046 C 
HETATM    3  C   UNL     1      39.932 -14.570   1.987  1.00  0.00     0.019 C 
HETATM    4  C   UNL     1      39.854 -15.691   0.981  1.00  0.00     0.069 C 
HETATM    5  N   UNL     1      39.415 -13.364   1.563  1.00  0.00    -0.353 N 
HETATM    6  C   UNL     1      39.197 -12.259   2.358  1.00  0.00     0.087 C 
HETATM    7  C   UNL     1      39.539 -12.306   3.666  1.00  0.00     0.055 C 
HETATM    8  C   UNL     1      39.284 -11.126   4.590  1.00  0.00     0.019 C 
HETATM    9  N   UNL     1      39.072 -10.147   5.356  1.00  0.00    -0.096 N 
HETATM   10  H   UNL     1      39.236 -13.223   0.567  1.00  0.00     0.166 HD
ENDROOT
BRANCH   1  11
HETATM   11  C   UNL     1      41.762 -12.944   4.559  1.00  0.00    -0.044 A 
HETATM   12  C   UNL     1      42.582 -12.342   3.588  1.00  0.00     0.011 A 
HETATM   13  C   UNL     1      43.771 -11.702   3.952  1.00  0.00     0.037 A 
HETATM   14  C   UNL     1      44.134 -11.608   5.293  1.00  0.00     0.068 A 
HETATM   15  C   UNL     1      43.357 -12.248   6.258  1.00  0.00     0.037 A 
HETATM   16  C   UNL     1      42.183 -12.915   5.898  1.00  0.00     0.011 A 
BRANCH  14  17
HETATM   17  O   UNL     1      45.220 -10.925   5.767  1.00  0.00    -0.352 OA
BRANCH  17  18
HETATM   18  C   UNL     1      45.619 -11.242   7.102  1.00  0.00     0.171 C 
HETATM   19  C   UNL     1      46.155  -9.981   7.754  1.00  0.00     0.034 C 
ENDBRANCH  17  18
ENDBRANCH  14  17
ENDBRANCH   1  11
BRANCH   6  20
HETATM   20  S   UNL     1      38.544 -10.807   1.623  1.00  0.00    -0.102 SA
BRANCH  20  21
HETATM   21  C   UNL     1      38.737 -11.247  -0.139  1.00  0.00     0.184 C 
BRANCH  21  22
HETATM   22  C   UNL     1      40.065 -10.783  -0.744  1.00  0.00     0.231 C 
HETATM   23  N   UNL     1      40.020  -9.444  -1.119  1.00  0.00    -0.326 N 
HETATM   24  H   UNL     1      39.293  -8.895  -0.676  1.00  0.00     0.169 HD
HETATM   25  O   UNL     1      41.040 -11.522  -0.851  1.00  0.00    -0.272 OA
BRANCH  23  26
HETATM   26  C   UNL     1      41.027  -8.685  -1.767  1.00  0.00     0.040 A 
HETATM   27  C   UNL     1      41.090  -8.375  -3.136  1.00  0.00    -0.035 A 
HETATM   28  C   UNL     1      40.006  -8.669  -4.135  1.00  0.00     0.050 C 
HETATM   29  C   UNL     1      42.217  -7.677  -3.627  1.00  0.00     0.009 A 
HETATM   30  C   UNL     1      43.226  -7.232  -2.776  1.00  0.00     0.001 A 
HETATM   31  C   UNL     1      43.120  -7.462  -1.413  1.00  0.00     0.002 A 
HETATM   32  C   UNL     1      42.023  -8.170  -0.916  1.00  0.00     0.030 A 
ENDBRANCH  23  26
ENDBRANCH  21  22
ENDBRANCH  20  21
ENDBRANCH   6  20
BRANCH   2  33
HETATM   33  C   UNL     1      41.029 -15.915   3.789  1.00  0.00     0.255 C 
HETATM   34  N   UNL     1      42.182 -16.281   3.124  1.00  0.00    -0.323 N 
HETATM   35  H   UNL     1      42.501 -15.657   2.394  1.00  0.00     0.169 HD
HETATM   36  O   UNL     1      40.507 -16.467   4.749  1.00  0.00    -0.268 OA
BRANCH  34  37
HETATM   37  C   UNL     1      42.933 -17.462   3.279  1.00  0.00     0.035 A 
HETATM   38  C   UNL     1      43.745 -17.731   4.380  1.00  0.00     0.029 A 
HETATM   39  C   UNL     1      44.429 -18.947   4.470  1.00  0.00     0.002 A 
HETATM   40  C   UNL     1      44.301 -19.905   3.466  1.00  0.00     0.000 A 
HETATM   41  C   UNL     1      43.495 -19.644   2.362  1.00  0.00     0.002 A 
HETATM   42  C   UNL     1      42.818 -18.426   2.267  1.00  0.00     0.029 A 
ENDBRANCH  34  37
ENDBRANCH   2  33
TORSDOF 9
ENDMDL
MODEL 5
REMARK VINA RESULT:      -9.7      2.090      5.339
REMARK  9 active torsions:
REMARK  status: ('A' for Active; 'I' for Inactive)
REMARK    1  A    between atoms: C_2  and  O_3 
REMARK    2  A    between atoms: O_3  and  C_4 
REMARK    3  A    between atoms: C_7  and  C_8 
REMARK    4  A    between atoms: C_9  and  C_10 
REMARK       I    between atoms: C_10  and  N_11 
REMARK    5  A    between atoms: N_11  and  C_12 
REMARK    6  A    between atoms: C_22  and  S_23 
REMARK    7  A    between atoms: S_23  and  C_24 
REMARK    8  A    between atoms: C_24  and  C_25 
REMARK       I    between atoms: C_25  and  N_26 
REMARK    9  A    between atoms: N_26  and  C_27 
ROOT
HETATM    1  C   UNL     1      41.099 -13.780   4.452  1.00  0.00     0.104 C 
HETATM    2  C   UNL     1      40.826 -12.509   3.645  1.00  0.00     0.046 C 
HETATM    3  C   UNL     1      41.491 -11.359   3.903  1.00  0.00     0.019 C 
HETATM    4  C   UNL     1      41.243 -10.028   3.240  1.00  0.00     0.069 C 
HETATM    5  N   UNL     1      42.468 -11.357   4.876  1.00  0.00    -0.353 N 
HETATM    6  C   UNL     1      42.736 -12.391   5.747  1.00  0.00     0.087 C 
HETATM    7  C   UNL     1      42.029 -13.539   5.651  1.00  0.00     0.055 C 
HETATM    8  C   UNL     1      42.263 -14.693   6.613  1.00  0.00     0.019 C 
HETATM    9  N   UNL     1      42.458 -15.650   7.411  1.00  0.00    -0.096 N 
HETATM   10  H   UNL     1      43.111 -10.565   4.933  1.00  0.00     0.166 HD
ENDROOT
BRANCH   1  11
HETATM   11  C   UNL     1      41.731 -14.888   3.592  1.00  0.00    -0.044 A 
HETATM   12  C   UNL     1      42.935 -14.683   2.894  1.00  0.00     0.011 A 
HETATM   13  C   UNL     1      43.586 -15.746   2.263  1.00  0.00     0.037 A 
HETATM   14  C   UNL     1      43.077 -17.039   2.360  1.00  0.00     0.068 A 
HETATM   15  C   UNL     1      41.856 -17.245   3.004  1.00  0.00     0.037 A 
HETATM   16  C   UNL     1      41.184 -16.181   3.611  1.00  0.00     0.011 A 
BRANCH  14  17
HETATM   17  O   UNL     1      43.681 -18.161   1.867  1.00  0.00    -0.352 OA
BRANCH  17  18
HETATM   18  C   UNL     1      43.756 -19.272   2.763  1.00  0.00     0.171 C 
HETATM   19  C   UNL     1      43.561 -20.547   1.963  1.00  0.00     0.034 C 
ENDBRANCH  17  18
ENDBRANCH  14  17
ENDBRANCH   1  11
BRANCH   6  20
HETATM   20  S   UNL     1      44.037 -12.199   6.908  1.00  0.00    -0.102 SA
BRANCH  20  21
HETATM   21  C   UNL     1      43.734 -10.472   7.419  1.00  0.00     0.184 C 
BRANCH  21  22
HETATM   22  C   UNL     1      43.969 -10.225   8.912  1.00  0.00     0.231 C 
HETATM   23  N   UNL     1      42.909  -9.538   9.494  1.00  0.00    -0.326 N 
HETATM   24  H   UNL     1      42.036  -9.578   8.984  1.00  0.00     0.169 HD
HETATM   25  O   UNL     1      44.974 -10.618   9.499  1.00  0.00    -0.272 OA
BRANCH  23  26
HETATM   26  C   UNL     1      42.797  -9.077  10.830  1.00  0.00     0.040 A 
HETATM   27  C   UNL     1      42.840  -7.739  11.260  1.00  0.00    -0.035 A 
HETATM   28  C   UNL     1      42.858  -6.544  10.350  1.00  0.00     0.050 C 
HETATM   29  C   UNL     1      42.798  -7.466  12.646  1.00  0.00     0.009 A 
HETATM   30  C   UNL     1      42.646  -8.484  13.585  1.00  0.00     0.001 A 
HETATM   31  C   UNL     1      42.516  -9.796  13.155  1.00  0.00     0.002 A 
HETATM   32  C   UNL     1      42.578 -10.083  11.790  1.00  0.00     0.030 A 
ENDBRANCH  23  26
ENDBRANCH  21  22
ENDBRANCH  20  21
ENDBRANCH   6  20
BRANCH   2  33
HETATM   33  C   UNL     1      39.772 -12.623   2.596  1.00  0.00     0.255 C 
HETATM   34  N   UNL     1      40.273 -13.062   1.387  1.00  0.00    -0.323 N 
HETATM   35  H   UNL     1      41.259 -13.291   1.360  1.00  0.00     0.169 HD
HETATM   36  O   UNL     1      38.609 -12.369   2.880  1.00  0.00    -0.268 OA
BRANCH  34  37
HETATM   37  C   UNL     1      39.599 -13.156   0.154  1.00  0.00     0.035 A 
HETATM   38  C   UNL     1      38.824 -12.133  -0.391  1.00  0.00     0.029 A 
HETATM   39  C   UNL     1      38.217 -12.299  -1.640  1.00  0.00     0.002 A 
HETATM   40  C   UNL     1      38.386 -13.483  -2.355  1.00  0.00     0.000 A 
HETATM   41  C   UNL     1      39.156 -14.509  -1.818  1.00  0.00     0.002 A 
HETATM   42  C   UNL     1      39.755 -14.349  -0.567  1.00  0.00     0.029 A 
ENDBRANCH  34  37
ENDBRANCH   2  33
TORSDOF 9
ENDMDL
MODEL 6
REMARK VINA RESULT:      -9.5      4.127      7.821
REMARK  9 active torsions:
REMARK  status: ('A' for Active; 'I' for Inactive)
REMARK    1  A    between atoms: C_2  and  O_3 
REMARK    2  A    between atoms: O_3  and  C_4 
REMARK    3  A    between atoms: C_7  and  C_8 
REMARK    4  A    between atoms: C_9  and  C_10 
REMARK       I    between atoms: C_10  and  N_11 
REMARK    5  A    between atoms: N_11  and  C_12 
REMARK    6  A    between atoms: C_22  and  S_23 
REMARK    7  A    between atoms: S_23  and  C_24 
REMARK    8  A    between atoms: C_24  and  C_25 
REMARK       I    between atoms: C_25  and  N_26 
REMARK    9  A    between atoms: N_26  and  C_27 
ROOT
HETATM    1  C   UNL     1      39.985 -12.875   3.596  1.00  0.00     0.104 C 
HETATM    2  C   UNL     1      40.247 -14.094   2.709  1.00  0.00     0.046 C 
HETATM    3  C   UNL     1      39.960 -14.074   1.387  1.00  0.00     0.019 C 
HETATM    4  C   UNL     1      40.087 -15.239   0.438  1.00  0.00     0.069 C 
HETATM    5  N   UNL     1      39.472 -12.911   0.828  1.00  0.00    -0.353 N 
HETATM    6  C   UNL     1      39.088 -11.785   1.523  1.00  0.00     0.087 C 
HETATM    7  C   UNL     1      39.216 -11.761   2.869  1.00  0.00     0.055 C 
HETATM    8  C   UNL     1      38.771 -10.556   3.682  1.00  0.00     0.019 C 
HETATM    9  N   UNL     1      38.402  -9.556   4.356  1.00  0.00    -0.096 N 
HETATM   10  H   UNL     1      39.451 -12.821  -0.190  1.00  0.00     0.166 HD
ENDROOT
BRANCH   1  11
HETATM   11  C   UNL     1      41.289 -12.260   4.135  1.00  0.00    -0.044 A 
HETATM   12  C   UNL     1      41.560 -12.201   5.514  1.00  0.00     0.011 A 
HETATM   13  C   UNL     1      42.817 -11.803   5.979  1.00  0.00     0.037 A 
HETATM   14  C   UNL     1      43.838 -11.507   5.079  1.00  0.00     0.068 A 
HETATM   15  C   UNL     1      43.564 -11.510   3.711  1.00  0.00     0.037 A 
HETATM   16  C   UNL     1      42.301 -11.879   3.240  1.00  0.00     0.011 A 
BRANCH  14  17
HETATM   17  O   UNL     1      45.125 -11.203   5.423  1.00  0.00    -0.352 OA
BRANCH  17  18
HETATM   18  C   UNL     1      45.524 -11.590   6.739  1.00  0.00     0.171 C 
HETATM   19  C   UNL     1      46.203 -10.406   7.402  1.00  0.00     0.034 C 
ENDBRANCH  17  18
ENDBRANCH  14  17
ENDBRANCH   1  11
BRANCH   6  20
HETATM   20  S   UNL     1      38.507 -10.397   0.623  1.00  0.00    -0.102 SA
BRANCH  20  21
HETATM   21  C   UNL     1      39.775 -10.334  -0.689  1.00  0.00     0.184 C 
BRANCH  21  22
HETATM   22  C   UNL     1      41.004  -9.499  -0.313  1.00  0.00     0.231 C 
HETATM   23  N   UNL     1      40.957  -8.230  -0.882  1.00  0.00    -0.326 N 
HETATM   24  H   UNL     1      40.038  -7.919  -1.171  1.00  0.00     0.169 HD
HETATM   25  O   UNL     1      41.894  -9.921   0.420  1.00  0.00    -0.272 OA
BRANCH  23  26
HETATM   26  C   UNL     1      41.937  -7.208  -0.814  1.00  0.00     0.040 A 
HETATM   27  C   UNL     1      41.967  -6.137   0.096  1.00  0.00    -0.035 A 
HETATM   28  C   UNL     1      41.038  -5.977   1.266  1.00  0.00     0.050 C 
HETATM   29  C   UNL     1      42.977  -5.157  -0.036  1.00  0.00     0.009 A 
HETATM   30  C   UNL     1      43.978  -5.268  -0.999  1.00  0.00     0.001 A 
HETATM   31  C   UNL     1      43.997  -6.370  -1.840  1.00  0.00     0.002 A 
HETATM   32  C   UNL     1      42.993  -7.335  -1.736  1.00  0.00     0.030 A 
ENDBRANCH  23  26
ENDBRANCH  21  22
ENDBRANCH  20  21
ENDBRANCH   6  20
BRANCH   2  33
HETATM   33  C   UNL     1      40.803 -15.291   3.405  1.00  0.00     0.255 C 
HETATM   34  N   UNL     1      42.112 -15.548   3.052  1.00  0.00    -0.323 N 
HETATM   35  H   UNL     1      42.548 -14.893   2.417  1.00  0.00     0.169 HD
HETATM   36  O   UNL     1      40.108 -15.895   4.211  1.00  0.00    -0.268 OA
BRANCH  34  37
HETATM   37  C   UNL     1      42.900 -16.661   3.405  1.00  0.00     0.035 A 
HETATM   38  C   UNL     1      43.554 -16.797   4.630  1.00  0.00     0.029 A 
HETATM   39  C   UNL     1      44.288 -17.953   4.911  1.00  0.00     0.002 A 
HETATM   40  C   UNL     1      44.369 -18.983   3.976  1.00  0.00     0.000 A 
HETATM   41  C   UNL     1      43.722 -18.855   2.751  1.00  0.00     0.002 A 
HETATM   42  C   UNL     1      42.995 -17.697   2.465  1.00  0.00     0.029 A 
ENDBRANCH  34  37
ENDBRANCH   2  33
TORSDOF 9
ENDMDL
MODEL 7
REMARK VINA RESULT:      -9.3      2.486      3.373
REMARK  9 active torsions:
REMARK  status: ('A' for Active; 'I' for Inactive)
REMARK    1  A    between atoms: C_2  and  O_3 
REMARK    2  A    between atoms: O_3  and  C_4 
REMARK    3  A    between atoms: C_7  and  C_8 
REMARK    4  A    between atoms: C_9  and  C_10 
REMARK       I    between atoms: C_10  and  N_11 
REMARK    5  A    between atoms: N_11  and  C_12 
REMARK    6  A    between atoms: C_22  and  S_23 
REMARK    7  A    between atoms: S_23  and  C_24 
REMARK    8  A    between atoms: C_24  and  C_25 
REMARK       I    between atoms: C_25  and  N_26 
REMARK    9  A    between atoms: N_26  and  C_27 
ROOT
HETATM    1  C   UNL     1      41.522 -12.167   3.331  1.00  0.00     0.104 C 
HETATM    2  C   UNL     1      41.614 -13.469   4.130  1.00  0.00     0.046 C 
HETATM    3  C   UNL     1      40.909 -13.642   5.272  1.00  0.00     0.019 C 
HETATM    4  C   UNL     1      40.989 -14.837   6.187  1.00  0.00     0.069 C 
HETATM    5  N   UNL     1      40.054 -12.642   5.685  1.00  0.00    -0.353 N 
HETATM    6  C   UNL     1      39.957 -11.386   5.128  1.00  0.00     0.087 C 
HETATM    7  C   UNL     1      40.724 -11.074   4.058  1.00  0.00     0.055 C 
HETATM    8  C   UNL     1      40.679  -9.690   3.432  1.00  0.00     0.019 C 
HETATM    9  N   UNL     1      40.642  -8.541   2.913  1.00  0.00    -0.096 N 
HETATM   10  H   UNL     1      39.371 -12.845   6.418  1.00  0.00     0.166 HD
ENDROOT
BRANCH   1  11
HETATM   11  C   UNL     1      40.869 -12.378   1.954  1.00  0.00    -0.044 A 
HETATM   12  C   UNL     1      41.352 -11.729   0.803  1.00  0.00     0.011 A 
HETATM   13  C   UNL     1      40.865 -12.063  -0.464  1.00  0.00     0.037 A 
HETATM   14  C   UNL     1      39.928 -13.083  -0.609  1.00  0.00     0.068 A 
HETATM   15  C   UNL     1      39.403 -13.695   0.529  1.00  0.00     0.037 A 
HETATM   16  C   UNL     1      39.864 -13.346   1.801  1.00  0.00     0.011 A 
BRANCH  14  17
HETATM   17  O   UNL     1      39.458 -13.554  -1.804  1.00  0.00    -0.352 OA
BRANCH  17  18
HETATM   18  C   UNL     1      38.053 -13.408  -2.020  1.00  0.00     0.171 C 
HETATM   19  C   UNL     1      37.791 -12.006  -2.540  1.00  0.00     0.034 C 
ENDBRANCH  17  18
ENDBRANCH  14  17
ENDBRANCH   1  11
BRANCH   6  20
HETATM   20  S   UNL     1      38.790 -10.257   5.791  1.00  0.00    -0.102 SA
BRANCH  20  21
HETATM   21  C   UNL     1      39.649  -9.808   7.339  1.00  0.00     0.184 C 
BRANCH  21  22
HETATM   22  C   UNL     1      41.076  -9.294   7.121  1.00  0.00     0.231 C 
HETATM   23  N   UNL     1      42.019 -10.125   7.715  1.00  0.00    -0.326 N 
HETATM   24  H   UNL     1      41.703 -11.067   7.911  1.00  0.00     0.169 HD
HETATM   25  O   UNL     1      41.323  -8.278   6.477  1.00  0.00    -0.272 OA
BRANCH  23  26
HETATM   26  C   UNL     1      43.423  -9.943   7.781  1.00  0.00     0.040 A 
HETATM   27  C   UNL     1      44.403 -10.762   7.192  1.00  0.00    -0.035 A 
HETATM   28  C   UNL     1      44.119 -11.899   6.251  1.00  0.00     0.050 C 
HETATM   29  C   UNL     1      45.765 -10.478   7.434  1.00  0.00     0.009 A 
HETATM   30  C   UNL     1      46.158  -9.369   8.181  1.00  0.00     0.001 A 
HETATM   31  C   UNL     1      45.193  -8.512   8.688  1.00  0.00     0.002 A 
HETATM   32  C   UNL     1      43.841  -8.792   8.476  1.00  0.00     0.030 A 
ENDBRANCH  23  26
ENDBRANCH  21  22
ENDBRANCH  20  21
ENDBRANCH   6  20
BRANCH   2  33
HETATM   33  C   UNL     1      42.545 -14.498   3.583  1.00  0.00     0.255 C 
HETATM   34  N   UNL     1      42.121 -15.786   3.842  1.00  0.00    -0.323 N 
HETATM   35  H   UNL     1      41.234 -15.885   4.319  1.00  0.00     0.169 HD
HETATM   36  O   UNL     1      43.533 -14.143   2.955  1.00  0.00    -0.268 OA
BRANCH  34  37
HETATM   37  C   UNL     1      42.810 -16.990   3.595  1.00  0.00     0.035 A 
HETATM   38  C   UNL     1      43.783 -17.519   4.441  1.00  0.00     0.029 A 
HETATM   39  C   UNL     1      44.393 -18.740   4.136  1.00  0.00     0.002 A 
HETATM   40  C   UNL     1      44.031 -19.443   2.989  1.00  0.00     0.000 A 
HETATM   41  C   UNL     1      43.062 -18.921   2.138  1.00  0.00     0.002 A 
HETATM   42  C   UNL     1      42.458 -17.697   2.436  1.00  0.00     0.029 A 
ENDBRANCH  34  37
ENDBRANCH   2  33
TORSDOF 9
ENDMDL
MODEL 8
REMARK VINA RESULT:      -9.3      4.005      9.230
REMARK  9 active torsions:
REMARK  status: ('A' for Active; 'I' for Inactive)
REMARK    1  A    between atoms: C_2  and  O_3 
REMARK    2  A    between atoms: O_3  and  C_4 
REMARK    3  A    between atoms: C_7  and  C_8 
REMARK    4  A    between atoms: C_9  and  C_10 
REMARK       I    between atoms: C_10  and  N_11 
REMARK    5  A    between atoms: N_11  and  C_12 
REMARK    6  A    between atoms: C_22  and  S_23 
REMARK    7  A    between atoms: S_23  and  C_24 
REMARK    8  A    between atoms: C_24  and  C_25 
REMARK       I    between atoms: C_25  and  N_26 
REMARK    9  A    between atoms: N_26  and  C_27 
ROOT
HETATM    1  C   UNL     1      40.286 -12.951   3.406  1.00  0.00     0.104 C 
HETATM    2  C   UNL     1      40.356 -14.102   2.401  1.00  0.00     0.046 C 
HETATM    3  C   UNL     1      40.045 -13.915   1.097  1.00  0.00     0.019 C 
HETATM    4  C   UNL     1      39.988 -14.988   0.039  1.00  0.00     0.069 C 
HETATM    5  N   UNL     1      39.712 -12.648   0.667  1.00  0.00    -0.353 N 
HETATM    6  C   UNL     1      39.503 -11.553   1.477  1.00  0.00     0.087 C 
HETATM    7  C   UNL     1      39.663 -11.677   2.814  1.00  0.00     0.055 C 
HETATM    8  C   UNL     1      39.408 -10.508   3.751  1.00  0.00     0.019 C 
HETATM    9  N   UNL     1      39.196  -9.537   4.528  1.00  0.00    -0.096 N 
HETATM   10  H   UNL     1      39.681 -12.457  -0.337  1.00  0.00     0.166 HD
ENDROOT
BRANCH   1  11
HETATM   11  C   UNL     1      41.674 -12.575   3.954  1.00  0.00    -0.044 A 
HETATM   12  C   UNL     1      42.702 -12.123   3.108  1.00  0.00     0.011 A 
HETATM   13  C   UNL     1      43.894 -11.620   3.637  1.00  0.00     0.037 A 
HETATM   14  C   UNL     1      44.060 -11.511   5.015  1.00  0.00     0.068 A 
HETATM   15  C   UNL     1      43.069 -12.006   5.863  1.00  0.00     0.037 A 
HETATM   16  C   UNL     1      41.887 -12.538   5.341  1.00  0.00     0.011 A 
BRANCH  14  17
HETATM   17  O   UNL     1      45.140 -10.947   5.635  1.00  0.00    -0.352 OA
BRANCH  17  18
HETATM   18  C   UNL     1      45.479 -11.493   6.911  1.00  0.00     0.171 C 
HETATM   19  C   UNL     1      46.012 -10.373   7.785  1.00  0.00     0.034 C 
ENDBRANCH  17  18
ENDBRANCH  14  17
ENDBRANCH   1  11
BRANCH   6  20
HETATM   20  S   UNL     1      39.101 -10.017   0.731  1.00  0.00    -0.102 SA
BRANCH  20  21
HETATM   21  C   UNL     1      39.020 -10.541  -1.016  1.00  0.00     0.184 C 
BRANCH  21  22
HETATM   22  C   UNL     1      37.658 -11.116  -1.420  1.00  0.00     0.231 C 
HETATM   23  N   UNL     1      36.861 -10.162  -2.045  1.00  0.00    -0.326 N 
HETATM   24  H   UNL     1      37.359  -9.368  -2.429  1.00  0.00     0.169 HD
HETATM   25  O   UNL     1      37.347 -12.287  -1.220  1.00  0.00    -0.272 OA
BRANCH  23  26
HETATM   26  C   UNL     1      35.525 -10.303  -2.496  1.00  0.00     0.040 A 
HETATM   27  C   UNL     1      34.389  -9.678  -1.954  1.00  0.00    -0.035 A 
HETATM   28  C   UNL     1      34.416  -8.622  -0.886  1.00  0.00     0.050 C 
HETATM   29  C   UNL     1      33.117 -10.001  -2.478  1.00  0.00     0.009 A 
HETATM   30  C   UNL     1      32.973 -10.866  -3.561  1.00  0.00     0.001 A 
HETATM   31  C   UNL     1      34.101 -11.414  -4.152  1.00  0.00     0.002 A 
HETATM   32  C   UNL     1      35.364 -11.122  -3.630  1.00  0.00     0.030 A 
ENDBRANCH  23  26
ENDBRANCH  21  22
ENDBRANCH  20  21
ENDBRANCH   6  20
BRANCH   2  33
HETATM   33  C   UNL     1      40.754 -15.426   2.961  1.00  0.00     0.255 C 
HETATM   34  N   UNL     1      42.104 -15.678   2.816  1.00  0.00    -0.323 N 
HETATM   35  H   UNL     1      42.660 -14.943   2.400  1.00  0.00     0.169 HD
HETATM   36  O   UNL     1      39.912 -16.128   3.504  1.00  0.00    -0.268 OA
BRANCH  34  37
HETATM   37  C   UNL     1      42.797 -16.870   3.104  1.00  0.00     0.035 A 
HETATM   38  C   UNL     1      42.827 -17.978   2.259  1.00  0.00     0.029 A 
HETATM   39  C   UNL     1      43.571 -19.110   2.607  1.00  0.00     0.002 A 
HETATM   40  C   UNL     1      44.294 -19.140   3.798  1.00  0.00     0.000 A 
HETATM   41  C   UNL     1      44.268 -18.039   4.649  1.00  0.00     0.002 A 
HETATM   42  C   UNL     1      43.518 -16.912   4.306  1.00  0.00     0.029 A 
ENDBRANCH  34  37
ENDBRANCH   2  33
TORSDOF 9
ENDMDL
MODEL 9
REMARK VINA RESULT:      -9.1      2.666     10.039
REMARK  9 active torsions:
REMARK  status: ('A' for Active; 'I' for Inactive)
REMARK    1  A    between atoms: C_2  and  O_3 
REMARK    2  A    between atoms: O_3  and  C_4 
REMARK    3  A    between atoms: C_7  and  C_8 
REMARK    4  A    between atoms: C_9  and  C_10 
REMARK       I    between atoms: C_10  and  N_11 
REMARK    5  A    between atoms: N_11  and  C_12 
REMARK    6  A    between atoms: C_22  and  S_23 
REMARK    7  A    between atoms: S_23  and  C_24 
REMARK    8  A    between atoms: C_24  and  C_25 
REMARK       I    between atoms: C_25  and  N_26 
REMARK    9  A    between atoms: N_26  and  C_27 
ROOT
HETATM    1  C   UNL     1      41.945 -10.224   7.214  1.00  0.00     0.104 C 
HETATM    2  C   UNL     1      43.368  -9.899   7.670  1.00  0.00     0.046 C 
HETATM    3  C   UNL     1      44.427 -10.617   7.228  1.00  0.00     0.019 C 
HETATM    4  C   UNL     1      45.856 -10.451   7.677  1.00  0.00     0.069 C 
HETATM    5  N   UNL     1      44.213 -11.622   6.308  1.00  0.00    -0.353 N 
HETATM    6  C   UNL     1      42.983 -12.090   5.900  1.00  0.00     0.087 C 
HETATM    7  C   UNL     1      41.860 -11.518   6.391  1.00  0.00     0.055 C 
HETATM    8  C   UNL     1      40.482 -12.024   5.999  1.00  0.00     0.019 C 
HETATM    9  N   UNL     1      39.337 -12.444   5.673  1.00  0.00    -0.096 N 
HETATM   10  H   UNL     1      45.014 -12.024   5.817  1.00  0.00     0.166 HD
ENDROOT
BRANCH   1  11
HETATM   11  C   UNL     1      41.338  -9.095   6.362  1.00  0.00    -0.044 A 
HETATM   12  C   UNL     1      41.767  -8.854   5.044  1.00  0.00     0.011 A 
HETATM   13  C   UNL     1      41.089  -7.946   4.226  1.00  0.00     0.037 A 
HETATM   14  C   UNL     1      39.944  -7.302   4.690  1.00  0.00     0.068 A 
HETATM   15  C   UNL     1      39.542  -7.492   6.011  1.00  0.00     0.037 A 
HETATM   16  C   UNL     1      40.232  -8.376   6.845  1.00  0.00     0.011 A 
BRANCH  14  17
HETATM   17  O   UNL     1      39.153  -6.473   3.945  1.00  0.00    -0.352 OA
BRANCH  17  18
HETATM   18  C   UNL     1      38.721  -6.992   2.686  1.00  0.00     0.171 C 
HETATM   19  C   UNL     1      37.357  -7.630   2.873  1.00  0.00     0.034 C 
ENDBRANCH  17  18
ENDBRANCH  14  17
ENDBRANCH   1  11
BRANCH   6  20
HETATM   20  S   UNL     1      42.923 -13.370   4.703  1.00  0.00    -0.102 SA
BRANCH  20  21
HETATM   21  C   UNL     1      43.012 -14.821   5.808  1.00  0.00     0.184 C 
BRANCH  21  22
HETATM   22  C   UNL     1      42.605 -16.133   5.129  1.00  0.00     0.231 C 
HETATM   23  N   UNL     1      43.706 -16.948   4.882  1.00  0.00    -0.326 N 
HETATM   24  H   UNL     1      44.528 -16.744   5.438  1.00  0.00     0.169 HD
HETATM   25  O   UNL     1      41.438 -16.411   4.867  1.00  0.00    -0.272 OA
BRANCH  23  26
HETATM   26  C   UNL     1      43.733 -18.198   4.216  1.00  0.00     0.040 A 
HETATM   27  C   UNL     1      43.482 -18.427   2.852  1.00  0.00    -0.035 A 
HETATM   28  C   UNL     1      43.290 -17.349   1.822  1.00  0.00     0.050 C 
HETATM   29  C   UNL     1      43.468 -19.756   2.373  1.00  0.00     0.009 A 
HETATM   30  C   UNL     1      43.765 -20.833   3.205  1.00  0.00     0.001 A 
HETATM   31  C   UNL     1      44.098 -20.601   4.531  1.00  0.00     0.002 A 
HETATM   32  C   UNL     1      44.094 -19.294   5.024  1.00  0.00     0.030 A 
ENDBRANCH  23  26
ENDBRANCH  21  22
ENDBRANCH  20  21
ENDBRANCH   6  20
BRANCH   2  33
HETATM   33  C   UNL     1      43.495  -8.776   8.644  1.00  0.00     0.255 C 
HETATM   34  N   UNL     1      43.011  -9.102   9.895  1.00  0.00    -0.323 N 
HETATM   35  H   UNL     1      42.676 -10.048  10.019  1.00  0.00     0.169 HD
HETATM   36  O   UNL     1      44.018  -7.728   8.289  1.00  0.00    -0.268 OA
BRANCH  34  37
HETATM   37  C   UNL     1      42.849  -8.253  11.007  1.00  0.00     0.035 A 
HETATM   38  C   UNL     1      43.452  -8.468  12.246  1.00  0.00     0.029 A 
HETATM   39  C   UNL     1      43.265  -7.554  13.288  1.00  0.00     0.002 A 
HETATM   40  C   UNL     1      42.481  -6.418  13.097  1.00  0.00     0.000 A 
HETATM   41  C   UNL     1      41.873  -6.197  11.866  1.00  0.00     0.002 A 
HETATM   42  C   UNL     1      42.052  -7.114  10.827  1.00  0.00     0.029 A 
ENDBRANCH  34  37
ENDBRANCH   2  33
TORSDOF 9
ENDMDL
MODEL 10
REMARK VINA RESULT:      -8.7      2.999     11.325
REMARK  9 active torsions:
REMARK  status: ('A' for Active; 'I' for Inactive)
REMARK    1  A    between atoms: C_2  and  O_3 
REMARK    2  A    between atoms: O_3  and  C_4 
REMARK    3  A    between atoms: C_7  and  C_8 
REMARK    4  A    between atoms: C_9  and  C_10 
REMARK       I    between atoms: C_10  and  N_11 
REMARK    5  A    between atoms: N_11  and  C_12 
REMARK    6  A    between atoms: C_22  and  S_23 
REMARK    7  A    between atoms: S_23  and  C_24 
REMARK    8  A    between atoms: C_24  and  C_25 
REMARK       I    between atoms: C_25  and  N_26 
REMARK    9  A    between atoms: N_26  and  C_27 
ROOT
HETATM    1  C   UNL     1      42.867  -9.062   7.376  1.00  0.00     0.104 C 
HETATM    2  C   UNL     1      41.756  -8.066   7.037  1.00  0.00     0.046 C 
HETATM    3  C   UNL     1      40.651  -8.453   6.358  1.00  0.00     0.019 C 
HETATM    4  C   UNL     1      39.540  -7.548   5.889  1.00  0.00     0.069 C 
HETATM    5  N   UNL     1      40.510  -9.782   6.016  1.00  0.00    -0.353 N 
HETATM    6  C   UNL     1      41.474 -10.755   6.159  1.00  0.00     0.087 C 
HETATM    7  C   UNL     1      42.666 -10.432   6.710  1.00  0.00     0.055 C 
HETATM    8  C   UNL     1      43.774 -11.463   6.854  1.00  0.00     0.019 C 
HETATM    9  N   UNL     1      44.693 -12.319   6.974  1.00  0.00    -0.096 N 
HETATM   10  H   UNL     1      39.600 -10.117   5.694  1.00  0.00     0.166 HD
ENDROOT
BRANCH   1  11
HETATM   11  C   UNL     1      42.991  -9.298   8.891  1.00  0.00    -0.044 A 
HETATM   12  C   UNL     1      44.192  -9.047   9.580  1.00  0.00     0.011 A 
HETATM   13  C   UNL     1      44.239  -9.097  10.977  1.00  0.00     0.037 A 
HETATM   14  C   UNL     1      43.082  -9.347  11.710  1.00  0.00     0.068 A 
HETATM   15  C   UNL     1      41.899  -9.651  11.036  1.00  0.00     0.037 A 
HETATM   16  C   UNL     1      41.851  -9.631   9.639  1.00  0.00     0.011 A 
BRANCH  14  17
HETATM   17  O   UNL     1      42.995  -9.323  13.074  1.00  0.00    -0.352 OA
BRANCH  17  18
HETATM   18  C   UNL     1      42.250  -8.238  13.630  1.00  0.00     0.171 C 
HETATM   19  C   UNL     1      43.222  -7.136  14.011  1.00  0.00     0.034 C 
ENDBRANCH  17  18
ENDBRANCH  14  17
ENDBRANCH   1  11
BRANCH   6  20
HETATM   20  S   UNL     1      41.092 -12.397   5.677  1.00  0.00    -0.102 SA
BRANCH  20  21
HETATM   21  C   UNL     1      41.584 -12.319   3.920  1.00  0.00     0.184 C 
BRANCH  21  22
HETATM   22  C   UNL     1      42.502 -13.468   3.489  1.00  0.00     0.231 C 
HETATM   23  N   UNL     1      42.089 -14.685   4.022  1.00  0.00    -0.326 N 
HETATM   24  H   UNL     1      41.123 -14.718   4.326  1.00  0.00     0.169 HD
HETATM   25  O   UNL     1      43.466 -13.304   2.746  1.00  0.00    -0.272 OA
BRANCH  23  26
HETATM   26  C   UNL     1      42.718 -15.948   3.900  1.00  0.00     0.040 A 
HETATM   27  C   UNL     1      43.616 -16.528   4.814  1.00  0.00    -0.035 A 
HETATM   28  C   UNL     1      43.948 -15.966   6.167  1.00  0.00     0.050 C 
HETATM   29  C   UNL     1      44.217 -17.765   4.489  1.00  0.00     0.009 A 
HETATM   30  C   UNL     1      43.888 -18.451   3.322  1.00  0.00     0.001 A 
HETATM   31  C   UNL     1      42.937 -17.921   2.464  1.00  0.00     0.002 A 
HETATM   32  C   UNL     1      42.351 -16.688   2.761  1.00  0.00     0.030 A 
ENDBRANCH  23  26
ENDBRANCH  21  22
ENDBRANCH  20  21
ENDBRANCH   6  20
BRANCH   2  33
HETATM   33  C   UNL     1      41.992  -6.660   7.477  1.00  0.00     0.255 C 
HETATM   34  N   UNL     1      41.696  -6.466   8.811  1.00  0.00    -0.323 N 
HETATM   35  H   UNL     1      41.404  -7.280   9.334  1.00  0.00     0.169 HD
HETATM   36  O   UNL     1      42.436  -5.847   6.678  1.00  0.00    -0.268 OA
BRANCH  34  37
HETATM   37  C   UNL     1      41.672  -5.251   9.523  1.00  0.00     0.035 A 
HETATM   38  C   UNL     1      42.680  -4.837  10.393  1.00  0.00     0.029 A 
HETATM   39  C   UNL     1      42.592  -3.596  11.033  1.00  0.00     0.002 A 
HETATM   40  C   UNL     1      41.502  -2.759  10.803  1.00  0.00     0.000 A 
HETATM   41  C   UNL     1      40.491  -3.165   9.938  1.00  0.00     0.002 A 
HETATM   42  C   UNL     1      40.573  -4.408   9.305  1.00  0.00     0.029 A 
ENDBRANCH  34  37
ENDBRANCH   2  33
TORSDOF 9
ENDMDL
