MODEL 1
REMARK VINA RESULT:      -8.2      0.000      0.000
REMARK  5 active torsions:
REMARK  status: ('A' for Active; 'I' for Inactive)
REMARK    1  A    between atoms: C_4  and  C_5 
REMARK    2  A    between atoms: C_8  and  C_9 
REMARK    3  A    between atoms: C_9  and  N_10 
REMARK       I    between atoms: N_10  and  C_11 
REMARK    4  A    between atoms: C_11  and  C_12 
REMARK    5  A    between atoms: C_16  and  C_17 
ROOT
HETATM    1  N   UNL     1      42.895 -11.492   7.378  1.00  0.00    -0.348 N 
HETATM    2  C   UNL     1      43.957 -10.802   7.901  1.00  0.00     0.271 C 
HETATM    3  O   UNL     1      44.977 -10.592   7.247  1.00  0.00    -0.266 OA
HETATM    4  H   UNL     1      42.021 -11.532   7.887  1.00  0.00     0.163 HD
ENDROOT
BRANCH   1   5
HETATM    5  C   UNL     1      42.927 -12.082   6.057  1.00  0.00     0.201 C 
BRANCH   5   6
HETATM    6  C   UNL     1      43.108 -13.556   6.155  1.00  0.00     0.122 A 
HETATM    7  N   UNL     1      43.129 -14.354   5.037  1.00  0.00    -0.341 N 
HETATM    8  C   UNL     1      43.345 -15.653   5.428  1.00  0.00     0.061 A 
HETATM    9  H   UNL     1      43.001 -14.018   4.090  1.00  0.00     0.167 HD
HETATM   10  C   UNL     1      43.454 -15.565   6.804  1.00  0.00     0.149 A 
HETATM   11  N   UNL     1      43.296 -14.273   7.243  1.00  0.00    -0.243 NA
BRANCH   8  12
HETATM   12  C   UNL     1      43.444 -16.778   4.505  1.00  0.00    -0.008 A 
HETATM   13  C   UNL     1      44.226 -17.894   4.831  1.00  0.00     0.014 A 
HETATM   14  C   UNL     1      44.333 -18.972   3.947  1.00  0.00     0.001 A 
HETATM   15  C   UNL     1      43.653 -18.946   2.731  1.00  0.00     0.000 A 
HETATM   16  C   UNL     1      42.869 -17.846   2.397  1.00  0.00     0.001 A 
HETATM   17  C   UNL     1      42.766 -16.767   3.279  1.00  0.00     0.014 A 
ENDBRANCH   8  12
ENDBRANCH   5   6
ENDBRANCH   1   5
BRANCH   2  18
HETATM   18  C   UNL     1      43.804 -10.316   9.243  1.00  0.00     0.141 A 
HETATM   19  N   UNL     1      43.488 -11.174  10.264  1.00  0.00    -0.271 N 
HETATM   20  H   UNL     1      43.346 -12.178  10.192  1.00  0.00     0.189 HD
HETATM   21  N   UNL     1      43.358 -10.588  11.464  1.00  0.00    -0.177 NA
HETATM   22  C   UNL     1      43.589  -9.297  11.206  1.00  0.00     0.083 A 
HETATM   23  C   UNL     1      43.880  -9.072   9.839  1.00  0.00     0.094 A 
HETATM   24 CL   UNL     1      44.225  -7.572   9.118  1.00  0.00    -0.079 Cl
BRANCH  22  25
HETATM   25  C   UNL     1      43.529  -8.215  12.280  1.00  0.00     0.041 A 
HETATM   26  C   UNL     1      42.228  -7.458  12.470  1.00  0.00     0.011 A 
HETATM   27  C   UNL     1      42.657  -8.446  13.499  1.00  0.00     0.011 A 
ENDBRANCH  22  25
ENDBRANCH   2  18
TORSDOF 5
ENDMDL
MODEL 2
REMARK VINA RESULT:      -8.2      5.566      8.527
REMARK  5 active torsions:
REMARK  status: ('A' for Active; 'I' for Inactive)
REMARK    1  A    between atoms: C_4  and  C_5 
REMARK    2  A    between atoms: C_8  and  C_9 
REMARK    3  A    between atoms: C_9  and  N_10 
REMARK       I    between atoms: N_10  and  C_11 
REMARK    4  A    between atoms: C_11  and  C_12 
REMARK    5  A    between atoms: C_16  and  C_17 
ROOT
HETATM    1  N   UNL     1      42.194 -13.565   3.513  1.00  0.00    -0.348 N 
HETATM    2  C   UNL     1      40.962 -13.159   3.072  1.00  0.00     0.271 C 
HETATM    3  O   UNL     1      40.100 -12.749   3.847  1.00  0.00    -0.266 OA
HETATM    4  H   UNL     1      42.926 -13.768   2.844  1.00  0.00     0.163 HD
ENDROOT
BRANCH   1   5
HETATM    5  C   UNL     1      42.541 -13.609   4.917  1.00  0.00     0.201 C 
BRANCH   5   6
HETATM    6  C   UNL     1      43.140 -14.927   5.259  1.00  0.00     0.122 A 
HETATM    7  N   UNL     1      42.993 -16.019   4.438  1.00  0.00    -0.341 N 
HETATM    8  C   UNL     1      43.676 -17.077   4.986  1.00  0.00     0.061 A 
HETATM    9  H   UNL     1      42.460 -16.020   3.577  1.00  0.00     0.167 HD
HETATM   10  C   UNL     1      44.223 -16.548   6.141  1.00  0.00     0.149 A 
HETATM   11  N   UNL     1      43.879 -15.229   6.306  1.00  0.00    -0.243 NA
BRANCH   8  12
HETATM   12  C   UNL     1      43.755 -18.401   4.379  1.00  0.00    -0.008 A 
HETATM   13  C   UNL     1      43.541 -18.564   3.005  1.00  0.00     0.014 A 
HETATM   14  C   UNL     1      43.606 -19.831   2.418  1.00  0.00     0.001 A 
HETATM   15  C   UNL     1      43.891 -20.947   3.201  1.00  0.00     0.000 A 
HETATM   16  C   UNL     1      44.111 -20.799   4.568  1.00  0.00     0.001 A 
HETATM   17  C   UNL     1      44.041 -19.533   5.155  1.00  0.00     0.014 A 
ENDBRANCH   8  12
ENDBRANCH   5   6
ENDBRANCH   1   5
BRANCH   2  18
HETATM   18  C   UNL     1      40.741 -13.216   1.655  1.00  0.00     0.141 A 
HETATM   19  N   UNL     1      40.960 -12.115   0.869  1.00  0.00    -0.271 N 
HETATM   20  H   UNL     1      41.287 -11.203   1.178  1.00  0.00     0.189 HD
HETATM   21  N   UNL     1      40.698 -12.298  -0.434  1.00  0.00    -0.177 NA
HETATM   22  C   UNL     1      40.285 -13.568  -0.491  1.00  0.00     0.083 A 
HETATM   23  C   UNL     1      40.299 -14.190   0.780  1.00  0.00     0.094 A 
HETATM   24 CL   UNL     1      39.843 -15.791   1.122  1.00  0.00    -0.079 Cl
BRANCH  22  25
HETATM   25  C   UNL     1      39.845 -14.238  -1.791  1.00  0.00     0.041 A 
HETATM   26  C   UNL     1      38.429 -14.000  -2.282  1.00  0.00     0.011 A 
HETATM   27  C   UNL     1      39.569 -13.367  -3.001  1.00  0.00     0.011 A 
ENDBRANCH  22  25
ENDBRANCH   2  18
TORSDOF 5
ENDMDL
MODEL 3
REMARK VINA RESULT:      -8.1      2.623      3.470
REMARK  5 active torsions:
REMARK  status: ('A' for Active; 'I' for Inactive)
REMARK    1  A    between atoms: C_4  and  C_5 
REMARK    2  A    between atoms: C_8  and  C_9 
REMARK    3  A    between atoms: C_9  and  N_10 
REMARK       I    between atoms: N_10  and  C_11 
REMARK    4  A    between atoms: C_11  and  C_12 
REMARK    5  A    between atoms: C_16  and  C_17 
ROOT
HETATM    1  N   UNL     1      42.152 -12.696   4.716  1.00  0.00    -0.348 N 
HETATM    2  C   UNL     1      43.121 -11.736   4.588  1.00  0.00     0.271 C 
HETATM    3  O   UNL     1      43.441 -11.280   3.492  1.00  0.00    -0.266 OA
HETATM    4  H   UNL     1      41.816 -12.952   5.636  1.00  0.00     0.163 HD
ENDROOT
BRANCH   1   5
HETATM    5  C   UNL     1      41.492 -13.290   3.574  1.00  0.00     0.201 C 
BRANCH   5   6
HETATM    6  C   UNL     1      42.324 -14.387   3.010  1.00  0.00     0.122 A 
HETATM    7  N   UNL     1      42.342 -15.639   3.575  1.00  0.00    -0.341 N 
HETATM    8  C   UNL     1      43.164 -16.447   2.828  1.00  0.00     0.061 A 
HETATM    9  H   UNL     1      41.827 -15.900   4.407  1.00  0.00     0.167 HD
HETATM   10  C   UNL     1      43.606 -15.615   1.816  1.00  0.00     0.149 A 
HETATM   11  N   UNL     1      43.094 -14.347   1.943  1.00  0.00    -0.243 NA
BRANCH   8  12
HETATM   12  C   UNL     1      43.413 -17.854   3.121  1.00  0.00    -0.008 A 
HETATM   13  C   UNL     1      43.945 -18.236   4.359  1.00  0.00     0.014 A 
HETATM   14  C   UNL     1      44.195 -19.581   4.643  1.00  0.00     0.001 A 
HETATM   15  C   UNL     1      43.909 -20.559   3.693  1.00  0.00     0.000 A 
HETATM   16  C   UNL     1      43.375 -20.194   2.460  1.00  0.00     0.001 A 
HETATM   17  C   UNL     1      43.130 -18.848   2.175  1.00  0.00     0.014 A 
ENDBRANCH   8  12
ENDBRANCH   5   6
ENDBRANCH   1   5
BRANCH   2  18
HETATM   18  C   UNL     1      43.726 -11.274   5.805  1.00  0.00     0.141 A 
HETATM   19  N   UNL     1      45.002 -11.649   6.138  1.00  0.00    -0.271 N 
HETATM   20  H   UNL     1      45.620 -12.247   5.595  1.00  0.00     0.189 HD
HETATM   21  N   UNL     1      45.440 -11.162   7.308  1.00  0.00    -0.177 NA
HETATM   22  C   UNL     1      44.401 -10.450   7.756  1.00  0.00     0.083 A 
HETATM   23  C   UNL     1      43.309 -10.478   6.855  1.00  0.00     0.094 A 
HETATM   24 CL   UNL     1      41.811  -9.703   7.065  1.00  0.00    -0.079 Cl
BRANCH  22  25
HETATM   25  C   UNL     1      44.418  -9.711   9.091  1.00  0.00     0.041 A 
HETATM   26  C   UNL     1      43.944 -10.449  10.330  1.00  0.00     0.011 A 
HETATM   27  C   UNL     1      45.395 -10.161  10.160  1.00  0.00     0.011 A 
ENDBRANCH  22  25
ENDBRANCH   2  18
TORSDOF 5
ENDMDL
MODEL 4
REMARK VINA RESULT:      -8.0      2.027      3.158
REMARK  5 active torsions:
REMARK  status: ('A' for Active; 'I' for Inactive)
REMARK    1  A    between atoms: C_4  and  C_5 
REMARK    2  A    between atoms: C_8  and  C_9 
REMARK    3  A    between atoms: C_9  and  N_10 
REMARK       I    between atoms: N_10  and  C_11 
REMARK    4  A    between atoms: C_11  and  C_12 
REMARK    5  A    between atoms: C_16  and  C_17 
ROOT
HETATM    1  N   UNL     1      40.817 -12.370   6.146  1.00  0.00    -0.348 N 
HETATM    2  C   UNL     1      41.667 -11.346   5.821  1.00  0.00     0.271 C 
HETATM    3  O   UNL     1      41.561 -10.728   4.763  1.00  0.00    -0.266 OA
HETATM    4  H   UNL     1      40.842 -12.768   7.076  1.00  0.00     0.163 HD
ENDROOT
BRANCH   1   5
HETATM    5  C   UNL     1      39.789 -12.843   5.244  1.00  0.00     0.201 C 
BRANCH   5   6
HETATM    6  C   UNL     1      40.364 -13.806   4.267  1.00  0.00     0.122 A 
HETATM    7  N   UNL     1      41.258 -14.775   4.653  1.00  0.00    -0.341 N 
HETATM    8  C   UNL     1      41.586 -15.533   3.556  1.00  0.00     0.061 A 
HETATM    9  H   UNL     1      41.606 -14.890   5.597  1.00  0.00     0.167 HD
HETATM   10  C   UNL     1      40.843 -14.969   2.536  1.00  0.00     0.149 A 
HETATM   11  N   UNL     1      40.103 -13.900   2.980  1.00  0.00    -0.243 NA
BRANCH   8  12
HETATM   12  C   UNL     1      42.502 -16.668   3.591  1.00  0.00    -0.008 A 
HETATM   13  C   UNL     1      42.601 -17.533   2.494  1.00  0.00     0.014 A 
HETATM   14  C   UNL     1      43.469 -18.628   2.524  1.00  0.00     0.001 A 
HETATM   15  C   UNL     1      44.253 -18.864   3.651  1.00  0.00     0.000 A 
HETATM   16  C   UNL     1      44.169 -18.009   4.747  1.00  0.00     0.001 A 
HETATM   17  C   UNL     1      43.297 -16.918   4.718  1.00  0.00     0.014 A 
ENDBRANCH   8  12
ENDBRANCH   5   6
ENDBRANCH   1   5
BRANCH   2  18
HETATM   18  C   UNL     1      42.672 -11.018   6.792  1.00  0.00     0.141 A 
HETATM   19  N   UNL     1      43.526 -11.980   7.266  1.00  0.00    -0.271 N 
HETATM   20  H   UNL     1      43.546 -12.960   6.996  1.00  0.00     0.189 HD
HETATM   21  N   UNL     1      44.404 -11.544   8.181  1.00  0.00    -0.177 NA
HETATM   22  C   UNL     1      44.100 -10.249   8.311  1.00  0.00     0.083 A 
HETATM   23  C   UNL     1      43.033  -9.866   7.463  1.00  0.00     0.094 A 
HETATM   24 CL   UNL     1      42.354  -8.313   7.340  1.00  0.00    -0.079 Cl
BRANCH  22  25
HETATM   25  C   UNL     1      44.830  -9.320   9.278  1.00  0.00     0.041 A 
HETATM   26  C   UNL     1      44.226  -9.090  10.651  1.00  0.00     0.011 A 
HETATM   27  C   UNL     1      45.460  -9.914  10.523  1.00  0.00     0.011 A 
ENDBRANCH  22  25
ENDBRANCH   2  18
TORSDOF 5
ENDMDL
MODEL 5
REMARK VINA RESULT:      -7.9      3.557      9.311
REMARK  5 active torsions:
REMARK  status: ('A' for Active; 'I' for Inactive)
REMARK    1  A    between atoms: C_4  and  C_5 
REMARK    2  A    between atoms: C_8  and  C_9 
REMARK    3  A    between atoms: C_9  and  N_10 
REMARK       I    between atoms: N_10  and  C_11 
REMARK    4  A    between atoms: C_11  and  C_12 
REMARK    5  A    between atoms: C_16  and  C_17 
ROOT
HETATM    1  N   UNL     1      40.727 -14.475   4.865  1.00  0.00    -0.348 N 
HETATM    2  C   UNL     1      41.639 -15.384   5.333  1.00  0.00     0.271 C 
HETATM    3  O   UNL     1      42.001 -15.391   6.508  1.00  0.00    -0.266 OA
HETATM    4  H   UNL     1      40.348 -14.578   3.932  1.00  0.00     0.163 HD
ENDROOT
BRANCH   1   5
HETATM    5  C   UNL     1      40.185 -13.420   5.694  1.00  0.00     0.201 C 
BRANCH   5   6
HETATM    6  C   UNL     1      41.077 -12.230   5.663  1.00  0.00     0.122 A 
HETATM    7  N   UNL     1      42.030 -12.020   6.630  1.00  0.00    -0.341 N 
HETATM    8  C   UNL     1      42.721 -10.873   6.326  1.00  0.00     0.061 A 
HETATM    9  H   UNL     1      42.179 -12.625   7.430  1.00  0.00     0.167 HD
HETATM   10  C   UNL     1      42.135 -10.442   5.150  1.00  0.00     0.149 A 
HETATM   11  N   UNL     1      41.117 -11.277   4.756  1.00  0.00    -0.243 NA
BRANCH   8  12
HETATM   12  C   UNL     1      43.821 -10.345   7.125  1.00  0.00    -0.008 A 
HETATM   13  C   UNL     1      45.066 -10.986   7.127  1.00  0.00     0.014 A 
HETATM   14  C   UNL     1      46.122 -10.491   7.898  1.00  0.00     0.001 A 
HETATM   15  C   UNL     1      45.944  -9.345   8.670  1.00  0.00     0.000 A 
HETATM   16  C   UNL     1      44.713  -8.694   8.673  1.00  0.00     0.001 A 
HETATM   17  C   UNL     1      43.656  -9.192   7.906  1.00  0.00     0.014 A 
ENDBRANCH   8  12
ENDBRANCH   5   6
ENDBRANCH   1   5
BRANCH   2  18
HETATM   18  C   UNL     1      42.129 -16.343   4.384  1.00  0.00     0.141 A 
HETATM   19  N   UNL     1      41.520 -16.494   3.165  1.00  0.00    -0.271 N 
HETATM   20  H   UNL     1      40.716 -15.977   2.820  1.00  0.00     0.189 HD
HETATM   21  N   UNL     1      42.067 -17.435   2.381  1.00  0.00    -0.177 NA
HETATM   22  C   UNL     1      43.066 -17.918   3.127  1.00  0.00     0.083 A 
HETATM   23  C   UNL     1      43.155 -17.268   4.382  1.00  0.00     0.094 A 
HETATM   24 CL   UNL     1      44.285 -17.598   5.608  1.00  0.00    -0.079 Cl
BRANCH  22  25
HETATM   25  C   UNL     1      43.980 -19.046   2.656  1.00  0.00     0.041 A 
HETATM   26  C   UNL     1      43.833 -20.411   3.304  1.00  0.00     0.011 A 
HETATM   27  C   UNL     1      43.368 -20.212   1.904  1.00  0.00     0.011 A 
ENDBRANCH  22  25
ENDBRANCH   2  18
TORSDOF 5
ENDMDL
MODEL 6
REMARK VINA RESULT:      -7.9      3.124      9.577
REMARK  5 active torsions:
REMARK  status: ('A' for Active; 'I' for Inactive)
REMARK    1  A    between atoms: C_4  and  C_5 
REMARK    2  A    between atoms: C_8  and  C_9 
REMARK    3  A    between atoms: C_9  and  N_10 
REMARK       I    between atoms: N_10  and  C_11 
REMARK    4  A    between atoms: C_11  and  C_12 
REMARK    5  A    between atoms: C_16  and  C_17 
ROOT
HETATM    1  N   UNL     1      41.729 -13.871   4.277  1.00  0.00    -0.348 N 
HETATM    2  C   UNL     1      41.677 -15.114   4.851  1.00  0.00     0.271 C 
HETATM    3  O   UNL     1      41.205 -15.290   5.972  1.00  0.00    -0.266 OA
HETATM    4  H   UNL     1      41.997 -13.776   3.306  1.00  0.00     0.163 HD
ENDROOT
BRANCH   1   5
HETATM    5  C   UNL     1      41.302 -12.676   4.973  1.00  0.00     0.201 C 
BRANCH   5   6
HETATM    6  C   UNL     1      42.464 -12.017   5.628  1.00  0.00     0.122 A 
HETATM    7  N   UNL     1      42.365 -11.463   6.881  1.00  0.00    -0.341 N 
HETATM    8  C   UNL     1      43.593 -10.964   7.239  1.00  0.00     0.061 A 
HETATM    9  H   UNL     1      41.514 -11.435   7.429  1.00  0.00     0.167 HD
HETATM   10  C   UNL     1      44.395 -11.261   6.153  1.00  0.00     0.149 A 
HETATM   11  N   UNL     1      43.690 -11.899   5.162  1.00  0.00    -0.243 NA
BRANCH   8  12
HETATM   12  C   UNL     1      43.871 -10.314   8.515  1.00  0.00    -0.008 A 
HETATM   13  C   UNL     1      42.856  -9.628   9.196  1.00  0.00     0.014 A 
HETATM   14  C   UNL     1      43.117  -8.994  10.414  1.00  0.00     0.001 A 
HETATM   15  C   UNL     1      44.394  -9.047  10.967  1.00  0.00     0.000 A 
HETATM   16  C   UNL     1      45.411  -9.730  10.305  1.00  0.00     0.001 A 
HETATM   17  C   UNL     1      45.151 -10.359   9.084  1.00  0.00     0.014 A 
ENDBRANCH   8  12
ENDBRANCH   5   6
ENDBRANCH   1   5
BRANCH   2  18
HETATM   18  C   UNL     1      42.183 -16.202   4.062  1.00  0.00     0.141 A 
HETATM   19  N   UNL     1      41.557 -16.572   2.901  1.00  0.00    -0.271 N 
HETATM   20  H   UNL     1      40.729 -16.145   2.494  1.00  0.00     0.189 HD
HETATM   21  N   UNL     1      42.121 -17.613   2.271  1.00  0.00    -0.177 NA
HETATM   22  C   UNL     1      43.149 -17.935   3.062  1.00  0.00     0.083 A 
HETATM   23  C   UNL     1      43.240 -17.083   4.189  1.00  0.00     0.094 A 
HETATM   24 CL   UNL     1      44.403 -17.169   5.425  1.00  0.00    -0.079 Cl
BRANCH  22  25
HETATM   25  C   UNL     1      44.092 -19.098   2.763  1.00  0.00     0.041 A 
HETATM   26  C   UNL     1      43.799 -20.445   3.398  1.00  0.00     0.011 A 
HETATM   27  C   UNL     1      43.576 -20.260   1.937  1.00  0.00     0.011 A 
ENDBRANCH  22  25
ENDBRANCH   2  18
TORSDOF 5
ENDMDL
MODEL 7
REMARK VINA RESULT:      -7.8      5.960      9.205
REMARK  5 active torsions:
REMARK  status: ('A' for Active; 'I' for Inactive)
REMARK    1  A    between atoms: C_4  and  C_5 
REMARK    2  A    between atoms: C_8  and  C_9 
REMARK    3  A    between atoms: C_9  and  N_10 
REMARK       I    between atoms: N_10  and  C_11 
REMARK    4  A    between atoms: C_11  and  C_12 
REMARK    5  A    between atoms: C_16  and  C_17 
ROOT
HETATM    1  N   UNL     1      43.072 -13.718   3.474  1.00  0.00    -0.348 N 
HETATM    2  C   UNL     1      42.432 -14.650   4.247  1.00  0.00     0.271 C 
HETATM    3  O   UNL     1      41.492 -14.347   4.980  1.00  0.00    -0.266 OA
HETATM    4  H   UNL     1      43.749 -14.016   2.783  1.00  0.00     0.163 HD
ENDROOT
BRANCH   1   5
HETATM    5  C   UNL     1      42.738 -12.310   3.518  1.00  0.00     0.201 C 
BRANCH   5   6
HETATM    6  C   UNL     1      42.058 -11.901   2.260  1.00  0.00     0.122 A 
HETATM    7  N   UNL     1      41.266 -12.774   1.554  1.00  0.00    -0.341 N 
HETATM    8  C   UNL     1      40.747 -12.116   0.466  1.00  0.00     0.061 A 
HETATM    9  H   UNL     1      41.109 -13.741   1.811  1.00  0.00     0.167 HD
HETATM   10  C   UNL     1      41.263 -10.839   0.582  1.00  0.00     0.149 A 
HETATM   11  N   UNL     1      42.077 -10.719   1.681  1.00  0.00    -0.243 NA
BRANCH   8  12
HETATM   12  C   UNL     1      39.845 -12.726  -0.504  1.00  0.00    -0.008 A 
HETATM   13  C   UNL     1      38.760 -12.003  -1.015  1.00  0.00     0.014 A 
HETATM   14  C   UNL     1      37.886 -12.585  -1.938  1.00  0.00     0.001 A 
HETATM   15  C   UNL     1      38.093 -13.895  -2.364  1.00  0.00     0.000 A 
HETATM   16  C   UNL     1      39.172 -14.624  -1.869  1.00  0.00     0.001 A 
HETATM   17  C   UNL     1      40.042 -14.043  -0.942  1.00  0.00     0.014 A 
ENDBRANCH   8  12
ENDBRANCH   5   6
ENDBRANCH   1   5
BRANCH   2  18
HETATM   18  C   UNL     1      42.902 -16.001   4.138  1.00  0.00     0.141 A 
HETATM   19  N   UNL     1      43.116 -16.760   5.260  1.00  0.00    -0.271 N 
HETATM   20  H   UNL     1      42.969 -16.473   6.224  1.00  0.00     0.189 HD
HETATM   21  N   UNL     1      43.572 -17.998   5.017  1.00  0.00    -0.177 NA
HETATM   22  C   UNL     1      43.665 -18.039   3.685  1.00  0.00     0.083 A 
HETATM   23  C   UNL     1      43.253 -16.824   3.085  1.00  0.00     0.094 A 
HETATM   24 CL   UNL     1      43.229 -16.481   1.421  1.00  0.00    -0.079 Cl
BRANCH  22  25
HETATM   25  C   UNL     1      44.170 -19.264   2.927  1.00  0.00     0.041 A 
HETATM   26  C   UNL     1      43.646 -20.629   3.332  1.00  0.00     0.011 A 
HETATM   27  C   UNL     1      43.200 -20.026   2.046  1.00  0.00     0.011 A 
ENDBRANCH  22  25
ENDBRANCH   2  18
TORSDOF 5
ENDMDL
MODEL 8
REMARK VINA RESULT:      -7.7      2.029      9.673
REMARK  5 active torsions:
REMARK  status: ('A' for Active; 'I' for Inactive)
REMARK    1  A    between atoms: C_4  and  C_5 
REMARK    2  A    between atoms: C_8  and  C_9 
REMARK    3  A    between atoms: C_9  and  N_10 
REMARK       I    between atoms: N_10  and  C_11 
REMARK    4  A    between atoms: C_11  and  C_12 
REMARK    5  A    between atoms: C_16  and  C_17 
ROOT
HETATM    1  N   UNL     1      43.111 -11.095   7.635  1.00  0.00    -0.348 N 
HETATM    2  C   UNL     1      43.983 -11.962   7.031  1.00  0.00     0.271 C 
HETATM    3  O   UNL     1      45.201 -11.796   7.083  1.00  0.00    -0.266 OA
HETATM    4  H   UNL     1      42.128 -11.328   7.692  1.00  0.00     0.163 HD
ENDROOT
BRANCH   1   5
HETATM    5  C   UNL     1      43.553  -9.892   8.307  1.00  0.00     0.201 C 
BRANCH   5   6
HETATM    6  C   UNL     1      43.526 -10.086   9.782  1.00  0.00     0.122 A 
HETATM    7  N   UNL     1      43.063  -9.109  10.628  1.00  0.00    -0.341 N 
HETATM    8  C   UNL     1      43.123  -9.578  11.918  1.00  0.00     0.061 A 
HETATM    9  H   UNL     1      42.738  -8.197  10.328  1.00  0.00     0.167 HD
HETATM   10  C   UNL     1      43.628 -10.857  11.775  1.00  0.00     0.149 A 
HETATM   11  N   UNL     1      43.884 -11.157  10.460  1.00  0.00    -0.243 NA
BRANCH   8  12
HETATM   12  C   UNL     1      42.696  -8.815  13.086  1.00  0.00    -0.008 A 
HETATM   13  C   UNL     1      41.618  -9.255  13.863  1.00  0.00     0.014 A 
HETATM   14  C   UNL     1      41.197  -8.524  14.978  1.00  0.00     0.001 A 
HETATM   15  C   UNL     1      41.857  -7.349  15.330  1.00  0.00     0.000 A 
HETATM   16  C   UNL     1      42.935  -6.903  14.569  1.00  0.00     0.001 A 
HETATM   17  C   UNL     1      43.351  -7.631  13.452  1.00  0.00     0.014 A 
ENDBRANCH   8  12
ENDBRANCH   5   6
ENDBRANCH   1   5
BRANCH   2  18
HETATM   18  C   UNL     1      43.400 -13.087   6.357  1.00  0.00     0.141 A 
HETATM   19  N   UNL     1      42.957 -14.174   7.066  1.00  0.00    -0.271 N 
HETATM   20  H   UNL     1      42.984 -14.292   8.076  1.00  0.00     0.189 HD
HETATM   21  N   UNL     1      42.450 -15.162   6.314  1.00  0.00    -0.177 NA
HETATM   22  C   UNL     1      42.579 -14.699   5.067  1.00  0.00     0.083 A 
HETATM   23  C   UNL     1      43.157 -13.407   5.035  1.00  0.00     0.094 A 
HETATM   24 CL   UNL     1      43.488 -12.486   3.646  1.00  0.00    -0.079 Cl
BRANCH  22  25
HETATM   25  C   UNL     1      42.151 -15.499   3.839  1.00  0.00     0.041 A 
HETATM   26  C   UNL     1      43.210 -15.878   2.820  1.00  0.00     0.011 A 
HETATM   27  C   UNL     1      42.630 -16.931   3.700  1.00  0.00     0.011 A 
ENDBRANCH  22  25
ENDBRANCH   2  18
TORSDOF 5
ENDMDL
MODEL 9
REMARK VINA RESULT:      -7.5      7.646      9.083
REMARK  5 active torsions:
REMARK  status: ('A' for Active; 'I' for Inactive)
REMARK    1  A    between atoms: C_4  and  C_5 
REMARK    2  A    between atoms: C_8  and  C_9 
REMARK    3  A    between atoms: C_9  and  N_10 
REMARK       I    between atoms: N_10  and  C_11 
REMARK    4  A    between atoms: C_11  and  C_12 
REMARK    5  A    between atoms: C_16  and  C_17 
ROOT
HETATM    1  N   UNL     1      40.845 -13.090  -0.442  1.00  0.00    -0.348 N 
HETATM    2  C   UNL     1      40.210 -11.976  -0.924  1.00  0.00     0.271 C 
HETATM    3  O   UNL     1      39.015 -11.988  -1.216  1.00  0.00    -0.266 OA
HETATM    4  H   UNL     1      41.789 -13.015  -0.084  1.00  0.00     0.163 HD
ENDROOT
BRANCH   1   5
HETATM    5  C   UNL     1      40.180 -14.369  -0.313  1.00  0.00     0.201 C 
BRANCH   5   6
HETATM    6  C   UNL     1      40.466 -14.966   1.020  1.00  0.00     0.122 A 
HETATM    7  N   UNL     1      41.536 -15.805   1.217  1.00  0.00    -0.341 N 
HETATM    8  C   UNL     1      41.571 -16.170   2.541  1.00  0.00     0.061 A 
HETATM    9  H   UNL     1      42.178 -16.096   0.490  1.00  0.00     0.167 HD
HETATM   10  C   UNL     1      40.491 -15.503   3.090  1.00  0.00     0.149 A 
HETATM   11  N   UNL     1      39.811 -14.774   2.146  1.00  0.00    -0.243 NA
BRANCH   8  12
HETATM   12  C   UNL     1      42.583 -17.046   3.121  1.00  0.00    -0.008 A 
HETATM   13  C   UNL     1      43.102 -16.781   4.394  1.00  0.00     0.014 A 
HETATM   14  C   UNL     1      44.079 -17.611   4.952  1.00  0.00     0.001 A 
HETATM   15  C   UNL     1      44.541 -18.717   4.244  1.00  0.00     0.000 A 
HETATM   16  C   UNL     1      44.030 -18.995   2.979  1.00  0.00     0.001 A 
HETATM   17  C   UNL     1      43.057 -18.163   2.419  1.00  0.00     0.014 A 
ENDBRANCH   8  12
ENDBRANCH   5   6
ENDBRANCH   1   5
BRANCH   2  18
HETATM   18  C   UNL     1      41.007 -10.789  -1.047  1.00  0.00     0.141 A 
HETATM   19  N   UNL     1      41.636 -10.253   0.048  1.00  0.00    -0.271 N 
HETATM   20  H   UNL     1      41.614 -10.615   0.998  1.00  0.00     0.189 HD
HETATM   21  N   UNL     1      42.334  -9.135  -0.201  1.00  0.00    -0.177 NA
HETATM   22  C   UNL     1      42.142  -8.935  -1.509  1.00  0.00     0.083 A 
HETATM   23  C   UNL     1      41.329  -9.939  -2.088  1.00  0.00     0.094 A 
HETATM   24 CL   UNL     1      40.855 -10.035  -3.717  1.00  0.00    -0.079 Cl
BRANCH  22  25
HETATM   25  C   UNL     1      42.735  -7.745  -2.260  1.00  0.00     0.041 A 
HETATM   26  C   UNL     1      42.042  -6.400  -2.142  1.00  0.00     0.011 A 
HETATM   27  C   UNL     1      43.349  -6.612  -1.460  1.00  0.00     0.011 A 
ENDBRANCH  22  25
ENDBRANCH   2  18
TORSDOF 5
ENDMDL
MODEL 10
REMARK VINA RESULT:      -7.3      1.382      2.098
REMARK  5 active torsions:
REMARK  status: ('A' for Active; 'I' for Inactive)
REMARK    1  A    between atoms: C_4  and  C_5 
REMARK    2  A    between atoms: C_8  and  C_9 
REMARK    3  A    between atoms: C_9  and  N_10 
REMARK       I    between atoms: N_10  and  C_11 
REMARK    4  A    between atoms: C_11  and  C_12 
REMARK    5  A    between atoms: C_16  and  C_17 
ROOT
HETATM    1  N   UNL     1      43.727 -11.281   8.358  1.00  0.00    -0.348 N 
HETATM    2  C   UNL     1      44.388 -10.427   9.201  1.00  0.00     0.271 C 
HETATM    3  O   UNL     1      45.477  -9.938   8.904  1.00  0.00    -0.266 OA
HETATM    4  H   UNL     1      42.777 -11.559   8.568  1.00  0.00     0.163 HD
ENDROOT
BRANCH   1   5
HETATM    5  C   UNL     1      44.291 -11.722   7.100  1.00  0.00     0.201 C 
BRANCH   5   6
HETATM    6  C   UNL     1      43.257 -12.417   6.287  1.00  0.00     0.122 A 
HETATM    7  N   UNL     1      43.557 -13.531   5.541  1.00  0.00    -0.341 N 
HETATM    8  C   UNL     1      42.410 -13.974   4.930  1.00  0.00     0.061 A 
HETATM    9  H   UNL     1      44.482 -13.939   5.466  1.00  0.00     0.167 HD
HETATM   10  C   UNL     1      41.446 -13.081   5.361  1.00  0.00     0.149 A 
HETATM   11  N   UNL     1      41.978 -12.120   6.186  1.00  0.00    -0.243 NA
BRANCH   8  12
HETATM   12  C   UNL     1      42.344 -15.148   4.068  1.00  0.00    -0.008 A 
HETATM   13  C   UNL     1      41.261 -15.328   3.198  1.00  0.00     0.014 A 
HETATM   14  C   UNL     1      41.187 -16.456   2.376  1.00  0.00     0.001 A 
HETATM   15  C   UNL     1      42.200 -17.412   2.411  1.00  0.00     0.000 A 
HETATM   16  C   UNL     1      43.285 -17.243   3.267  1.00  0.00     0.001 A 
HETATM   17  C   UNL     1      43.356 -16.118   4.093  1.00  0.00     0.014 A 
ENDBRANCH   8  12
ENDBRANCH   5   6
ENDBRANCH   1   5
BRANCH   2  18
HETATM   18  C   UNL     1      43.730 -10.115  10.438  1.00  0.00     0.141 A 
HETATM   19  N   UNL     1      43.451 -11.101  11.349  1.00  0.00    -0.271 N 
HETATM   20  H   UNL     1      43.670 -12.090  11.259  1.00  0.00     0.189 HD
HETATM   21  N   UNL     1      42.819 -10.678  12.453  1.00  0.00    -0.177 NA
HETATM   22  C   UNL     1      42.675  -9.366  12.245  1.00  0.00     0.083 A 
HETATM   23  C   UNL     1      43.232  -8.959  11.008  1.00  0.00     0.094 A 
HETATM   24 CL   UNL     1      43.247  -7.380  10.381  1.00  0.00    -0.079 Cl
BRANCH  22  25
HETATM   25  C   UNL     1      41.978  -8.441  13.239  1.00  0.00     0.041 A 
HETATM   26  C   UNL     1      40.504  -8.145  13.038  1.00  0.00     0.011 A 
HETATM   27  C   UNL     1      40.926  -9.025  14.162  1.00  0.00     0.011 A 
ENDBRANCH  22  25
ENDBRANCH   2  18
TORSDOF 5
ENDMDL
