MODEL 1
REMARK VINA RESULT:      -8.9      0.000      0.000
REMARK  2 active torsions:
REMARK  status: ('A' for Active; 'I' for Inactive)
REMARK    1  A    between atoms: O_2  and  C_3 
REMARK    2  A    between atoms: C_4  and  N_5 
REMARK       I    between atoms: N_5  and  C_6 
REMARK       I    between atoms: C_6  and  N_7 
ROOT
HETATM    1  N   UNL     1      43.491 -12.752   6.225  1.00  0.00    -0.306 N 
HETATM    2  C   UNL     1      43.343 -13.946   6.889  1.00  0.00     0.323 C 
HETATM    3  N   UNL     1      43.183 -15.035   6.033  1.00  0.00    -0.328 N 
HETATM    4  C   UNL     1      43.250 -16.356   6.665  1.00  0.00     0.185 C 
HETATM    5  C   UNL     1      43.414 -17.383   5.601  1.00  0.00     0.035 A 
HETATM    6  C   UNL     1      43.251 -17.206   4.242  1.00  0.00    -0.020 A 
HETATM    7  C   UNL     1      42.917 -15.872   3.674  1.00  0.00     0.061 C 
HETATM    8  C   UNL     1      42.390 -14.942   4.784  1.00  0.00     0.132 C 
HETATM    9  N   UNL     1      43.748 -18.691   5.821  1.00  0.00    -0.357 N 
HETATM   10  H   UNL     1      43.938 -19.109   6.721  1.00  0.00     0.166 HD
HETATM   11  C   UNL     1      43.794 -19.369   4.620  1.00  0.00     0.043 A 
HETATM   12  C   UNL     1      43.480 -18.456   3.609  1.00  0.00    -0.001 A 
HETATM   13  C   UNL     1      44.089 -20.712   4.355  1.00  0.00     0.030 A 
HETATM   14  C   UNL     1      44.058 -21.132   3.022  1.00  0.00     0.002 A 
HETATM   15  C   UNL     1      43.746 -20.245   1.996  1.00  0.00     0.001 A 
HETATM   16  C   UNL     1      43.457 -18.904   2.275  1.00  0.00     0.014 A 
HETATM   17  O   UNL     1      43.408 -14.078   8.108  1.00  0.00    -0.247 OA
HETATM   18  H   UNL     1      43.865 -12.821   5.288  1.00  0.00     0.171 HD
ENDROOT
BRANCH   1  19
HETATM   19  C   UNL     1      43.552 -11.462   6.788  1.00  0.00     0.071 A 
HETATM   20  C   UNL     1      42.388 -10.678   6.727  1.00  0.00     0.095 A 
HETATM   21  C   UNL     1      42.338  -9.413   7.315  1.00  0.00     0.041 A 
HETATM   22  C   UNL     1      43.474  -8.910   7.946  1.00  0.00     0.026 A 
HETATM   23  C   UNL     1      44.640  -9.676   7.992  1.00  0.00     0.036 A 
HETATM   24  C   UNL     1      44.686 -10.949   7.420  1.00  0.00     0.056 A 
HETATM   25 CL   UNL     1      46.033  -9.046   8.784  1.00  0.00    -0.084 Cl
BRANCH  20  26
HETATM   26  O   UNL     1      41.276 -11.191   6.103  1.00  0.00    -0.354 OA
HETATM   27  C   UNL     1      40.106 -10.492   6.536  1.00  0.00     0.210 C 
ENDBRANCH  20  26
ENDBRANCH   1  19
TORSDOF 2
ENDMDL
MODEL 2
REMARK VINA RESULT:      -8.2      2.320      3.370
REMARK  2 active torsions:
REMARK  status: ('A' for Active; 'I' for Inactive)
REMARK    1  A    between atoms: O_2  and  C_3 
REMARK    2  A    between atoms: C_4  and  N_5 
REMARK       I    between atoms: N_5  and  C_6 
REMARK       I    between atoms: C_6  and  N_7 
ROOT
HETATM    1  N   UNL     1      41.700 -12.542   5.574  1.00  0.00    -0.306 N 
HETATM    2  C   UNL     1      42.175 -13.032   4.382  1.00  0.00     0.323 C 
HETATM    3  N   UNL     1      42.721 -14.310   4.490  1.00  0.00    -0.328 N 
HETATM    4  C   UNL     1      43.034 -14.978   3.223  1.00  0.00     0.185 C 
HETATM    5  C   UNL     1      43.266 -16.423   3.492  1.00  0.00     0.035 A 
HETATM    6  C   UNL     1      43.447 -17.020   4.723  1.00  0.00    -0.020 A 
HETATM    7  C   UNL     1      43.379 -16.228   5.981  1.00  0.00     0.061 C 
HETATM    8  C   UNL     1      43.519 -14.726   5.668  1.00  0.00     0.132 C 
HETATM    9  N   UNL     1      43.347 -17.394   2.534  1.00  0.00    -0.357 N 
HETATM   10  H   UNL     1      43.244 -17.252   1.539  1.00  0.00     0.166 HD
HETATM   11  C   UNL     1      43.590 -18.616   3.127  1.00  0.00     0.043 A 
HETATM   12  C   UNL     1      43.662 -18.406   4.507  1.00  0.00    -0.001 A 
HETATM   13  C   UNL     1      43.748 -19.882   2.549  1.00  0.00     0.030 A 
HETATM   14  C   UNL     1      43.991 -20.960   3.405  1.00  0.00     0.002 A 
HETATM   15  C   UNL     1      44.069 -20.780   4.783  1.00  0.00     0.001 A 
HETATM   16  C   UNL     1      43.905 -19.509   5.348  1.00  0.00     0.014 A 
HETATM   17  O   UNL     1      42.082 -12.451   3.304  1.00  0.00    -0.247 OA
HETATM   18  H   UNL     1      41.424 -13.242   6.250  1.00  0.00     0.171 HD
ENDROOT
BRANCH   1  19
HETATM   19  C   UNL     1      41.202 -11.250   5.831  1.00  0.00     0.071 A 
HETATM   20  C   UNL     1      42.042 -10.364   6.527  1.00  0.00     0.095 A 
HETATM   21  C   UNL     1      41.657  -9.045   6.770  1.00  0.00     0.041 A 
HETATM   22  C   UNL     1      40.405  -8.610   6.340  1.00  0.00     0.026 A 
HETATM   23  C   UNL     1      39.558  -9.491   5.665  1.00  0.00     0.036 A 
HETATM   24  C   UNL     1      39.949 -10.807   5.406  1.00  0.00     0.056 A 
HETATM   25 CL   UNL     1      38.018  -8.938   5.129  1.00  0.00    -0.084 Cl
BRANCH  20  26
HETATM   26  O   UNL     1      43.275 -10.809   6.943  1.00  0.00    -0.354 OA
HETATM   27  C   UNL     1      43.641 -10.163   8.165  1.00  0.00     0.210 C 
ENDBRANCH  20  26
ENDBRANCH   1  19
TORSDOF 2
ENDMDL
MODEL 3
REMARK VINA RESULT:      -8.1      1.791      2.526
REMARK  2 active torsions:
REMARK  status: ('A' for Active; 'I' for Inactive)
REMARK    1  A    between atoms: O_2  and  C_3 
REMARK    2  A    between atoms: C_4  and  N_5 
REMARK       I    between atoms: N_5  and  C_6 
REMARK       I    between atoms: C_6  and  N_7 
ROOT
HETATM    1  N   UNL     1      42.048 -12.533   6.087  1.00  0.00    -0.306 N 
HETATM    2  C   UNL     1      42.490 -12.975   4.864  1.00  0.00     0.323 C 
HETATM    3  N   UNL     1      42.970 -14.283   4.892  1.00  0.00    -0.328 N 
HETATM    4  C   UNL     1      43.240 -14.891   3.586  1.00  0.00     0.185 C 
HETATM    5  C   UNL     1      43.399 -16.359   3.769  1.00  0.00     0.035 A 
HETATM    6  C   UNL     1      43.557 -17.036   4.960  1.00  0.00    -0.020 A 
HETATM    7  C   UNL     1      43.538 -16.317   6.263  1.00  0.00     0.061 C 
HETATM    8  C   UNL     1      43.753 -14.808   6.037  1.00  0.00     0.132 C 
HETATM    9  N   UNL     1      43.424 -17.275   2.754  1.00  0.00    -0.357 N 
HETATM   10  H   UNL     1      43.322 -17.070   1.770  1.00  0.00     0.166 HD
HETATM   11  C   UNL     1      43.607 -18.540   3.273  1.00  0.00     0.043 A 
HETATM   12  C   UNL     1      43.699 -18.416   4.662  1.00  0.00    -0.001 A 
HETATM   13  C   UNL     1      43.697 -19.777   2.621  1.00  0.00     0.030 A 
HETATM   14  C   UNL     1      43.889 -20.914   3.410  1.00  0.00     0.002 A 
HETATM   15  C   UNL     1      43.986 -20.819   4.796  1.00  0.00     0.001 A 
HETATM   16  C   UNL     1      43.890 -19.577   5.435  1.00  0.00     0.014 A 
HETATM   17  O   UNL     1      42.419 -12.328   3.823  1.00  0.00    -0.247 OA
HETATM   18  H   UNL     1      41.741 -13.256   6.724  1.00  0.00     0.171 HD
ENDROOT
BRANCH   1  19
HETATM   19  C   UNL     1      41.619 -11.234   6.424  1.00  0.00     0.071 A 
HETATM   20  C   UNL     1      40.265 -10.926   6.207  1.00  0.00     0.095 A 
HETATM   21  C   UNL     1      39.739  -9.687   6.570  1.00  0.00     0.041 A 
HETATM   22  C   UNL     1      40.579  -8.727   7.130  1.00  0.00     0.026 A 
HETATM   23  C   UNL     1      41.930  -9.019   7.330  1.00  0.00     0.036 A 
HETATM   24  C   UNL     1      42.455 -10.266   6.983  1.00  0.00     0.056 A 
HETATM   25 CL   UNL     1      42.956  -7.827   8.033  1.00  0.00    -0.084 Cl
BRANCH  20  26
HETATM   26  O   UNL     1      39.449 -11.886   5.655  1.00  0.00    -0.354 OA
HETATM   27  C   UNL     1      39.040 -11.485   4.345  1.00  0.00     0.210 C 
ENDBRANCH  20  26
ENDBRANCH   1  19
TORSDOF 2
ENDMDL
MODEL 4
REMARK VINA RESULT:      -8.0      5.876      7.175
REMARK  2 active torsions:
REMARK  status: ('A' for Active; 'I' for Inactive)
REMARK    1  A    between atoms: O_2  and  C_3 
REMARK    2  A    between atoms: C_4  and  N_5 
REMARK       I    between atoms: N_5  and  C_6 
REMARK       I    between atoms: C_6  and  N_7 
ROOT
HETATM    1  N   UNL     1      41.166 -12.615  -0.294  1.00  0.00    -0.306 N 
HETATM    2  C   UNL     1      40.539 -12.749   0.921  1.00  0.00     0.323 C 
HETATM    3  N   UNL     1      40.964 -13.864   1.640  1.00  0.00    -0.328 N 
HETATM    4  C   UNL     1      40.507 -13.938   3.031  1.00  0.00     0.185 C 
HETATM    5  C   UNL     1      41.313 -14.967   3.742  1.00  0.00     0.035 A 
HETATM    6  C   UNL     1      42.149 -15.906   3.174  1.00  0.00    -0.020 A 
HETATM    7  C   UNL     1      42.371 -15.951   1.703  1.00  0.00     0.061 C 
HETATM    8  C   UNL     1      41.268 -15.156   0.979  1.00  0.00     0.132 C 
HETATM    9  N   UNL     1      41.334 -15.145   5.097  1.00  0.00    -0.357 N 
HETATM   10  H   UNL     1      40.824 -14.595   5.774  1.00  0.00     0.166 HD
HETATM   11  C   UNL     1      42.167 -16.198   5.417  1.00  0.00     0.043 A 
HETATM   12  C   UNL     1      42.690 -16.698   4.221  1.00  0.00    -0.001 A 
HETATM   13  C   UNL     1      42.496 -16.739   6.666  1.00  0.00     0.030 A 
HETATM   14  C   UNL     1      43.379 -17.822   6.692  1.00  0.00     0.002 A 
HETATM   15  C   UNL     1      43.913 -18.342   5.515  1.00  0.00     0.001 A 
HETATM   16  C   UNL     1      43.579 -17.788   4.274  1.00  0.00     0.014 A 
HETATM   17  O   UNL     1      39.732 -11.945   1.380  1.00  0.00    -0.247 OA
HETATM   18  H   UNL     1      42.082 -13.039  -0.357  1.00  0.00     0.171 HD
ENDROOT
BRANCH   1  19
HETATM   19  C   UNL     1      40.884 -11.675  -1.304  1.00  0.00     0.071 A 
HETATM   20  C   UNL     1      39.848 -11.985  -2.201  1.00  0.00     0.095 A 
HETATM   21  C   UNL     1      39.457 -11.085  -3.193  1.00  0.00     0.041 A 
HETATM   22  C   UNL     1      40.128  -9.869  -3.313  1.00  0.00     0.026 A 
HETATM   23  C   UNL     1      41.172  -9.564  -2.437  1.00  0.00     0.036 A 
HETATM   24  C   UNL     1      41.553 -10.456  -1.432  1.00  0.00     0.056 A 
HETATM   25 CL   UNL     1      41.986  -8.053  -2.590  1.00  0.00    -0.084 Cl
BRANCH  20  26
HETATM   26  O   UNL     1      39.195 -13.187  -2.067  1.00  0.00    -0.354 OA
HETATM   27  C   UNL     1      37.791 -12.966  -1.908  1.00  0.00     0.210 C 
ENDBRANCH  20  26
ENDBRANCH   1  19
TORSDOF 2
ENDMDL
MODEL 5
REMARK VINA RESULT:      -7.9      5.502      8.449
REMARK  2 active torsions:
REMARK  status: ('A' for Active; 'I' for Inactive)
REMARK    1  A    between atoms: O_2  and  C_3 
REMARK    2  A    between atoms: C_4  and  N_5 
REMARK       I    between atoms: N_5  and  C_6 
REMARK       I    between atoms: C_6  and  N_7 
ROOT
HETATM    1  N   UNL     1      40.427 -12.589   1.148  1.00  0.00    -0.306 N 
HETATM    2  C   UNL     1      40.164 -12.849   2.471  1.00  0.00     0.323 C 
HETATM    3  N   UNL     1      41.280 -12.703   3.293  1.00  0.00    -0.328 N 
HETATM    4  C   UNL     1      41.018 -12.740   4.735  1.00  0.00     0.185 C 
HETATM    5  C   UNL     1      42.218 -12.228   5.449  1.00  0.00     0.035 A 
HETATM    6  C   UNL     1      43.474 -12.014   4.918  1.00  0.00    -0.020 A 
HETATM    7  C   UNL     1      43.750 -12.251   3.475  1.00  0.00     0.061 C 
HETATM    8  C   UNL     1      42.635 -13.118   2.860  1.00  0.00     0.132 C 
HETATM    9  N   UNL     1      42.257 -11.896   6.775  1.00  0.00    -0.357 N 
HETATM   10  H   UNL     1      41.480 -11.942   7.419  1.00  0.00     0.166 HD
HETATM   11  C   UNL     1      43.528 -11.479   7.115  1.00  0.00     0.043 A 
HETATM   12  C   UNL     1      44.315 -11.549   5.962  1.00  0.00    -0.001 A 
HETATM   13  C   UNL     1      44.035 -11.046   8.347  1.00  0.00     0.030 A 
HETATM   14  C   UNL     1      45.382 -10.680   8.401  1.00  0.00     0.002 A 
HETATM   15  C   UNL     1      46.190 -10.742   7.269  1.00  0.00     0.001 A 
HETATM   16  C   UNL     1      45.669 -11.172   6.043  1.00  0.00     0.014 A 
HETATM   17  O   UNL     1      39.054 -13.120   2.920  1.00  0.00    -0.247 OA
HETATM   18  H   UNL     1      41.204 -11.964   0.976  1.00  0.00     0.171 HD
ENDROOT
BRANCH   1  19
HETATM   19  C   UNL     1      39.558 -12.759   0.053  1.00  0.00     0.071 A 
HETATM   20  C   UNL     1      38.683 -11.701  -0.246  1.00  0.00     0.095 A 
HETATM   21  C   UNL     1      37.833 -11.756  -1.350  1.00  0.00     0.041 A 
HETATM   22  C   UNL     1      37.831 -12.895  -2.152  1.00  0.00     0.026 A 
HETATM   23  C   UNL     1      38.683 -13.959  -1.849  1.00  0.00     0.036 A 
HETATM   24  C   UNL     1      39.548 -13.898  -0.754  1.00  0.00     0.056 A 
HETATM   25 CL   UNL     1      38.678 -15.357  -2.855  1.00  0.00    -0.084 Cl
BRANCH  20  26
HETATM   26  O   UNL     1      38.700 -10.583   0.555  1.00  0.00    -0.354 OA
HETATM   27  C   UNL     1      37.418 -10.397   1.162  1.00  0.00     0.210 C 
ENDBRANCH  20  26
ENDBRANCH   1  19
TORSDOF 2
ENDMDL
MODEL 6
REMARK VINA RESULT:      -7.9      5.307      6.475
REMARK  2 active torsions:
REMARK  status: ('A' for Active; 'I' for Inactive)
REMARK    1  A    between atoms: O_2  and  C_3 
REMARK    2  A    between atoms: C_4  and  N_5 
REMARK       I    between atoms: N_5  and  C_6 
REMARK       I    between atoms: C_6  and  N_7 
ROOT
HETATM    1  N   UNL     1      39.247 -12.430   1.144  1.00  0.00    -0.306 N 
HETATM    2  C   UNL     1      39.661 -12.673   2.431  1.00  0.00     0.323 C 
HETATM    3  N   UNL     1      40.222 -13.938   2.599  1.00  0.00    -0.328 N 
HETATM    4  C   UNL     1      40.889 -14.174   3.883  1.00  0.00     0.185 C 
HETATM    5  C   UNL     1      41.718 -15.404   3.769  1.00  0.00     0.035 A 
HETATM    6  C   UNL     1      41.678 -16.343   2.759  1.00  0.00    -0.020 A 
HETATM    7  C   UNL     1      40.772 -16.177   1.589  1.00  0.00     0.061 C 
HETATM    8  C   UNL     1      39.684 -15.134   1.908  1.00  0.00     0.132 C 
HETATM    9  N   UNL     1      42.658 -15.801   4.679  1.00  0.00    -0.357 N 
HETATM   10  H   UNL     1      42.913 -15.304   5.521  1.00  0.00     0.166 HD
HETATM   11  C   UNL     1      43.223 -16.994   4.276  1.00  0.00     0.043 A 
HETATM   12  C   UNL     1      42.618 -17.359   3.070  1.00  0.00    -0.001 A 
HETATM   13  C   UNL     1      44.217 -17.770   4.884  1.00  0.00     0.030 A 
HETATM   14  C   UNL     1      44.599 -18.952   4.244  1.00  0.00     0.002 A 
HETATM   15  C   UNL     1      44.012 -19.342   3.043  1.00  0.00     0.001 A 
HETATM   16  C   UNL     1      43.022 -18.554   2.444  1.00  0.00     0.014 A 
HETATM   17  O   UNL     1      39.615 -11.853   3.344  1.00  0.00    -0.247 OA
HETATM   18  H   UNL     1      39.728 -12.957   0.428  1.00  0.00     0.171 HD
ENDROOT
BRANCH   1  19
HETATM   19  C   UNL     1      38.538 -11.308   0.671  1.00  0.00     0.071 A 
HETATM   20  C   UNL     1      39.247 -10.382  -0.112  1.00  0.00     0.095 A 
HETATM   21  C   UNL     1      38.611  -9.276  -0.676  1.00  0.00     0.041 A 
HETATM   22  C   UNL     1      37.254  -9.072  -0.432  1.00  0.00     0.026 A 
HETATM   23  C   UNL     1      36.548  -9.978   0.363  1.00  0.00     0.036 A 
HETATM   24  C   UNL     1      37.180 -11.096   0.914  1.00  0.00     0.056 A 
HETATM   25 CL   UNL     1      34.869  -9.720   0.649  1.00  0.00    -0.084 Cl
BRANCH  20  26
HETATM   26  O   UNL     1      40.584 -10.600  -0.346  1.00  0.00    -0.354 OA
HETATM   27  C   UNL     1      41.312  -9.377  -0.201  1.00  0.00     0.210 C 
ENDBRANCH  20  26
ENDBRANCH   1  19
TORSDOF 2
ENDMDL
MODEL 7
REMARK VINA RESULT:      -7.8      2.450      3.773
REMARK  2 active torsions:
REMARK  status: ('A' for Active; 'I' for Inactive)
REMARK    1  A    between atoms: O_2  and  C_3 
REMARK    2  A    between atoms: C_4  and  N_5 
REMARK       I    between atoms: N_5  and  C_6 
REMARK       I    between atoms: C_6  and  N_7 
ROOT
HETATM    1  N   UNL     1      42.227 -10.925   7.156  1.00  0.00    -0.306 N 
HETATM    2  C   UNL     1      42.405 -11.140   5.811  1.00  0.00     0.323 C 
HETATM    3  N   UNL     1      42.876 -12.418   5.515  1.00  0.00    -0.328 N 
HETATM    4  C   UNL     1      42.869 -12.787   4.096  1.00  0.00     0.185 C 
HETATM    5  C   UNL     1      43.056 -14.259   3.988  1.00  0.00     0.035 A 
HETATM    6  C   UNL     1      43.454 -15.122   4.987  1.00  0.00    -0.020 A 
HETATM    7  C   UNL     1      43.706 -14.635   6.371  1.00  0.00     0.061 C 
HETATM    8  C   UNL     1      43.875 -13.104   6.369  1.00  0.00     0.132 C 
HETATM    9  N   UNL     1      42.868 -14.989   2.847  1.00  0.00    -0.357 N 
HETATM   10  H   UNL     1      42.567 -14.623   1.954  1.00  0.00     0.166 HD
HETATM   11  C   UNL     1      43.150 -16.317   3.091  1.00  0.00     0.043 A 
HETATM   12  C   UNL     1      43.526 -16.427   4.433  1.00  0.00    -0.001 A 
HETATM   13  C   UNL     1      43.098 -17.422   2.232  1.00  0.00     0.030 A 
HETATM   14  C   UNL     1      43.444 -18.670   2.758  1.00  0.00     0.002 A 
HETATM   15  C   UNL     1      43.825 -18.808   4.090  1.00  0.00     0.001 A 
HETATM   16  C   UNL     1      43.868 -17.696   4.939  1.00  0.00     0.014 A 
HETATM   17  O   UNL     1      42.124 -10.328   4.934  1.00  0.00    -0.247 OA
HETATM   18  H   UNL     1      42.054 -11.755   7.708  1.00  0.00     0.171 HD
ENDROOT
BRANCH   1  19
HETATM   19  C   UNL     1      41.881  -9.716   7.792  1.00  0.00     0.071 A 
HETATM   20  C   UNL     1      42.908  -9.019   8.450  1.00  0.00     0.095 A 
HETATM   21  C   UNL     1      42.671  -7.783   9.052  1.00  0.00     0.041 A 
HETATM   22  C   UNL     1      41.385  -7.246   9.023  1.00  0.00     0.026 A 
HETATM   23  C   UNL     1      40.356  -7.944   8.388  1.00  0.00     0.036 A 
HETATM   24  C   UNL     1      40.596  -9.174   7.770  1.00  0.00     0.056 A 
HETATM   25 CL   UNL     1      38.774  -7.264   8.351  1.00  0.00    -0.084 Cl
BRANCH  20  26
HETATM   26  O   UNL     1      44.171  -9.562   8.466  1.00  0.00    -0.354 OA
HETATM   27  C   UNL     1      45.148  -8.523   8.572  1.00  0.00     0.210 C 
ENDBRANCH  20  26
ENDBRANCH   1  19
TORSDOF 2
ENDMDL
MODEL 8
REMARK VINA RESULT:      -7.8      3.621      9.231
REMARK  2 active torsions:
REMARK  status: ('A' for Active; 'I' for Inactive)
REMARK    1  A    between atoms: O_2  and  C_3 
REMARK    2  A    between atoms: C_4  and  N_5 
REMARK       I    between atoms: N_5  and  C_6 
REMARK       I    between atoms: C_6  and  N_7 
ROOT
HETATM    1  N   UNL     1      42.849 -12.360   5.832  1.00  0.00    -0.306 N 
HETATM    2  C   UNL     1      43.859 -11.958   6.671  1.00  0.00     0.323 C 
HETATM    3  N   UNL     1      43.482 -10.929   7.532  1.00  0.00    -0.328 N 
HETATM    4  C   UNL     1      44.433 -10.613   8.602  1.00  0.00     0.185 C 
HETATM    5  C   UNL     1      43.746  -9.766   9.615  1.00  0.00     0.035 A 
HETATM    6  C   UNL     1      42.528  -9.132   9.479  1.00  0.00    -0.020 A 
HETATM    7  C   UNL     1      41.716  -9.281   8.241  1.00  0.00     0.061 C 
HETATM    8  C   UNL     1      42.592  -9.826   7.097  1.00  0.00     0.132 C 
HETATM    9  N   UNL     1      44.238  -9.477  10.857  1.00  0.00    -0.357 N 
HETATM   10  H   UNL     1      45.111  -9.812  11.239  1.00  0.00     0.166 HD
HETATM   11  C   UNL     1      43.359  -8.651  11.527  1.00  0.00     0.043 A 
HETATM   12  C   UNL     1      42.274  -8.415  10.677  1.00  0.00    -0.001 A 
HETATM   13  C   UNL     1      43.441  -8.101  12.812  1.00  0.00     0.030 A 
HETATM   14  C   UNL     1      42.389  -7.286  13.238  1.00  0.00     0.002 A 
HETATM   15  C   UNL     1      41.297  -7.032  12.411  1.00  0.00     0.001 A 
HETATM   16  C   UNL     1      41.226  -7.592  11.130  1.00  0.00     0.014 A 
HETATM   17  O   UNL     1      44.969 -12.479   6.724  1.00  0.00    -0.247 OA
HETATM   18  H   UNL     1      41.911 -12.195   6.173  1.00  0.00     0.171 HD
ENDROOT
BRANCH   1  19
HETATM   19  C   UNL     1      42.934 -13.284   4.771  1.00  0.00     0.071 A 
HETATM   20  C   UNL     1      43.131 -12.765   3.480  1.00  0.00     0.095 A 
HETATM   21  C   UNL     1      43.290 -13.608   2.380  1.00  0.00     0.041 A 
HETATM   22  C   UNL     1      43.223 -14.988   2.563  1.00  0.00     0.026 A 
HETATM   23  C   UNL     1      43.008 -15.509   3.841  1.00  0.00     0.036 A 
HETATM   24  C   UNL     1      42.866 -14.666   4.946  1.00  0.00     0.056 A 
HETATM   25 CL   UNL     1      42.938 -17.216   4.055  1.00  0.00    -0.084 Cl
BRANCH  20  26
HETATM   26  O   UNL     1      43.197 -11.401   3.318  1.00  0.00    -0.354 OA
HETATM   27  C   UNL     1      42.154 -10.962   2.443  1.00  0.00     0.210 C 
ENDBRANCH  20  26
ENDBRANCH   1  19
TORSDOF 2
ENDMDL
MODEL 9
REMARK VINA RESULT:      -7.8      4.192      8.640
REMARK  2 active torsions:
REMARK  status: ('A' for Active; 'I' for Inactive)
REMARK    1  A    between atoms: O_2  and  C_3 
REMARK    2  A    between atoms: C_4  and  N_5 
REMARK       I    between atoms: N_5  and  C_6 
REMARK       I    between atoms: C_6  and  N_7 
ROOT
HETATM    1  N   UNL     1      41.412 -12.741   3.178  1.00  0.00    -0.306 N 
HETATM    2  C   UNL     1      42.711 -12.458   3.522  1.00  0.00     0.323 C 
HETATM    3  N   UNL     1      42.818 -11.666   4.664  1.00  0.00    -0.328 N 
HETATM    4  C   UNL     1      44.169 -11.519   5.214  1.00  0.00     0.185 C 
HETATM    5  C   UNL     1      44.064 -10.960   6.588  1.00  0.00     0.035 A 
HETATM    6  C   UNL     1      42.949 -10.399   7.175  1.00  0.00    -0.020 A 
HETATM    7  C   UNL     1      41.648 -10.337   6.454  1.00  0.00     0.061 C 
HETATM    8  C   UNL     1      41.869 -10.562   4.946  1.00  0.00     0.132 C 
HETATM    9  N   UNL     1      45.089 -10.908   7.492  1.00  0.00    -0.357 N 
HETATM   10  H   UNL     1      46.027 -11.255   7.342  1.00  0.00     0.166 HD
HETATM   11  C   UNL     1      44.655 -10.310   8.656  1.00  0.00     0.043 A 
HETATM   12  C   UNL     1      43.309  -9.975   8.480  1.00  0.00    -0.001 A 
HETATM   13  C   UNL     1      45.347 -10.043   9.844  1.00  0.00     0.030 A 
HETATM   14  C   UNL     1      44.646  -9.414  10.877  1.00  0.00     0.002 A 
HETATM   15  C   UNL     1      43.305  -9.067  10.728  1.00  0.00     0.001 A 
HETATM   16  C   UNL     1      42.625  -9.344   9.536  1.00  0.00     0.014 A 
HETATM   17  O   UNL     1      43.697 -12.898   2.939  1.00  0.00    -0.247 OA
HETATM   18  H   UNL     1      40.748 -12.720   3.940  1.00  0.00     0.171 HD
ENDROOT
BRANCH   1  19
HETATM   19  C   UNL     1      40.958 -13.409   2.023  1.00  0.00     0.071 A 
HETATM   20  C   UNL     1      40.487 -14.723   2.182  1.00  0.00     0.095 A 
HETATM   21  C   UNL     1      39.959 -15.437   1.106  1.00  0.00     0.041 A 
HETATM   22  C   UNL     1      39.929 -14.844  -0.155  1.00  0.00     0.026 A 
HETATM   23  C   UNL     1      40.414 -13.546  -0.324  1.00  0.00     0.036 A 
HETATM   24  C   UNL     1      40.926 -12.823   0.756  1.00  0.00     0.056 A 
HETATM   25 CL   UNL     1      40.361 -12.822  -1.886  1.00  0.00    -0.084 Cl
BRANCH  20  26
HETATM   26  O   UNL     1      40.522 -15.291   3.434  1.00  0.00    -0.354 OA
HETATM   27  C   UNL     1      41.464 -16.367   3.456  1.00  0.00     0.210 C 
ENDBRANCH  20  26
ENDBRANCH   1  19
TORSDOF 2
ENDMDL
MODEL 10
REMARK VINA RESULT:      -7.8      4.361      8.999
REMARK  2 active torsions:
REMARK  status: ('A' for Active; 'I' for Inactive)
REMARK    1  A    between atoms: O_2  and  C_3 
REMARK    2  A    between atoms: C_4  and  N_5 
REMARK       I    between atoms: N_5  and  C_6 
REMARK       I    between atoms: C_6  and  N_7 
ROOT
HETATM    1  N   UNL     1      42.368 -15.645   3.541  1.00  0.00    -0.306 N 
HETATM    2  C   UNL     1      42.664 -14.591   2.713  1.00  0.00     0.323 C 
HETATM    3  N   UNL     1      41.757 -13.538   2.817  1.00  0.00    -0.328 N 
HETATM    4  C   UNL     1      42.140 -12.297   2.135  1.00  0.00     0.185 C 
HETATM    5  C   UNL     1      41.267 -11.197   2.626  1.00  0.00     0.035 A 
HETATM    6  C   UNL     1      40.111 -11.321   3.369  1.00  0.00    -0.020 A 
HETATM    7  C   UNL     1      39.622 -12.653   3.815  1.00  0.00     0.061 C 
HETATM    8  C   UNL     1      40.304 -13.767   2.997  1.00  0.00     0.132 C 
HETATM    9  N   UNL     1      41.483  -9.866   2.397  1.00  0.00    -0.357 N 
HETATM   10  H   UNL     1      42.261  -9.473   1.886  1.00  0.00     0.166 HD
HETATM   11  C   UNL     1      40.473  -9.124   2.973  1.00  0.00     0.043 A 
HETATM   12  C   UNL     1      39.593 -10.018   3.589  1.00  0.00    -0.001 A 
HETATM   13  C   UNL     1      40.275  -7.737   2.998  1.00  0.00     0.030 A 
HETATM   14  C   UNL     1      39.146  -7.254   3.665  1.00  0.00     0.002 A 
HETATM   15  C   UNL     1      38.252  -8.123   4.285  1.00  0.00     0.001 A 
HETATM   16  C   UNL     1      38.464  -9.506   4.257  1.00  0.00     0.014 A 
HETATM   17  O   UNL     1      43.656 -14.529   1.992  1.00  0.00    -0.247 OA
HETATM   18  H   UNL     1      41.837 -15.410   4.369  1.00  0.00     0.171 HD
ENDROOT
BRANCH   1  19
HETATM   19  C   UNL     1      43.008 -16.899   3.593  1.00  0.00     0.071 A 
HETATM   20  C   UNL     1      43.788 -17.178   4.728  1.00  0.00     0.095 A 
HETATM   21  C   UNL     1      44.405 -18.418   4.893  1.00  0.00     0.041 A 
HETATM   22  C   UNL     1      44.269 -19.385   3.899  1.00  0.00     0.026 A 
HETATM   23  C   UNL     1      43.513 -19.107   2.759  1.00  0.00     0.036 A 
HETATM   24  C   UNL     1      42.879 -17.872   2.600  1.00  0.00     0.056 A 
HETATM   25 CL   UNL     1      43.344 -20.315   1.542  1.00  0.00    -0.084 Cl
BRANCH  20  26
HETATM   26  O   UNL     1      43.909 -16.214   5.700  1.00  0.00    -0.354 OA
HETATM   27  C   UNL     1      43.757 -16.803   6.995  1.00  0.00     0.210 C 
ENDBRANCH  20  26
ENDBRANCH   1  19
TORSDOF 2
ENDMDL
