MODEL 1
REMARK VINA RESULT:      -9.4      0.000      0.000
REMARK  3 active torsions:
REMARK  status: ('A' for Active; 'I' for Inactive)
REMARK    1  A    between atoms: C_8  and  C_9 
REMARK       I    between atoms: C_9  and  N_10 
REMARK    2  A    between atoms: C_13  and  O_14 
REMARK    3  A    between atoms: C_13  and  C_15 
ROOT
HETATM    1  C   UNL     1      43.674 -11.874   4.837  1.00  0.00     0.259 C 
HETATM    2  N   UNL     1      42.886 -13.032   4.706  1.00  0.00    -0.348 N 
HETATM    3  C   UNL     1      42.559 -13.931   5.811  1.00  0.00     0.129 C 
HETATM    4  C   UNL     1      41.311 -14.776   5.565  1.00  0.00     0.063 C 
HETATM    5  C   UNL     1      41.342 -15.495   4.203  1.00  0.00     0.088 C 
HETATM    6  C   UNL     1      41.487 -14.380   3.151  1.00  0.00     0.063 C 
HETATM    7  C   UNL     1      42.767 -13.582   3.356  1.00  0.00     0.129 C 
HETATM    8  O   UNL     1      43.975 -11.205   3.846  1.00  0.00    -0.267 OA
ENDROOT
BRANCH   1   9
HETATM    9  C   UNL     1      44.087 -11.386   6.144  1.00  0.00     0.099 A 
HETATM   10  C   UNL     1      43.416 -10.645   7.104  1.00  0.00     0.168 A 
HETATM   11  N   UNL     1      42.168 -10.080   7.132  1.00  0.00    -0.233 NA
HETATM   12  N   UNL     1      44.284 -10.548   8.206  1.00  0.00    -0.219 N 
HETATM   13  C   UNL     1      41.840  -9.416   8.201  1.00  0.00     0.035 A 
HETATM   14  C   UNL     1      40.482  -8.762   8.251  1.00  0.00     0.070 C 
HETATM   15  C   UNL     1      42.705  -9.254   9.409  1.00  0.00     0.053 A 
HETATM   16  C   UNL     1      43.911  -9.844   9.360  1.00  0.00     0.036 A 
HETATM   17  C   UNL     1      44.885  -9.791  10.498  1.00  0.00     0.070 C 
HETATM   18  N   UNL     1      45.449 -11.205   7.984  1.00  0.00    -0.177 NA
HETATM   19  C   UNL     1      45.304 -11.731   6.771  1.00  0.00     0.160 A 
ENDBRANCH   1   9
BRANCH   5  20
HETATM   20  O   UNL     1      40.041 -16.080   4.022  1.00  0.00    -0.385 OA
HETATM   21  H   UNL     1      39.579 -16.063   4.878  1.00  0.00     0.211 HD
ENDBRANCH   5  20
BRANCH   5  22
HETATM   22  C   UNL     1      42.365 -16.629   4.055  1.00  0.00    -0.024 A 
HETATM   23  C   UNL     1      43.025 -17.203   5.156  1.00  0.00     0.010 A 
HETATM   24  C   UNL     1      43.949 -18.241   4.990  1.00  0.00     0.001 A 
HETATM   25  C   UNL     1      44.218 -18.743   3.722  1.00  0.00     0.000 A 
HETATM   26  C   UNL     1      43.551 -18.221   2.620  1.00  0.00     0.001 A 
HETATM   27  C   UNL     1      42.628 -17.186   2.787  1.00  0.00     0.010 A 
ENDBRANCH   5  22
TORSDOF 3
ENDMDL
MODEL 2
REMARK VINA RESULT:      -8.6      4.891      7.345
REMARK  3 active torsions:
REMARK  status: ('A' for Active; 'I' for Inactive)
REMARK    1  A    between atoms: C_8  and  C_9 
REMARK       I    between atoms: C_9  and  N_10 
REMARK    2  A    between atoms: C_13  and  O_14 
REMARK    3  A    between atoms: C_13  and  C_15 
ROOT
HETATM    1  C   UNL     1      40.205 -14.361   2.412  1.00  0.00     0.259 C 
HETATM    2  N   UNL     1      41.223 -15.001   3.141  1.00  0.00    -0.348 N 
HETATM    3  C   UNL     1      42.632 -15.006   2.751  1.00  0.00     0.129 C 
HETATM    4  C   UNL     1      43.589 -15.280   3.910  1.00  0.00     0.063 C 
HETATM    5  C   UNL     1      43.191 -16.526   4.723  1.00  0.00     0.088 C 
HETATM    6  C   UNL     1      41.760 -16.256   5.222  1.00  0.00     0.063 C 
HETATM    7  C   UNL     1      40.795 -16.052   4.063  1.00  0.00     0.129 C 
HETATM    8  O   UNL     1      39.026 -14.465   2.758  1.00  0.00    -0.267 OA
ENDROOT
BRANCH   1   9
HETATM    9  C   UNL     1      40.514 -13.497   1.282  1.00  0.00     0.099 A 
HETATM   10  C   UNL     1      40.179 -13.583  -0.060  1.00  0.00     0.168 A 
HETATM   11  N   UNL     1      39.496 -14.523  -0.786  1.00  0.00    -0.233 NA
HETATM   12  N   UNL     1      40.678 -12.416  -0.666  1.00  0.00    -0.219 N 
HETATM   13  C   UNL     1      39.368 -14.310  -2.063  1.00  0.00     0.035 A 
HETATM   14  C   UNL     1      38.642 -15.339  -2.892  1.00  0.00     0.070 C 
HETATM   15  C   UNL     1      39.876 -13.106  -2.787  1.00  0.00     0.053 A 
HETATM   16  C   UNL     1      40.516 -12.190  -2.040  1.00  0.00     0.036 A 
HETATM   17  C   UNL     1      41.065 -10.919  -2.614  1.00  0.00     0.070 C 
HETATM   18  N   UNL     1      41.286 -11.606   0.235  1.00  0.00    -0.177 NA
HETATM   19  C   UNL     1      41.148 -12.241   1.395  1.00  0.00     0.160 A 
ENDBRANCH   1   9
BRANCH   5  20
HETATM   20  O   UNL     1      44.045 -16.547   5.880  1.00  0.00    -0.385 OA
HETATM   21  H   UNL     1      43.886 -17.378   6.360  1.00  0.00     0.211 HD
ENDBRANCH   5  20
BRANCH   5  22
HETATM   22  C   UNL     1      43.362 -17.880   4.021  1.00  0.00    -0.024 A 
HETATM   23  C   UNL     1      43.079 -18.067   2.656  1.00  0.00     0.010 A 
HETATM   24  C   UNL     1      43.250 -19.313   2.042  1.00  0.00     0.001 A 
HETATM   25  C   UNL     1      43.728 -20.395   2.772  1.00  0.00     0.000 A 
HETATM   26  C   UNL     1      44.051 -20.229   4.114  1.00  0.00     0.001 A 
HETATM   27  C   UNL     1      43.882 -18.984   4.725  1.00  0.00     0.010 A 
ENDBRANCH   5  22
TORSDOF 3
ENDMDL
MODEL 3
REMARK VINA RESULT:      -8.2      1.289      2.368
REMARK  3 active torsions:
REMARK  status: ('A' for Active; 'I' for Inactive)
REMARK    1  A    between atoms: C_8  and  C_9 
REMARK       I    between atoms: C_9  and  N_10 
REMARK    2  A    between atoms: C_13  and  O_14 
REMARK    3  A    between atoms: C_13  and  C_15 
ROOT
HETATM    1  C   UNL     1      43.092 -11.949   3.996  1.00  0.00     0.259 C 
HETATM    2  N   UNL     1      42.567 -13.192   3.599  1.00  0.00    -0.348 N 
HETATM    3  C   UNL     1      41.718 -14.030   4.443  1.00  0.00     0.129 C 
HETATM    4  C   UNL     1      40.861 -15.023   3.659  1.00  0.00     0.063 C 
HETATM    5  C   UNL     1      41.683 -15.839   2.643  1.00  0.00     0.088 C 
HETATM    6  C   UNL     1      42.341 -14.802   1.715  1.00  0.00     0.063 C 
HETATM    7  C   UNL     1      43.249 -13.857   2.490  1.00  0.00     0.129 C 
HETATM    8  O   UNL     1      43.866 -11.332   3.261  1.00  0.00    -0.267 OA
ENDROOT
BRANCH   1   9
HETATM    9  C   UNL     1      42.680 -11.317   5.240  1.00  0.00     0.099 A 
HETATM   10  C   UNL     1      43.412 -10.827   6.310  1.00  0.00     0.168 A 
HETATM   11  N   UNL     1      44.755 -10.814   6.584  1.00  0.00    -0.233 NA
HETATM   12  N   UNL     1      42.483 -10.246   7.191  1.00  0.00    -0.219 N 
HETATM   13  C   UNL     1      45.125 -10.281   7.712  1.00  0.00     0.035 A 
HETATM   14  C   UNL     1      46.594 -10.274   8.052  1.00  0.00     0.070 C 
HETATM   15  C   UNL     1      44.205  -9.654   8.708  1.00  0.00     0.053 A 
HETATM   16  C   UNL     1      42.898  -9.658   8.395  1.00  0.00     0.036 A 
HETATM   17  C   UNL     1      41.852  -9.051   9.279  1.00  0.00     0.070 C 
HETATM   18  N   UNL     1      41.218 -10.335   6.713  1.00  0.00    -0.177 NA
HETATM   19  C   UNL     1      41.352 -10.939   5.536  1.00  0.00     0.160 A 
ENDBRANCH   1   9
BRANCH   5  20
HETATM   20  O   UNL     1      40.735 -16.574   1.850  1.00  0.00    -0.385 OA
HETATM   21  H   UNL     1      40.204 -17.128   2.449  1.00  0.00     0.211 HD
ENDBRANCH   5  20
BRANCH   5  22
HETATM   22  C   UNL     1      42.663 -16.865   3.228  1.00  0.00    -0.024 A 
HETATM   23  C   UNL     1      42.996 -16.903   4.594  1.00  0.00     0.010 A 
HETATM   24  C   UNL     1      43.889 -17.854   5.100  1.00  0.00     0.001 A 
HETATM   25  C   UNL     1      44.455 -18.802   4.255  1.00  0.00     0.000 A 
HETATM   26  C   UNL     1      44.114 -18.812   2.908  1.00  0.00     0.001 A 
HETATM   27  C   UNL     1      43.221 -17.863   2.405  1.00  0.00     0.010 A 
ENDBRANCH   5  22
TORSDOF 3
ENDMDL
MODEL 4
REMARK VINA RESULT:      -7.9      2.137      7.944
REMARK  3 active torsions:
REMARK  status: ('A' for Active; 'I' for Inactive)
REMARK    1  A    between atoms: C_8  and  C_9 
REMARK       I    between atoms: C_9  and  N_10 
REMARK    2  A    between atoms: C_13  and  O_14 
REMARK    3  A    between atoms: C_13  and  C_15 
ROOT
HETATM    1  C   UNL     1      42.288 -12.266   6.146  1.00  0.00     0.259 C 
HETATM    2  N   UNL     1      43.049 -11.324   6.864  1.00  0.00    -0.348 N 
HETATM    3  C   UNL     1      44.219 -11.660   7.672  1.00  0.00     0.129 C 
HETATM    4  C   UNL     1      45.162 -10.482   7.907  1.00  0.00     0.063 C 
HETATM    5  C   UNL     1      44.427  -9.228   8.415  1.00  0.00     0.088 C 
HETATM    6  C   UNL     1      43.371  -8.903   7.343  1.00  0.00     0.063 C 
HETATM    7  C   UNL     1      42.390 -10.053   7.160  1.00  0.00     0.129 C 
HETATM    8  O   UNL     1      41.267 -11.921   5.549  1.00  0.00    -0.267 OA
ENDROOT
BRANCH   1   9
HETATM    9  C   UNL     1      42.723 -13.648   6.020  1.00  0.00     0.099 A 
HETATM   10  C   UNL     1      42.818 -14.486   4.920  1.00  0.00     0.168 A 
HETATM   11  N   UNL     1      42.493 -14.320   3.599  1.00  0.00    -0.233 NA
HETATM   12  N   UNL     1      43.388 -15.685   5.385  1.00  0.00    -0.219 N 
HETATM   13  C   UNL     1      42.693 -15.332   2.807  1.00  0.00     0.035 A 
HETATM   14  C   UNL     1      42.322 -15.188   1.352  1.00  0.00     0.070 C 
HETATM   15  C   UNL     1      43.281 -16.642   3.220  1.00  0.00     0.053 A 
HETATM   16  C   UNL     1      43.615 -16.762   4.516  1.00  0.00     0.036 A 
HETATM   17  C   UNL     1      44.233 -18.004   5.081  1.00  0.00     0.070 C 
HETATM   18  N   UNL     1      43.665 -15.625   6.710  1.00  0.00    -0.177 NA
HETATM   19  C   UNL     1      43.301 -14.397   7.068  1.00  0.00     0.160 A 
ENDBRANCH   1   9
BRANCH   5  20
HETATM   20  O   UNL     1      45.388  -8.158   8.399  1.00  0.00    -0.385 OA
HETATM   21  H   UNL     1      45.939  -8.257   7.604  1.00  0.00     0.211 HD
ENDBRANCH   5  20
BRANCH   5  22
HETATM   22  C   UNL     1      43.865  -9.300   9.842  1.00  0.00    -0.024 A 
HETATM   23  C   UNL     1      43.868 -10.485  10.599  1.00  0.00     0.010 A 
HETATM   24  C   UNL     1      43.354 -10.519  11.900  1.00  0.00     0.001 A 
HETATM   25  C   UNL     1      42.845  -9.363  12.482  1.00  0.00     0.000 A 
HETATM   26  C   UNL     1      42.865  -8.170  11.771  1.00  0.00     0.001 A 
HETATM   27  C   UNL     1      43.380  -8.137  10.473  1.00  0.00     0.010 A 
ENDBRANCH   5  22
TORSDOF 3
ENDMDL
MODEL 5
REMARK VINA RESULT:      -7.6      3.038      7.992
REMARK  3 active torsions:
REMARK  status: ('A' for Active; 'I' for Inactive)
REMARK    1  A    between atoms: C_8  and  C_9 
REMARK       I    between atoms: C_9  and  N_10 
REMARK    2  A    between atoms: C_13  and  O_14 
REMARK    3  A    between atoms: C_13  and  C_15 
ROOT
HETATM    1  C   UNL     1      39.491 -11.152   6.589  1.00  0.00     0.259 C 
HETATM    2  N   UNL     1      40.405 -10.117   6.860  1.00  0.00    -0.348 N 
HETATM    3  C   UNL     1      41.696  -9.967   6.192  1.00  0.00     0.129 C 
HETATM    4  C   UNL     1      42.254  -8.547   6.246  1.00  0.00     0.063 C 
HETATM    5  C   UNL     1      42.250  -7.964   7.672  1.00  0.00     0.088 C 
HETATM    6  C   UNL     1      40.783  -8.014   8.135  1.00  0.00     0.063 C 
HETATM    7  C   UNL     1      40.250  -9.440   8.146  1.00  0.00     0.129 C 
HETATM    8  O   UNL     1      38.454 -11.261   7.247  1.00  0.00    -0.267 OA
ENDROOT
BRANCH   1   9
HETATM    9  C   UNL     1      39.697 -12.070   5.479  1.00  0.00     0.099 A 
HETATM   10  C   UNL     1      40.254 -13.339   5.426  1.00  0.00     0.168 A 
HETATM   11  N   UNL     1      40.840 -14.133   6.377  1.00  0.00    -0.233 NA
HETATM   12  N   UNL     1      40.105 -13.780   4.100  1.00  0.00    -0.219 N 
HETATM   13  C   UNL     1      41.289 -15.290   5.989  1.00  0.00     0.035 A 
HETATM   14  C   UNL     1      41.961 -16.176   7.008  1.00  0.00     0.070 C 
HETATM   15  C   UNL     1      41.183 -15.830   4.601  1.00  0.00     0.053 A 
HETATM   16  C   UNL     1      40.578 -15.038   3.699  1.00  0.00     0.036 A 
HETATM   17  C   UNL     1      40.375 -15.444   2.271  1.00  0.00     0.070 C 
HETATM   18  N   UNL     1      39.470 -12.858   3.335  1.00  0.00    -0.177 NA
HETATM   19  C   UNL     1      39.199 -11.864   4.175  1.00  0.00     0.160 A 
ENDBRANCH   1   9
BRANCH   5  20
HETATM   20  O   UNL     1      42.606  -6.576   7.545  1.00  0.00    -0.385 OA
HETATM   21  H   UNL     1      43.299  -6.380   8.199  1.00  0.00     0.211 HD
ENDBRANCH   5  20
BRANCH   5  22
HETATM   22  C   UNL     1      43.240  -8.588   8.665  1.00  0.00    -0.024 A 
HETATM   23  C   UNL     1      44.410  -9.250   8.254  1.00  0.00     0.010 A 
HETATM   24  C   UNL     1      45.297  -9.804   9.184  1.00  0.00     0.001 A 
HETATM   25  C   UNL     1      45.045  -9.691  10.546  1.00  0.00     0.000 A 
HETATM   26  C   UNL     1      43.915  -9.009  10.981  1.00  0.00     0.001 A 
HETATM   27  C   UNL     1      43.032  -8.454  10.052  1.00  0.00     0.010 A 
ENDBRANCH   5  22
TORSDOF 3
ENDMDL
MODEL 6
REMARK VINA RESULT:      -7.6      2.077      3.316
REMARK  3 active torsions:
REMARK  status: ('A' for Active; 'I' for Inactive)
REMARK    1  A    between atoms: C_8  and  C_9 
REMARK       I    between atoms: C_9  and  N_10 
REMARK    2  A    between atoms: C_13  and  O_14 
REMARK    3  A    between atoms: C_13  and  C_15 
ROOT
HETATM    1  C   UNL     1      41.805 -11.016   2.528  1.00  0.00     0.259 C 
HETATM    2  N   UNL     1      41.283 -12.321   2.463  1.00  0.00    -0.348 N 
HETATM    3  C   UNL     1      40.656 -13.010   3.588  1.00  0.00     0.129 C 
HETATM    4  C   UNL     1      39.722 -14.145   3.170  1.00  0.00     0.063 C 
HETATM    5  C   UNL     1      40.381 -15.114   2.170  1.00  0.00     0.088 C 
HETATM    6  C   UNL     1      40.796 -14.249   0.966  1.00  0.00     0.063 C 
HETATM    7  C   UNL     1      41.780 -13.161   1.374  1.00  0.00     0.129 C 
HETATM    8  O   UNL     1      42.392 -10.527   1.561  1.00  0.00    -0.267 OA
ENDROOT
BRANCH   1   9
HETATM    9  C   UNL     1      41.601 -10.179   3.701  1.00  0.00     0.099 A 
HETATM   10  C   UNL     1      42.217 -10.169   4.943  1.00  0.00     0.168 A 
HETATM   11  N   UNL     1      43.180 -10.965   5.505  1.00  0.00    -0.233 NA
HETATM   12  N   UNL     1      41.671  -9.080   5.644  1.00  0.00    -0.219 N 
HETATM   13  C   UNL     1      43.535 -10.695   6.727  1.00  0.00     0.035 A 
HETATM   14  C   UNL     1      44.576 -11.568   7.381  1.00  0.00     0.070 C 
HETATM   15  C   UNL     1      42.999  -9.567   7.546  1.00  0.00     0.053 A 
HETATM   16  C   UNL     1      42.076  -8.789   6.955  1.00  0.00     0.036 A 
HETATM   17  C   UNL     1      41.457  -7.606   7.637  1.00  0.00     0.070 C 
HETATM   18  N   UNL     1      40.764  -8.406   4.896  1.00  0.00    -0.177 NA
HETATM   19  C   UNL     1      40.760  -9.046   3.730  1.00  0.00     0.160 A 
ENDBRANCH   1   9
BRANCH   5  20
HETATM   20  O   UNL     1      39.342 -15.999   1.717  1.00  0.00    -0.385 OA
HETATM   21  H   UNL     1      38.484 -15.593   1.930  1.00  0.00     0.211 HD
ENDBRANCH   5  20
BRANCH   5  22
HETATM   22  C   UNL     1      41.509 -15.998   2.722  1.00  0.00    -0.024 A 
HETATM   23  C   UNL     1      42.460 -16.619   1.892  1.00  0.00     0.010 A 
HETATM   24  C   UNL     1      43.481 -17.414   2.425  1.00  0.00     0.001 A 
HETATM   25  C   UNL     1      43.587 -17.591   3.800  1.00  0.00     0.000 A 
HETATM   26  C   UNL     1      42.683 -16.958   4.645  1.00  0.00     0.001 A 
HETATM   27  C   UNL     1      41.666 -16.162   4.112  1.00  0.00     0.010 A 
ENDBRANCH   5  22
TORSDOF 3
ENDMDL
MODEL 7
REMARK VINA RESULT:      -7.4      1.452      2.726
REMARK  3 active torsions:
REMARK  status: ('A' for Active; 'I' for Inactive)
REMARK    1  A    between atoms: C_8  and  C_9 
REMARK       I    between atoms: C_9  and  N_10 
REMARK    2  A    between atoms: C_13  and  O_14 
REMARK    3  A    between atoms: C_13  and  C_15 
ROOT
HETATM    1  C   UNL     1      42.383 -11.009   5.398  1.00  0.00     0.259 C 
HETATM    2  N   UNL     1      41.882 -12.279   5.059  1.00  0.00    -0.348 N 
HETATM    3  C   UNL     1      41.028 -13.083   5.931  1.00  0.00     0.129 C 
HETATM    4  C   UNL     1      40.200 -14.129   5.185  1.00  0.00     0.063 C 
HETATM    5  C   UNL     1      41.052 -14.986   4.230  1.00  0.00     0.088 C 
HETATM    6  C   UNL     1      41.715 -13.991   3.260  1.00  0.00     0.063 C 
HETATM    7  C   UNL     1      42.594 -12.993   4.000  1.00  0.00     0.129 C 
HETATM    8  O   UNL     1      43.162 -10.422   4.646  1.00  0.00    -0.267 OA
ENDROOT
BRANCH   1   9
HETATM    9  C   UNL     1      41.938 -10.318   6.599  1.00  0.00     0.099 A 
HETATM   10  C   UNL     1      42.608  -9.968   7.761  1.00  0.00     0.168 A 
HETATM   11  N   UNL     1      43.888 -10.194   8.196  1.00  0.00    -0.233 NA
HETATM   12  N   UNL     1      41.694  -9.234   8.537  1.00  0.00    -0.219 N 
HETATM   13  C   UNL     1      44.204  -9.739   9.372  1.00  0.00     0.035 A 
HETATM   14  C   UNL     1      45.598  -9.994   9.888  1.00  0.00     0.070 C 
HETATM   15  C   UNL     1      43.293  -8.962  10.265  1.00  0.00     0.053 A 
HETATM   16  C   UNL     1      42.054  -8.733   9.796  1.00  0.00     0.036 A 
HETATM   17  C   UNL     1      41.031  -7.952  10.563  1.00  0.00     0.070 C 
HETATM   18  N   UNL     1      40.501  -9.097   7.909  1.00  0.00    -0.177 NA
HETATM   19  C   UNL     1      40.671  -9.712   6.742  1.00  0.00     0.160 A 
ENDBRANCH   1   9
BRANCH   5  20
HETATM   20  O   UNL     1      40.129 -15.776   3.460  1.00  0.00    -0.385 OA
HETATM   21  H   UNL     1      40.319 -15.629   2.517  1.00  0.00     0.211 HD
ENDBRANCH   5  20
BRANCH   5  22
HETATM   22  C   UNL     1      42.034 -15.965   4.888  1.00  0.00    -0.024 A 
HETATM   23  C   UNL     1      43.074 -16.589   4.176  1.00  0.00     0.010 A 
HETATM   24  C   UNL     1      43.958 -17.473   4.804  1.00  0.00     0.001 A 
HETATM   25  C   UNL     1      43.836 -17.737   6.164  1.00  0.00     0.000 A 
HETATM   26  C   UNL     1      42.841 -17.105   6.900  1.00  0.00     0.001 A 
HETATM   27  C   UNL     1      41.960 -16.221   6.271  1.00  0.00     0.010 A 
ENDBRANCH   5  22
TORSDOF 3
ENDMDL
MODEL 8
REMARK VINA RESULT:      -7.4     16.854     19.607
REMARK  3 active torsions:
REMARK  status: ('A' for Active; 'I' for Inactive)
REMARK    1  A    between atoms: C_8  and  C_9 
REMARK       I    between atoms: C_9  and  N_10 
REMARK    2  A    between atoms: C_13  and  O_14 
REMARK    3  A    between atoms: C_13  and  C_15 
ROOT
HETATM    1  C   UNL     1      44.305 -30.848   0.375  1.00  0.00     0.259 C 
HETATM    2  N   UNL     1      45.390 -30.059   0.798  1.00  0.00    -0.348 N 
HETATM    3  C   UNL     1      46.562 -29.767  -0.025  1.00  0.00     0.129 C 
HETATM    4  C   UNL     1      47.320 -28.514   0.408  1.00  0.00     0.063 C 
HETATM    5  C   UNL     1      47.635 -28.506   1.916  1.00  0.00     0.088 C 
HETATM    6  C   UNL     1      46.272 -28.616   2.624  1.00  0.00     0.063 C 
HETATM    7  C   UNL     1      45.548 -29.900   2.243  1.00  0.00     0.129 C 
HETATM    8  O   UNL     1      43.386 -31.117   1.151  1.00  0.00    -0.267 OA
ENDROOT
BRANCH   1   9
HETATM    9  C   UNL     1      44.192 -31.300  -1.003  1.00  0.00     0.099 A 
HETATM   10  C   UNL     1      44.376 -30.637  -2.207  1.00  0.00     0.168 A 
HETATM   11  N   UNL     1      44.673 -29.334  -2.510  1.00  0.00    -0.233 NA
HETATM   12  N   UNL     1      44.219 -31.602  -3.217  1.00  0.00    -0.219 N 
HETATM   13  C   UNL     1      44.759 -29.022  -3.770  1.00  0.00     0.035 A 
HETATM   14  C   UNL     1      45.061 -27.591  -4.135  1.00  0.00     0.070 C 
HETATM   15  C   UNL     1      44.596 -29.981  -4.904  1.00  0.00     0.053 A 
HETATM   16  C   UNL     1      44.334 -31.257  -4.571  1.00  0.00     0.036 A 
HETATM   17  C   UNL     1      44.164 -32.341  -5.591  1.00  0.00     0.070 C 
HETATM   18  N   UNL     1      43.966 -32.830  -2.701  1.00  0.00    -0.177 NA
HETATM   19  C   UNL     1      43.991 -32.644  -1.384  1.00  0.00     0.160 A 
ENDBRANCH   1   9
BRANCH   5  20
HETATM   20  O   UNL     1      48.161 -27.201   2.214  1.00  0.00    -0.385 OA
HETATM   21  H   UNL     1      48.728 -26.926   1.473  1.00  0.00     0.211 HD
ENDBRANCH   5  20
BRANCH   5  22
HETATM   22  C   UNL     1      48.674 -29.526   2.400  1.00  0.00    -0.024 A 
HETATM   23  C   UNL     1      49.517 -30.226   1.519  1.00  0.00     0.010 A 
HETATM   24  C   UNL     1      50.460 -31.146   1.991  1.00  0.00     0.001 A 
HETATM   25  C   UNL     1      50.595 -31.373   3.356  1.00  0.00     0.000 A 
HETATM   26  C   UNL     1      49.801 -30.667   4.252  1.00  0.00     0.001 A 
HETATM   27  C   UNL     1      48.862 -29.747   3.779  1.00  0.00     0.010 A 
ENDBRANCH   5  22
TORSDOF 3
ENDMDL
MODEL 9
REMARK VINA RESULT:      -7.3      4.574      7.873
REMARK  3 active torsions:
REMARK  status: ('A' for Active; 'I' for Inactive)
REMARK    1  A    between atoms: C_8  and  C_9 
REMARK       I    between atoms: C_9  and  N_10 
REMARK    2  A    between atoms: C_13  and  O_14 
REMARK    3  A    between atoms: C_13  and  C_15 
ROOT
HETATM    1  C   UNL     1      42.432  -9.277  12.272  1.00  0.00     0.259 C 
HETATM    2  N   UNL     1      43.201  -9.131  11.103  1.00  0.00    -0.348 N 
HETATM    3  C   UNL     1      42.767  -8.382   9.925  1.00  0.00     0.129 C 
HETATM    4  C   UNL     1      43.918  -7.921   9.033  1.00  0.00     0.063 C 
HETATM    5  C   UNL     1      44.893  -9.063   8.687  1.00  0.00     0.088 C 
HETATM    6  C   UNL     1      45.402  -9.595  10.039  1.00  0.00     0.063 C 
HETATM    7  C   UNL     1      44.260 -10.118  10.899  1.00  0.00     0.129 C 
HETATM    8  O   UNL     1      42.828  -9.989  13.198  1.00  0.00    -0.267 OA
ENDROOT
BRANCH   1   9
HETATM    9  C   UNL     1      41.195  -8.535  12.460  1.00  0.00     0.099 A 
HETATM   10  C   UNL     1      40.951  -7.182  12.638  1.00  0.00     0.168 A 
HETATM   11  N   UNL     1      41.783  -6.098  12.748  1.00  0.00    -0.233 NA
HETATM   12  N   UNL     1      39.554  -7.034  12.675  1.00  0.00    -0.219 N 
HETATM   13  C   UNL     1      41.225  -4.938  12.932  1.00  0.00     0.035 A 
HETATM   14  C   UNL     1      42.115  -3.730  13.081  1.00  0.00     0.070 C 
HETATM   15  C   UNL     1      39.752  -4.695  12.996  1.00  0.00     0.053 A 
HETATM   16  C   UNL     1      38.965  -5.775  12.856  1.00  0.00     0.036 A 
HETATM   17  C   UNL     1      37.469  -5.693  12.877  1.00  0.00     0.070 C 
HETATM   18  N   UNL     1      38.921  -8.222  12.513  1.00  0.00    -0.177 NA
HETATM   19  C   UNL     1      39.906  -9.100  12.347  1.00  0.00     0.160 A 
ENDBRANCH   1   9
BRANCH   5  20
HETATM   20  O   UNL     1      46.014  -8.454   8.024  1.00  0.00    -0.385 OA
HETATM   21  H   UNL     1      46.648  -9.155   7.795  1.00  0.00     0.211 HD
ENDBRANCH   5  20
BRANCH   5  22
HETATM   22  C   UNL     1      44.358 -10.153   7.748  1.00  0.00    -0.024 A 
HETATM   23  C   UNL     1      43.117 -10.051   7.097  1.00  0.00     0.010 A 
HETATM   24  C   UNL     1      42.658 -11.059   6.242  1.00  0.00     0.001 A 
HETATM   25  C   UNL     1      43.440 -12.183   6.002  1.00  0.00     0.000 A 
HETATM   26  C   UNL     1      44.688 -12.293   6.603  1.00  0.00     0.001 A 
HETATM   27  C   UNL     1      45.145 -11.284   7.455  1.00  0.00     0.010 A 
ENDBRANCH   5  22
TORSDOF 3
ENDMDL
MODEL 10
REMARK VINA RESULT:      -7.3     17.619     20.124
REMARK  3 active torsions:
REMARK  status: ('A' for Active; 'I' for Inactive)
REMARK    1  A    between atoms: C_8  and  C_9 
REMARK       I    between atoms: C_9  and  N_10 
REMARK    2  A    between atoms: C_13  and  O_14 
REMARK    3  A    between atoms: C_13  and  C_15 
ROOT
HETATM    1  C   UNL     1      50.012 -30.510  -0.591  1.00  0.00     0.259 C 
HETATM    2  N   UNL     1      48.727 -29.936  -0.612  1.00  0.00    -0.348 N 
HETATM    3  C   UNL     1      47.535 -30.574  -0.058  1.00  0.00     0.129 C 
HETATM    4  C   UNL     1      46.415 -29.592   0.281  1.00  0.00     0.063 C 
HETATM    5  C   UNL     1      46.093 -28.638  -0.884  1.00  0.00     0.088 C 
HETATM    6  C   UNL     1      47.411 -27.906  -1.197  1.00  0.00     0.063 C 
HETATM    7  C   UNL     1      48.507 -28.882  -1.601  1.00  0.00     0.129 C 
HETATM    8  O   UNL     1      50.958 -29.949  -1.147  1.00  0.00    -0.267 OA
ENDROOT
BRANCH   1   9
HETATM    9  C   UNL     1      50.280 -31.733   0.151  1.00  0.00     0.099 A 
HETATM   10  C   UNL     1      50.523 -31.958   1.497  1.00  0.00     0.168 A 
HETATM   11  N   UNL     1      50.643 -31.113   2.570  1.00  0.00    -0.233 NA
HETATM   12  N   UNL     1      50.624 -33.351   1.652  1.00  0.00    -0.219 N 
HETATM   13  C   UNL     1      50.898 -31.654   3.725  1.00  0.00     0.035 A 
HETATM   14  C   UNL     1      51.060 -30.748   4.920  1.00  0.00     0.070 C 
HETATM   15  C   UNL     1      51.032 -33.120   3.975  1.00  0.00     0.053 A 
HETATM   16  C   UNL     1      50.880 -33.922   2.907  1.00  0.00     0.036 A 
HETATM   17  C   UNL     1      50.965 -35.415   2.997  1.00  0.00     0.070 C 
HETATM   18  N   UNL     1      50.438 -34.000   0.476  1.00  0.00    -0.177 NA
HETATM   19  C   UNL     1      50.197 -33.030  -0.400  1.00  0.00     0.160 A 
ENDBRANCH   1   9
BRANCH   5  20
HETATM   20  O   UNL     1      45.178 -27.656  -0.365  1.00  0.00    -0.385 OA
HETATM   21  H   UNL     1      45.450 -27.440   0.544  1.00  0.00     0.211 HD
ENDBRANCH   5  20
BRANCH   5  22
HETATM   22  C   UNL     1      45.421 -29.266  -2.113  1.00  0.00    -0.024 A 
HETATM   23  C   UNL     1      44.744 -30.497  -2.061  1.00  0.00     0.010 A 
HETATM   24  C   UNL     1      44.136 -31.042  -3.197  1.00  0.00     0.001 A 
HETATM   25  C   UNL     1      44.172 -30.359  -4.407  1.00  0.00     0.000 A 
HETATM   26  C   UNL     1      44.801 -29.122  -4.478  1.00  0.00     0.001 A 
HETATM   27  C   UNL     1      45.407 -28.578  -3.343  1.00  0.00     0.010 A 
ENDBRANCH   5  22
TORSDOF 3
ENDMDL
