MODEL 1
REMARK VINA RESULT:      -9.2      0.000      0.000
REMARK  2 active torsions:
REMARK  status: ('A' for Active; 'I' for Inactive)
REMARK    1  A    between atoms: C_4  and  C_5 
REMARK    2  A    between atoms: C_11  and  C_12 
ROOT
HETATM    1  C   UNL     1      41.041 -15.067   4.649  1.00  0.00     0.098 A 
HETATM    2  N   UNL     1      39.959 -14.958   5.447  1.00  0.00    -0.172 NA
HETATM    3  N   UNL     1      40.392 -15.293   6.671  1.00  0.00    -0.261 N 
HETATM    4  H   UNL     1      39.728 -15.287   7.436  1.00  0.00     0.191 HD
HETATM    5  C   UNL     1      41.708 -15.620   6.690  1.00  0.00     0.133 A 
HETATM    6  C   UNL     1      42.179 -15.472   5.410  1.00  0.00     0.028 A 
HETATM    7  C   UNL     1      43.595 -15.787   5.081  1.00  0.00     0.067 C 
HETATM    8  C   UNL     1      44.462 -15.886   6.349  1.00  0.00     0.117 C 
HETATM    9  C   UNL     1      43.754 -16.380   7.608  1.00  0.00     0.224 C 
HETATM   10  O   UNL     1      44.371 -16.927   8.522  1.00  0.00    -0.273 OA
HETATM   11  N   UNL     1      42.422 -16.078   7.762  1.00  0.00    -0.312 N 
HETATM   12  H   UNL     1      41.992 -16.314   8.648  1.00  0.00     0.170 HD
ENDROOT
BRANCH   7  13
HETATM   13  C   UNL     1      43.632 -17.062   4.249  1.00  0.00    -0.046 A 
HETATM   14  C   UNL     1      43.986 -18.261   4.902  1.00  0.00     0.047 A 
HETATM   15  C   UNL     1      43.987 -19.435   4.179  1.00  0.00     0.105 A 
HETATM   16  C   UNL     1      43.656 -19.466   2.848  1.00  0.00     0.105 A 
HETATM   17  O   UNL     1      44.293 -20.667   4.668  1.00  0.00    -0.323 OA
HETATM   18  O   UNL     1      43.719 -20.719   2.325  1.00  0.00    -0.323 OA
HETATM   19  C   UNL     1      43.297 -18.324   2.168  1.00  0.00     0.040 A 
HETATM   20  C   UNL     1      44.111 -21.477   3.488  1.00  0.00     0.352 A 
HETATM   21  C   UNL     1      43.273 -17.118   2.880  1.00  0.00     0.011 A 
ENDBRANCH   7  13
BRANCH   1  22
HETATM   22  C   UNL     1      40.918 -14.840   3.206  1.00  0.00    -0.005 A 
HETATM   23  C   UNL     1      41.621 -13.820   2.555  1.00  0.00     0.014 A 
HETATM   24  C   UNL     1      41.502 -13.647   1.172  1.00  0.00     0.001 A 
HETATM   25  C   UNL     1      40.671 -14.483   0.429  1.00  0.00     0.000 A 
HETATM   26  C   UNL     1      39.951 -15.490   1.066  1.00  0.00     0.001 A 
HETATM   27  C   UNL     1      40.074 -15.666   2.446  1.00  0.00     0.014 A 
ENDBRANCH   1  22
TORSDOF 2
ENDMDL
MODEL 2
REMARK VINA RESULT:      -9.2      2.759      4.615
REMARK  2 active torsions:
REMARK  status: ('A' for Active; 'I' for Inactive)
REMARK    1  A    between atoms: C_4  and  C_5 
REMARK    2  A    between atoms: C_11  and  C_12 
ROOT
HETATM    1  C   UNL     1      43.494 -14.807   6.958  1.00  0.00     0.098 A 
HETATM    2  N   UNL     1      43.237 -14.982   8.271  1.00  0.00    -0.172 NA
HETATM    3  N   UNL     1      43.242 -16.310   8.453  1.00  0.00    -0.261 N 
HETATM    4  H   UNL     1      43.058 -16.670   9.383  1.00  0.00     0.191 HD
HETATM    5  C   UNL     1      43.483 -16.996   7.309  1.00  0.00     0.133 A 
HETATM    6  C   UNL     1      43.672 -16.070   6.315  1.00  0.00     0.028 A 
HETATM    7  C   UNL     1      43.927 -16.500   4.915  1.00  0.00     0.067 C 
HETATM    8  C   UNL     1      44.327 -17.985   4.843  1.00  0.00     0.117 C 
HETATM    9  C   UNL     1      43.725 -18.893   5.913  1.00  0.00     0.224 C 
HETATM   10  O   UNL     1      43.578 -20.100   5.724  1.00  0.00    -0.273 OA
HETATM   11  N   UNL     1      43.472 -18.354   7.151  1.00  0.00    -0.312 N 
HETATM   12  H   UNL     1      43.178 -18.990   7.883  1.00  0.00     0.170 HD
ENDROOT
BRANCH   7  13
HETATM   13  C   UNL     1      42.698 -16.187   4.074  1.00  0.00    -0.046 A 
HETATM   14  C   UNL     1      42.903 -15.652   2.784  1.00  0.00     0.047 A 
HETATM   15  C   UNL     1      41.806 -15.400   1.988  1.00  0.00     0.105 A 
HETATM   16  C   UNL     1      40.527 -15.651   2.417  1.00  0.00     0.105 A 
HETATM   17  O   UNL     1      41.843 -14.898   0.725  1.00  0.00    -0.323 OA
HETATM   18  O   UNL     1      39.593 -15.334   1.481  1.00  0.00    -0.323 OA
HETATM   19  C   UNL     1      40.275 -16.179   3.663  1.00  0.00     0.040 A 
HETATM   20  C   UNL     1      40.436 -14.868   0.406  1.00  0.00     0.352 A 
HETATM   21  C   UNL     1      41.371 -16.460   4.489  1.00  0.00     0.011 A 
ENDBRANCH   7  13
BRANCH   1  22
HETATM   22  C   UNL     1      43.496 -13.460   6.380  1.00  0.00    -0.005 A 
HETATM   23  C   UNL     1      44.586 -12.595   6.522  1.00  0.00     0.014 A 
HETATM   24  C   UNL     1      44.567 -11.326   5.936  1.00  0.00     0.001 A 
HETATM   25  C   UNL     1      43.452 -10.903   5.213  1.00  0.00     0.000 A 
HETATM   26  C   UNL     1      42.352 -11.746   5.080  1.00  0.00     0.001 A 
HETATM   27  C   UNL     1      42.374 -13.015   5.661  1.00  0.00     0.014 A 
ENDBRANCH   1  22
TORSDOF 2
ENDMDL
MODEL 3
REMARK VINA RESULT:      -8.7      1.942      2.676
REMARK  2 active torsions:
REMARK  status: ('A' for Active; 'I' for Inactive)
REMARK    1  A    between atoms: C_4  and  C_5 
REMARK    2  A    between atoms: C_11  and  C_12 
ROOT
HETATM    1  C   UNL     1      40.316 -13.268   3.090  1.00  0.00     0.098 A 
HETATM    2  N   UNL     1      39.161 -13.099   3.768  1.00  0.00    -0.172 NA
HETATM    3  N   UNL     1      39.521 -13.022   5.058  1.00  0.00    -0.261 N 
HETATM    4  H   UNL     1      38.795 -12.901   5.754  1.00  0.00     0.191 HD
HETATM    5  C   UNL     1      40.859 -13.143   5.236  1.00  0.00     0.133 A 
HETATM    6  C   UNL     1      41.422 -13.285   3.993  1.00  0.00     0.028 A 
HETATM    7  C   UNL     1      42.889 -13.476   3.840  1.00  0.00     0.067 C 
HETATM    8  C   UNL     1      43.645 -13.102   5.128  1.00  0.00     0.117 C 
HETATM    9  C   UNL     1      42.892 -13.328   6.437  1.00  0.00     0.224 C 
HETATM   10  O   UNL     1      43.487 -13.512   7.498  1.00  0.00    -0.273 OA
HETATM   11  N   UNL     1      41.525 -13.187   6.430  1.00  0.00    -0.312 N 
HETATM   12  H   UNL     1      41.049 -13.230   7.323  1.00  0.00     0.170 HD
ENDROOT
BRANCH   7  13
HETATM   13  C   UNL     1      43.154 -14.911   3.406  1.00  0.00    -0.046 A 
HETATM   14  C   UNL     1      43.344 -15.878   4.415  1.00  0.00     0.047 A 
HETATM   15  C   UNL     1      43.545 -17.191   4.046  1.00  0.00     0.105 A 
HETATM   16  C   UNL     1      43.566 -17.579   2.730  1.00  0.00     0.105 A 
HETATM   17  O   UNL     1      43.731 -18.234   4.899  1.00  0.00    -0.323 OA
HETATM   18  O   UNL     1      43.776 -18.914   2.584  1.00  0.00    -0.323 OA
HETATM   19  C   UNL     1      43.379 -16.674   1.709  1.00  0.00     0.040 A 
HETATM   20  C   UNL     1      43.867 -19.325   3.964  1.00  0.00     0.352 A 
HETATM   21  C   UNL     1      43.158 -15.334   2.053  1.00  0.00     0.011 A 
ENDBRANCH   7  13
BRANCH   1  22
HETATM   22  C   UNL     1      40.296 -13.463   1.638  1.00  0.00    -0.005 A 
HETATM   23  C   UNL     1      39.872 -14.664   1.058  1.00  0.00     0.014 A 
HETATM   24  C   UNL     1      39.840 -14.809  -0.332  1.00  0.00     0.001 A 
HETATM   25  C   UNL     1      40.242 -13.759  -1.157  1.00  0.00     0.000 A 
HETATM   26  C   UNL     1      40.683 -12.565  -0.593  1.00  0.00     0.001 A 
HETATM   27  C   UNL     1      40.711 -12.419   0.795  1.00  0.00     0.014 A 
ENDBRANCH   1  22
TORSDOF 2
ENDMDL
MODEL 4
REMARK VINA RESULT:      -8.6      3.612      6.466
REMARK  2 active torsions:
REMARK  status: ('A' for Active; 'I' for Inactive)
REMARK    1  A    between atoms: C_4  and  C_5 
REMARK    2  A    between atoms: C_11  and  C_12 
ROOT
HETATM    1  C   UNL     1      41.099 -15.520   2.936  1.00  0.00     0.098 A 
HETATM    2  N   UNL     1      39.821 -15.949   2.873  1.00  0.00    -0.172 NA
HETATM    3  N   UNL     1      39.105 -14.863   2.547  1.00  0.00    -0.261 N 
HETATM    4  H   UNL     1      38.100 -14.959   2.454  1.00  0.00     0.191 HD
HETATM    5  C   UNL     1      39.870 -13.753   2.406  1.00  0.00     0.133 A 
HETATM    6  C   UNL     1      41.171 -14.128   2.627  1.00  0.00     0.028 A 
HETATM    7  C   UNL     1      42.268 -13.126   2.580  1.00  0.00     0.067 C 
HETATM    8  C   UNL     1      41.816 -11.823   1.895  1.00  0.00     0.117 C 
HETATM    9  C   UNL     1      40.342 -11.460   2.056  1.00  0.00     0.224 C 
HETATM   10  O   UNL     1      39.954 -10.294   1.976  1.00  0.00    -0.273 OA
HETATM   11  N   UNL     1      39.430 -12.483   2.157  1.00  0.00    -0.312 N 
HETATM   12  H   UNL     1      38.449 -12.233   2.151  1.00  0.00     0.170 HD
ENDROOT
BRANCH   7  13
HETATM   13  C   UNL     1      42.781 -12.892   3.994  1.00  0.00    -0.046 A 
HETATM   14  C   UNL     1      43.929 -12.088   4.152  1.00  0.00     0.047 A 
HETATM   15  C   UNL     1      44.388 -11.828   5.426  1.00  0.00     0.105 A 
HETATM   16  C   UNL     1      43.760 -12.331   6.538  1.00  0.00     0.105 A 
HETATM   17  O   UNL     1      45.470 -11.066   5.738  1.00  0.00    -0.323 OA
HETATM   18  O   UNL     1      44.371 -11.956   7.693  1.00  0.00    -0.323 OA
HETATM   19  C   UNL     1      42.633 -13.114   6.437  1.00  0.00     0.040 A 
HETATM   20  C   UNL     1      45.446 -11.143   7.179  1.00  0.00     0.352 A 
HETATM   21  C   UNL     1      42.134 -13.383   5.156  1.00  0.00     0.011 A 
ENDBRANCH   7  13
BRANCH   1  22
HETATM   22  C   UNL     1      42.166 -16.440   3.342  1.00  0.00    -0.005 A 
HETATM   23  C   UNL     1      42.596 -16.535   4.670  1.00  0.00     0.014 A 
HETATM   24  C   UNL     1      43.598 -17.442   5.029  1.00  0.00     0.001 A 
HETATM   25  C   UNL     1      44.188 -18.254   4.062  1.00  0.00     0.000 A 
HETATM   26  C   UNL     1      43.783 -18.158   2.734  1.00  0.00     0.001 A 
HETATM   27  C   UNL     1      42.780 -17.255   2.377  1.00  0.00     0.014 A 
ENDBRANCH   1  22
TORSDOF 2
ENDMDL
MODEL 5
REMARK VINA RESULT:      -8.6      2.954      5.314
REMARK  2 active torsions:
REMARK  status: ('A' for Active; 'I' for Inactive)
REMARK    1  A    between atoms: C_4  and  C_5 
REMARK    2  A    between atoms: C_11  and  C_12 
ROOT
HETATM    1  C   UNL     1      43.317 -16.489   5.132  1.00  0.00     0.098 A 
HETATM    2  N   UNL     1      44.412 -15.954   5.711  1.00  0.00    -0.172 NA
HETATM    3  N   UNL     1      43.966 -14.881   6.378  1.00  0.00    -0.261 N 
HETATM    4  H   UNL     1      44.636 -14.317   6.888  1.00  0.00     0.191 HD
HETATM    5  C   UNL     1      42.629 -14.699   6.245  1.00  0.00     0.133 A 
HETATM    6  C   UNL     1      42.158 -15.723   5.464  1.00  0.00     0.028 A 
HETATM    7  C   UNL     1      40.719 -15.798   5.096  1.00  0.00     0.067 C 
HETATM    8  C   UNL     1      39.859 -14.883   5.987  1.00  0.00     0.117 C 
HETATM    9  C   UNL     1      40.539 -13.615   6.498  1.00  0.00     0.224 C 
HETATM   10  O   UNL     1      39.890 -12.617   6.808  1.00  0.00    -0.273 OA
HETATM   11  N   UNL     1      41.892 -13.657   6.736  1.00  0.00    -0.312 N 
HETATM   12  H   UNL     1      42.311 -12.848   7.178  1.00  0.00     0.170 HD
ENDROOT
BRANCH   7  13
HETATM   13  C   UNL     1      40.573 -15.474   3.616  1.00  0.00    -0.046 A 
HETATM   14  C   UNL     1      41.070 -14.234   3.164  1.00  0.00     0.047 A 
HETATM   15  C   UNL     1      40.986 -13.935   1.821  1.00  0.00     0.105 A 
HETATM   16  C   UNL     1      40.433 -14.808   0.918  1.00  0.00     0.105 A 
HETATM   17  O   UNL     1      41.429 -12.791   1.234  1.00  0.00    -0.323 OA
HETATM   18  O   UNL     1      40.449 -14.322  -0.352  1.00  0.00    -0.323 OA
HETATM   19  C   UNL     1      39.941 -16.033   1.308  1.00  0.00     0.040 A 
HETATM   20  C   UNL     1      41.093 -13.049  -0.145  1.00  0.00     0.352 A 
HETATM   21  C   UNL     1      40.025 -16.371   2.666  1.00  0.00     0.011 A 
ENDBRANCH   7  13
BRANCH   1  22
HETATM   22  C   UNL     1      43.443 -17.654   4.252  1.00  0.00    -0.005 A 
HETATM   23  C   UNL     1      43.171 -17.579   2.881  1.00  0.00     0.014 A 
HETATM   24  C   UNL     1      43.326 -18.703   2.064  1.00  0.00     0.001 A 
HETATM   25  C   UNL     1      43.742 -19.916   2.611  1.00  0.00     0.000 A 
HETATM   26  C   UNL     1      43.999 -20.010   3.976  1.00  0.00     0.001 A 
HETATM   27  C   UNL     1      43.848 -18.886   4.790  1.00  0.00     0.014 A 
ENDBRANCH   1  22
TORSDOF 2
ENDMDL
MODEL 6
REMARK VINA RESULT:      -8.4      3.505      5.823
REMARK  2 active torsions:
REMARK  status: ('A' for Active; 'I' for Inactive)
REMARK    1  A    between atoms: C_4  and  C_5 
REMARK    2  A    between atoms: C_11  and  C_12 
ROOT
HETATM    1  C   UNL     1      42.898 -14.595   5.204  1.00  0.00     0.098 A 
HETATM    2  N   UNL     1      43.878 -14.142   6.013  1.00  0.00    -0.172 NA
HETATM    3  N   UNL     1      43.373 -13.045   6.594  1.00  0.00    -0.261 N 
HETATM    4  H   UNL     1      43.956 -12.533   7.246  1.00  0.00     0.191 HD
HETATM    5  C   UNL     1      42.110 -12.769   6.185  1.00  0.00     0.133 A 
HETATM    6  C   UNL     1      41.748 -13.752   5.300  1.00  0.00     0.028 A 
HETATM    7  C   UNL     1      40.419 -13.724   4.635  1.00  0.00     0.067 C 
HETATM    8  C   UNL     1      39.452 -12.757   5.343  1.00  0.00     0.117 C 
HETATM    9  C   UNL     1      40.092 -11.544   6.014  1.00  0.00     0.224 C 
HETATM   10  O   UNL     1      39.460 -10.504   6.201  1.00  0.00    -0.273 OA
HETATM   11  N   UNL     1      41.357 -11.682   6.531  1.00  0.00    -0.312 N 
HETATM   12  H   UNL     1      41.726 -10.907   7.069  1.00  0.00     0.170 HD
ENDROOT
BRANCH   7  13
HETATM   13  C   UNL     1      40.613 -13.380   3.165  1.00  0.00    -0.046 A 
HETATM   14  C   UNL     1      40.029 -14.235   2.207  1.00  0.00     0.047 A 
HETATM   15  C   UNL     1      40.156 -13.921   0.871  1.00  0.00     0.105 A 
HETATM   16  C   UNL     1      40.834 -12.804   0.451  1.00  0.00     0.105 A 
HETATM   17  O   UNL     1      39.641 -14.638  -0.164  1.00  0.00    -0.323 OA
HETATM   18  O   UNL     1      40.840 -12.679  -0.903  1.00  0.00    -0.323 OA
HETATM   19  C   UNL     1      41.414 -11.935   1.346  1.00  0.00     0.040 A 
HETATM   20  C   UNL     1      40.071 -13.838  -1.285  1.00  0.00     0.352 A 
HETATM   21  C   UNL     1      41.290 -12.220   2.712  1.00  0.00     0.011 A 
ENDBRANCH   7  13
BRANCH   1  22
HETATM   22  C   UNL     1      43.129 -15.760   4.346  1.00  0.00    -0.005 A 
HETATM   23  C   UNL     1      43.319 -17.042   4.873  1.00  0.00     0.014 A 
HETATM   24  C   UNL     1      43.512 -18.137   4.025  1.00  0.00     0.001 A 
HETATM   25  C   UNL     1      43.528 -17.960   2.643  1.00  0.00     0.000 A 
HETATM   26  C   UNL     1      43.359 -16.688   2.105  1.00  0.00     0.001 A 
HETATM   27  C   UNL     1      43.162 -15.595   2.951  1.00  0.00     0.014 A 
ENDBRANCH   1  22
TORSDOF 2
ENDMDL
MODEL 7
REMARK VINA RESULT:      -8.3      4.553      7.041
REMARK  2 active torsions:
REMARK  status: ('A' for Active; 'I' for Inactive)
REMARK    1  A    between atoms: C_4  and  C_5 
REMARK    2  A    between atoms: C_11  and  C_12 
ROOT
HETATM    1  C   UNL     1      42.800 -13.081   3.273  1.00  0.00     0.098 A 
HETATM    2  N   UNL     1      43.898 -12.394   3.651  1.00  0.00    -0.172 NA
HETATM    3  N   UNL     1      43.512 -11.110   3.682  1.00  0.00    -0.261 N 
HETATM    4  H   UNL     1      44.197 -10.407   3.939  1.00  0.00     0.191 HD
HETATM    5  C   UNL     1      42.214 -10.944   3.332  1.00  0.00     0.133 A 
HETATM    6  C   UNL     1      41.701 -12.190   3.076  1.00  0.00     0.028 A 
HETATM    7  C   UNL     1      40.293 -12.355   2.629  1.00  0.00     0.067 C 
HETATM    8  C   UNL     1      39.465 -11.082   2.884  1.00  0.00     0.117 C 
HETATM    9  C   UNL     1      40.229  -9.762   2.812  1.00  0.00     0.224 C 
HETATM   10  O   UNL     1      39.661  -8.704   2.543  1.00  0.00    -0.273 OA
HETATM   11  N   UNL     1      41.549  -9.757   3.190  1.00  0.00    -0.312 N 
HETATM   12  H   UNL     1      42.014  -8.858   3.244  1.00  0.00     0.170 HD
ENDROOT
BRANCH   7  13
HETATM   13  C   UNL     1      40.288 -12.769   1.164  1.00  0.00    -0.046 A 
HETATM   14  C   UNL     1      40.796 -11.851   0.221  1.00  0.00     0.047 A 
HETATM   15  C   UNL     1      40.840 -12.219  -1.107  1.00  0.00     0.105 A 
HETATM   16  C   UNL     1      40.402 -13.448  -1.532  1.00  0.00     0.105 A 
HETATM   17  O   UNL     1      41.311 -11.452  -2.127  1.00  0.00    -0.323 OA
HETATM   18  O   UNL     1      40.534 -13.610  -2.876  1.00  0.00    -0.323 OA
HETATM   19  C   UNL     1      39.905 -14.381  -0.651  1.00  0.00     0.040 A 
HETATM   20  C   UNL     1      41.122 -12.345  -3.244  1.00  0.00     0.352 A 
HETATM   21  C   UNL     1      39.861 -14.041   0.708  1.00  0.00     0.011 A 
ENDBRANCH   7  13
BRANCH   1  22
HETATM   22  C   UNL     1      42.873 -14.529   3.063  1.00  0.00    -0.005 A 
HETATM   23  C   UNL     1      42.549 -15.441   4.074  1.00  0.00     0.014 A 
HETATM   24  C   UNL     1      42.604 -16.818   3.833  1.00  0.00     0.001 A 
HETATM   25  C   UNL     1      42.995 -17.297   2.584  1.00  0.00     0.000 A 
HETATM   26  C   UNL     1      43.338 -16.401   1.574  1.00  0.00     0.001 A 
HETATM   27  C   UNL     1      43.278 -15.027   1.814  1.00  0.00     0.014 A 
ENDBRANCH   1  22
TORSDOF 2
ENDMDL
MODEL 8
REMARK VINA RESULT:      -8.1     13.521     15.262
REMARK  2 active torsions:
REMARK  status: ('A' for Active; 'I' for Inactive)
REMARK    1  A    between atoms: C_4  and  C_5 
REMARK    2  A    between atoms: C_11  and  C_12 
ROOT
HETATM    1  C   UNL     1      46.109 -29.439   1.332  1.00  0.00     0.098 A 
HETATM    2  N   UNL     1      46.027 -28.448   2.244  1.00  0.00    -0.172 NA
HETATM    3  N   UNL     1      44.762 -28.484   2.686  1.00  0.00    -0.261 N 
HETATM    4  H   UNL     1      44.476 -27.807   3.384  1.00  0.00     0.191 HD
HETATM    5  C   UNL     1      44.026 -29.453   2.089  1.00  0.00     0.133 A 
HETATM    6  C   UNL     1      44.855 -30.113   1.218  1.00  0.00     0.028 A 
HETATM    7  C   UNL     1      44.341 -31.222   0.372  1.00  0.00     0.067 C 
HETATM    8  C   UNL     1      42.984 -31.741   0.883  1.00  0.00     0.117 C 
HETATM    9  C   UNL     1      42.089 -30.711   1.568  1.00  0.00     0.224 C 
HETATM   10  O   UNL     1      40.866 -30.846   1.606  1.00  0.00    -0.273 OA
HETATM   11  N   UNL     1      42.691 -29.692   2.265  1.00  0.00    -0.312 N 
HETATM   12  H   UNL     1      42.090 -29.081   2.806  1.00  0.00     0.170 HD
ENDROOT
BRANCH   7  13
HETATM   13  C   UNL     1      44.276 -30.749  -1.073  1.00  0.00    -0.046 A 
HETATM   14  C   UNL     1      44.385 -31.722  -2.088  1.00  0.00     0.047 A 
HETATM   15  C   UNL     1      44.287 -31.322  -3.404  1.00  0.00     0.105 A 
HETATM   16  C   UNL     1      44.090 -30.008  -3.749  1.00  0.00     0.105 A 
HETATM   17  O   UNL     1      44.360 -32.139  -4.488  1.00  0.00    -0.323 OA
HETATM   18  O   UNL     1      44.022 -29.829  -5.095  1.00  0.00    -0.323 OA
HETATM   19  C   UNL     1      43.970 -29.023  -2.795  1.00  0.00     0.040 A 
HETATM   20  C   UNL     1      44.181 -31.186  -5.556  1.00  0.00     0.352 A 
HETATM   21  C   UNL     1      44.050 -29.401  -1.448  1.00  0.00     0.011 A 
ENDBRANCH   7  13
BRANCH   1  22
HETATM   22  C   UNL     1      47.350 -29.649   0.581  1.00  0.00    -0.005 A 
HETATM   23  C   UNL     1      48.374 -30.473   1.059  1.00  0.00     0.014 A 
HETATM   24  C   UNL     1      49.535 -30.673   0.305  1.00  0.00     0.001 A 
HETATM   25  C   UNL     1      49.689 -30.042  -0.928  1.00  0.00     0.000 A 
HETATM   26  C   UNL     1      48.686 -29.204  -1.408  1.00  0.00     0.001 A 
HETATM   27  C   UNL     1      47.525 -29.009  -0.657  1.00  0.00     0.014 A 
ENDBRANCH   1  22
TORSDOF 2
ENDMDL
MODEL 9
REMARK VINA RESULT:      -8.1     13.347     14.742
REMARK  2 active torsions:
REMARK  status: ('A' for Active; 'I' for Inactive)
REMARK    1  A    between atoms: C_4  and  C_5 
REMARK    2  A    between atoms: C_11  and  C_12 
ROOT
HETATM    1  C   UNL     1      44.668 -29.453   0.110  1.00  0.00     0.098 A 
HETATM    2  N   UNL     1      43.566 -29.964   0.698  1.00  0.00    -0.172 NA
HETATM    3  N   UNL     1      43.913 -30.161   1.978  1.00  0.00    -0.261 N 
HETATM    4  H   UNL     1      43.224 -30.554   2.609  1.00  0.00     0.191 HD
HETATM    5  C   UNL     1      45.195 -29.804   2.234  1.00  0.00     0.133 A 
HETATM    6  C   UNL     1      45.723 -29.322   1.063  1.00  0.00     0.028 A 
HETATM    7  C   UNL     1      47.138 -28.872   0.995  1.00  0.00     0.067 C 
HETATM    8  C   UNL     1      47.731 -28.656   2.400  1.00  0.00     0.117 C 
HETATM    9  C   UNL     1      47.177 -29.553   3.505  1.00  0.00     0.224 C 
HETATM   10  O   UNL     1      47.835 -29.814   4.512  1.00  0.00    -0.273 OA
HETATM   11  N   UNL     1      45.867 -29.956   3.415  1.00  0.00    -0.312 N 
HETATM   12  H   UNL     1      45.480 -30.456   4.206  1.00  0.00     0.170 HD
ENDROOT
BRANCH   7  13
HETATM   13  C   UNL     1      47.934 -29.879   0.176  1.00  0.00    -0.046 A 
HETATM   14  C   UNL     1      49.036 -29.400  -0.562  1.00  0.00     0.047 A 
HETATM   15  C   UNL     1      49.797 -30.299  -1.279  1.00  0.00     0.105 A 
HETATM   16  C   UNL     1      49.509 -31.641  -1.293  1.00  0.00     0.105 A 
HETATM   17  O   UNL     1      50.891 -29.993  -2.026  1.00  0.00    -0.323 OA
HETATM   18  O   UNL     1      50.381 -32.351  -2.058  1.00  0.00    -0.323 OA
HETATM   19  C   UNL     1      48.450 -32.158  -0.583  1.00  0.00     0.040 A 
HETATM   20  C   UNL     1      51.261 -31.301  -2.509  1.00  0.00     0.352 A 
HETATM   21  C   UNL     1      47.667 -31.270   0.167  1.00  0.00     0.011 A 
ENDBRANCH   7  13
BRANCH   1  22
HETATM   22  C   UNL     1      44.674 -29.177  -1.330  1.00  0.00    -0.005 A 
HETATM   23  C   UNL     1      45.209 -27.995  -1.855  1.00  0.00     0.014 A 
HETATM   24  C   UNL     1      45.223 -27.774  -3.235  1.00  0.00     0.001 A 
HETATM   25  C   UNL     1      44.692 -28.725  -4.104  1.00  0.00     0.000 A 
HETATM   26  C   UNL     1      44.140 -29.897  -3.595  1.00  0.00     0.001 A 
HETATM   27  C   UNL     1      44.130 -30.120  -2.217  1.00  0.00     0.014 A 
ENDBRANCH   1  22
TORSDOF 2
ENDMDL
MODEL 10
REMARK VINA RESULT:      -8.0      3.173      5.365
REMARK  2 active torsions:
REMARK  status: ('A' for Active; 'I' for Inactive)
REMARK    1  A    between atoms: C_4  and  C_5 
REMARK    2  A    between atoms: C_11  and  C_12 
ROOT
HETATM    1  C   UNL     1      42.617 -16.669   3.299  1.00  0.00     0.098 A 
HETATM    2  N   UNL     1      43.540 -17.569   2.902  1.00  0.00    -0.172 NA
HETATM    3  N   UNL     1      44.143 -17.971   4.029  1.00  0.00    -0.261 N 
HETATM    4  H   UNL     1      44.890 -18.653   3.960  1.00  0.00     0.191 HD
HETATM    5  C   UNL     1      43.651 -17.360   5.134  1.00  0.00     0.133 A 
HETATM    6  C   UNL     1      42.647 -16.522   4.719  1.00  0.00     0.028 A 
HETATM    7  C   UNL     1      41.916 -15.670   5.695  1.00  0.00     0.067 C 
HETATM    8  C   UNL     1      42.147 -16.143   7.142  1.00  0.00     0.117 C 
HETATM    9  C   UNL     1      43.500 -16.789   7.427  1.00  0.00     0.224 C 
HETATM   10  O   UNL     1      43.988 -16.790   8.557  1.00  0.00    -0.273 OA
HETATM   11  N   UNL     1      44.106 -17.495   6.416  1.00  0.00    -0.312 N 
HETATM   12  H   UNL     1      44.947 -18.011   6.649  1.00  0.00     0.170 HD
ENDROOT
BRANCH   7  13
HETATM   13  C   UNL     1      42.326 -14.220   5.484  1.00  0.00    -0.046 A 
HETATM   14  C   UNL     1      41.400 -13.360   4.857  1.00  0.00     0.047 A 
HETATM   15  C   UNL     1      41.732 -12.033   4.692  1.00  0.00     0.105 A 
HETATM   16  C   UNL     1      42.936 -11.529   5.119  1.00  0.00     0.105 A 
HETATM   17  O   UNL     1      40.945 -11.084   4.119  1.00  0.00    -0.323 OA
HETATM   18  O   UNL     1      43.063 -10.200   4.862  1.00  0.00    -0.323 OA
HETATM   19  C   UNL     1      43.869 -12.325   5.743  1.00  0.00     0.040 A 
HETATM   20  C   UNL     1      41.792  -9.922   4.240  1.00  0.00     0.352 A 
HETATM   21  C   UNL     1      43.554 -13.676   5.937  1.00  0.00     0.011 A 
ENDBRANCH   7  13
BRANCH   1  22
HETATM   22  C   UNL     1      41.804 -15.959   2.307  1.00  0.00    -0.005 A 
HETATM   23  C   UNL     1      40.530 -16.404   1.939  1.00  0.00     0.014 A 
HETATM   24  C   UNL     1      39.769 -15.690   1.009  1.00  0.00     0.001 A 
HETATM   25  C   UNL     1      40.280 -14.530   0.427  1.00  0.00     0.000 A 
HETATM   26  C   UNL     1      41.553 -14.086   0.770  1.00  0.00     0.001 A 
HETATM   27  C   UNL     1      42.311 -14.797   1.702  1.00  0.00     0.014 A 
ENDBRANCH   1  22
TORSDOF 2
ENDMDL
