MODEL 1
REMARK VINA RESULT:      -8.4      0.000      0.000
REMARK  4 active torsions:
REMARK  status: ('A' for Active; 'I' for Inactive)
REMARK    1  A    between atoms: C_5  and  C_6 
REMARK    2  A    between atoms: C_9  and  C_10 
REMARK    3  A    between atoms: C_10  and  N_11 
REMARK       I    between atoms: N_11  and  C_12 
REMARK       I    between atoms: C_12  and  N_13 
REMARK    4  A    between atoms: N_13  and  C_14 
ROOT
HETATM    1  C   UNL     1      42.259 -12.089   3.515  1.00  0.00     0.213 C 
ENDROOT
BRANCH   1   2
HETATM    2  C   UNL     1      42.718 -13.475   3.259  1.00  0.00     0.190 A 
HETATM    3  O   UNL     1      42.946 -13.814   1.959  1.00  0.00    -0.194 OA
HETATM    4  N   UNL     1      43.285 -15.164   1.955  1.00  0.00    -0.106 NA
HETATM    5  C   UNL     1      43.234 -15.514   3.251  1.00  0.00     0.189 A 
HETATM    6  N   UNL     1      42.893 -14.476   4.096  1.00  0.00    -0.202 NA
BRANCH   5   7
HETATM    7  C   UNL     1      43.485 -16.868   3.737  1.00  0.00     0.014 A 
HETATM    8  C   UNL     1      43.592 -17.136   5.110  1.00  0.00     0.016 A 
HETATM    9  C   UNL     1      43.847 -18.433   5.569  1.00  0.00     0.007 A 
HETATM   10  C   UNL     1      44.003 -19.486   4.663  1.00  0.00    -0.062 A 
HETATM   11  C   UNL     1      44.258 -20.884   5.144  1.00  0.00     0.048 C 
HETATM   12  C   UNL     1      43.889 -19.226   3.292  1.00  0.00     0.007 A 
HETATM   13  C   UNL     1      43.636 -17.930   2.835  1.00  0.00     0.016 A 
ENDBRANCH   5   7
ENDBRANCH   1   2
BRANCH   1  14
HETATM   14  N   UNL     1      42.744 -11.623   4.799  1.00  0.00    -0.335 N 
HETATM   15  C   UNL     1      41.990 -11.738   5.922  1.00  0.00     0.321 C 
HETATM   16  N   UNL     1      42.568 -11.422   7.110  1.00  0.00    -0.309 N 
HETATM   17  O   UNL     1      40.847 -12.190   5.911  1.00  0.00    -0.247 OA
HETATM   18  H   UNL     1      42.017 -11.775   7.885  1.00  0.00     0.170 HD
HETATM   19  H   UNL     1      43.745 -11.595   4.926  1.00  0.00     0.164 HD
BRANCH  16  20
HETATM   20  C   UNL     1      43.730 -10.709   7.449  1.00  0.00     0.036 A 
HETATM   21  C   UNL     1      43.730  -9.428   8.009  1.00  0.00     0.029 A 
HETATM   22  C   UNL     1      44.938  -8.795   8.323  1.00  0.00     0.002 A 
HETATM   23  C   UNL     1      46.151  -9.441   8.094  1.00  0.00     0.000 A 
HETATM   24  C   UNL     1      46.159 -10.729   7.567  1.00  0.00     0.002 A 
HETATM   25  C   UNL     1      44.954 -11.364   7.258  1.00  0.00     0.029 A 
ENDBRANCH  16  20
ENDBRANCH   1  14
TORSDOF 4
ENDMDL
MODEL 2
REMARK VINA RESULT:      -8.3      1.968      2.643
REMARK  4 active torsions:
REMARK  status: ('A' for Active; 'I' for Inactive)
REMARK    1  A    between atoms: C_5  and  C_6 
REMARK    2  A    between atoms: C_9  and  C_10 
REMARK    3  A    between atoms: C_10  and  N_11 
REMARK       I    between atoms: N_11  and  C_12 
REMARK       I    between atoms: C_12  and  N_13 
REMARK    4  A    between atoms: N_13  and  C_14 
ROOT
HETATM    1  C   UNL     1      41.193 -12.467   5.895  1.00  0.00     0.213 C 
ENDROOT
BRANCH   1   2
HETATM    2  C   UNL     1      41.958 -13.718   5.686  1.00  0.00     0.190 A 
HETATM    3  O   UNL     1      43.062 -13.898   6.462  1.00  0.00    -0.194 OA
HETATM    4  N   UNL     1      43.655 -15.085   6.040  1.00  0.00    -0.106 NA
HETATM    5  C   UNL     1      42.853 -15.513   5.051  1.00  0.00     0.189 A 
HETATM    6  N   UNL     1      41.773 -14.685   4.812  1.00  0.00    -0.202 NA
BRANCH   5   7
HETATM    7  C   UNL     1      43.099 -16.724   4.273  1.00  0.00     0.014 A 
HETATM    8  C   UNL     1      44.013 -17.693   4.712  1.00  0.00     0.016 A 
HETATM    9  C   UNL     1      44.255 -18.845   3.955  1.00  0.00     0.007 A 
HETATM   10  C   UNL     1      43.590 -19.046   2.741  1.00  0.00    -0.062 A 
HETATM   11  C   UNL     1      43.828 -20.286   1.931  1.00  0.00     0.048 C 
HETATM   12  C   UNL     1      42.671 -18.086   2.302  1.00  0.00     0.007 A 
HETATM   13  C   UNL     1      42.431 -16.935   3.059  1.00  0.00     0.016 A 
ENDBRANCH   5   7
ENDBRANCH   1   2
BRANCH   1  14
HETATM   14  N   UNL     1      41.933 -11.555   6.745  1.00  0.00    -0.335 N 
HETATM   15  C   UNL     1      42.450 -10.399   6.255  1.00  0.00     0.321 C 
HETATM   16  N   UNL     1      42.996  -9.523   7.140  1.00  0.00    -0.309 N 
HETATM   17  O   UNL     1      42.370 -10.084   5.070  1.00  0.00    -0.247 OA
HETATM   18  H   UNL     1      43.119  -8.611   6.716  1.00  0.00     0.170 HD
HETATM   19  H   UNL     1      41.719 -11.575   7.730  1.00  0.00     0.164 HD
BRANCH  16  20
HETATM   20  C   UNL     1      43.422  -9.651   8.474  1.00  0.00     0.036 A 
HETATM   21  C   UNL     1      44.725  -9.981   8.853  1.00  0.00     0.029 A 
HETATM   22  C   UNL     1      45.063 -10.078  10.208  1.00  0.00     0.002 A 
HETATM   23  C   UNL     1      44.106  -9.832  11.190  1.00  0.00     0.000 A 
HETATM   24  C   UNL     1      42.813  -9.470  10.821  1.00  0.00     0.002 A 
HETATM   25  C   UNL     1      42.477  -9.369   9.469  1.00  0.00     0.029 A 
ENDBRANCH  16  20
ENDBRANCH   1  14
TORSDOF 4
ENDMDL
MODEL 3
REMARK VINA RESULT:      -8.3      4.082      7.731
REMARK  4 active torsions:
REMARK  status: ('A' for Active; 'I' for Inactive)
REMARK    1  A    between atoms: C_5  and  C_6 
REMARK    2  A    between atoms: C_9  and  C_10 
REMARK    3  A    between atoms: C_10  and  N_11 
REMARK       I    between atoms: N_11  and  C_12 
REMARK       I    between atoms: C_12  and  N_13 
REMARK    4  A    between atoms: N_13  and  C_14 
ROOT
HETATM    1  C   UNL     1      41.181 -15.428   5.863  1.00  0.00     0.213 C 
ENDROOT
BRANCH   1   2
HETATM    2  C   UNL     1      40.703 -14.632   4.708  1.00  0.00     0.190 A 
HETATM    3  O   UNL     1      40.063 -13.464   4.991  1.00  0.00    -0.194 OA
HETATM    4  N   UNL     1      39.641 -12.937   3.774  1.00  0.00    -0.106 NA
HETATM    5  C   UNL     1      40.068 -13.832   2.868  1.00  0.00     0.189 A 
HETATM    6  N   UNL     1      40.748 -14.901   3.420  1.00  0.00    -0.202 NA
BRANCH   5   7
HETATM    7  C   UNL     1      39.821 -13.717   1.434  1.00  0.00     0.014 A 
HETATM    8  C   UNL     1      39.417 -12.501   0.864  1.00  0.00     0.016 A 
HETATM    9  C   UNL     1      39.169 -12.401  -0.509  1.00  0.00     0.007 A 
HETATM   10  C   UNL     1      39.317 -13.516  -1.338  1.00  0.00    -0.062 A 
HETATM   11  C   UNL     1      39.072 -13.416  -2.815  1.00  0.00     0.048 C 
HETATM   12  C   UNL     1      39.729 -14.730  -0.777  1.00  0.00     0.007 A 
HETATM   13  C   UNL     1      39.975 -14.830   0.596  1.00  0.00     0.016 A 
ENDBRANCH   5   7
ENDBRANCH   1   2
BRANCH   1  14
HETATM   14  N   UNL     1      42.131 -16.433   5.430  1.00  0.00    -0.335 N 
HETATM   15  C   UNL     1      43.462 -16.289   5.657  1.00  0.00     0.321 C 
HETATM   16  N   UNL     1      44.273 -17.339   5.362  1.00  0.00    -0.309 N 
HETATM   17  O   UNL     1      43.941 -15.291   6.189  1.00  0.00    -0.247 OA
HETATM   18  H   UNL     1      45.183 -17.224   5.793  1.00  0.00     0.170 HD
HETATM   19  H   UNL     1      41.786 -17.376   5.336  1.00  0.00     0.164 HD
BRANCH  16  20
HETATM   20  C   UNL     1      44.095 -18.497   4.584  1.00  0.00     0.036 A 
HETATM   21  C   UNL     1      43.980 -18.497   3.192  1.00  0.00     0.029 A 
HETATM   22  C   UNL     1      43.814 -19.701   2.498  1.00  0.00     0.002 A 
HETATM   23  C   UNL     1      43.775 -20.910   3.187  1.00  0.00     0.000 A 
HETATM   24  C   UNL     1      43.922 -20.922   4.571  1.00  0.00     0.002 A 
HETATM   25  C   UNL     1      44.093 -19.722   5.264  1.00  0.00     0.029 A 
ENDBRANCH  16  20
ENDBRANCH   1  14
TORSDOF 4
ENDMDL
MODEL 4
REMARK VINA RESULT:      -8.2      2.065      2.881
REMARK  4 active torsions:
REMARK  status: ('A' for Active; 'I' for Inactive)
REMARK    1  A    between atoms: C_5  and  C_6 
REMARK    2  A    between atoms: C_9  and  C_10 
REMARK    3  A    between atoms: C_10  and  N_11 
REMARK       I    between atoms: N_11  and  C_12 
REMARK       I    between atoms: C_12  and  N_13 
REMARK    4  A    between atoms: N_13  and  C_14 
ROOT
HETATM    1  C   UNL     1      42.527 -11.818   5.506  1.00  0.00     0.213 C 
ENDROOT
BRANCH   1   2
HETATM    2  C   UNL     1      42.827 -13.269   5.498  1.00  0.00     0.190 A 
HETATM    3  O   UNL     1      43.336 -13.796   6.646  1.00  0.00    -0.194 OA
HETATM    4  N   UNL     1      43.610 -15.135   6.381  1.00  0.00    -0.106 NA
HETATM    5  C   UNL     1      43.238 -15.294   5.100  1.00  0.00     0.189 A 
HETATM    6  N   UNL     1      42.732 -14.146   4.521  1.00  0.00    -0.202 NA
BRANCH   5   7
HETATM    7  C   UNL     1      43.375 -16.548   4.365  1.00  0.00     0.014 A 
HETATM    8  C   UNL     1      44.045 -17.646   4.924  1.00  0.00     0.016 A 
HETATM    9  C   UNL     1      44.185 -18.840   4.209  1.00  0.00     0.007 A 
HETATM   10  C   UNL     1      43.660 -18.957   2.918  1.00  0.00    -0.062 A 
HETATM   11  C   UNL     1      43.788 -20.239   2.150  1.00  0.00     0.048 C 
HETATM   12  C   UNL     1      42.983 -17.868   2.358  1.00  0.00     0.007 A 
HETATM   13  C   UNL     1      42.846 -16.674   3.073  1.00  0.00     0.016 A 
ENDBRANCH   5   7
ENDBRANCH   1   2
BRANCH   1  14
HETATM   14  N   UNL     1      43.157 -11.175   6.642  1.00  0.00    -0.335 N 
HETATM   15  C   UNL     1      44.473 -10.839   6.620  1.00  0.00     0.321 C 
HETATM   16  N   UNL     1      44.957 -10.103   7.656  1.00  0.00    -0.309 N 
HETATM   17  O   UNL     1      45.211 -11.102   5.674  1.00  0.00    -0.247 OA
HETATM   18  H   UNL     1      45.858  -9.703   7.423  1.00  0.00     0.170 HD
HETATM   19  H   UNL     1      42.560 -10.634   7.248  1.00  0.00     0.164 HD
BRANCH  16  20
HETATM   20  C   UNL     1      44.465  -9.823   8.942  1.00  0.00     0.036 A 
HETATM   21  C   UNL     1      44.446 -10.744   9.993  1.00  0.00     0.029 A 
HETATM   22  C   UNL     1      43.945 -10.374  11.247  1.00  0.00     0.002 A 
HETATM   23  C   UNL     1      43.473  -9.082  11.462  1.00  0.00     0.000 A 
HETATM   24  C   UNL     1      43.519  -8.149  10.430  1.00  0.00     0.002 A 
HETATM   25  C   UNL     1      44.023  -8.515   9.181  1.00  0.00     0.029 A 
ENDBRANCH  16  20
ENDBRANCH   1  14
TORSDOF 4
ENDMDL
MODEL 5
REMARK VINA RESULT:      -8.1      3.906      6.773
REMARK  4 active torsions:
REMARK  status: ('A' for Active; 'I' for Inactive)
REMARK    1  A    between atoms: C_5  and  C_6 
REMARK    2  A    between atoms: C_9  and  C_10 
REMARK    3  A    between atoms: C_10  and  N_11 
REMARK       I    between atoms: N_11  and  C_12 
REMARK       I    between atoms: C_12  and  N_13 
REMARK    4  A    between atoms: N_13  and  C_14 
ROOT
HETATM    1  C   UNL     1      42.126 -11.673   2.308  1.00  0.00     0.213 C 
ENDROOT
BRANCH   1   2
HETATM    2  C   UNL     1      42.323 -12.997   2.943  1.00  0.00     0.190 A 
HETATM    3  O   UNL     1      42.378 -13.022   4.304  1.00  0.00    -0.194 OA
HETATM    4  N   UNL     1      42.645 -14.339   4.667  1.00  0.00    -0.106 NA
HETATM    5  C   UNL     1      42.724 -14.988   3.493  1.00  0.00     0.189 A 
HETATM    6  N   UNL     1      42.516 -14.177   2.394  1.00  0.00    -0.202 NA
BRANCH   5   7
HETATM    7  C   UNL     1      43.029 -16.411   3.370  1.00  0.00     0.014 A 
HETATM    8  C   UNL     1      43.767 -17.080   4.357  1.00  0.00     0.016 A 
HETATM    9  C   UNL     1      44.068 -18.440   4.227  1.00  0.00     0.007 A 
HETATM   10  C   UNL     1      43.639 -19.156   3.105  1.00  0.00    -0.062 A 
HETATM   11  C   UNL     1      43.940 -20.619   2.965  1.00  0.00     0.048 C 
HETATM   12  C   UNL     1      42.895 -18.495   2.122  1.00  0.00     0.007 A 
HETATM   13  C   UNL     1      42.596 -17.135   2.252  1.00  0.00     0.016 A 
ENDBRANCH   5   7
ENDBRANCH   1   2
BRANCH   1  14
HETATM   14  N   UNL     1      41.417 -11.812   1.052  1.00  0.00    -0.335 N 
HETATM   15  C   UNL     1      41.442 -10.829   0.116  1.00  0.00     0.321 C 
HETATM   16  N   UNL     1      40.884 -11.092  -1.096  1.00  0.00    -0.309 N 
HETATM   17  O   UNL     1      42.014  -9.756   0.294  1.00  0.00    -0.247 OA
HETATM   18  H   UNL     1      41.173 -10.405  -1.782  1.00  0.00     0.170 HD
HETATM   19  H   UNL     1      41.259 -12.751   0.719  1.00  0.00     0.164 HD
BRANCH  16  20
HETATM   20  C   UNL     1      40.002 -12.089  -1.547  1.00  0.00     0.036 A 
HETATM   21  C   UNL     1      38.620 -12.063  -1.346  1.00  0.00     0.029 A 
HETATM   22  C   UNL     1      37.815 -13.097  -1.839  1.00  0.00     0.002 A 
HETATM   23  C   UNL     1      38.384 -14.153  -2.547  1.00  0.00     0.000 A 
HETATM   24  C   UNL     1      39.756 -14.169  -2.780  1.00  0.00     0.002 A 
HETATM   25  C   UNL     1      40.559 -13.136  -2.293  1.00  0.00     0.029 A 
ENDBRANCH  16  20
ENDBRANCH   1  14
TORSDOF 4
ENDMDL
MODEL 6
REMARK VINA RESULT:      -8.1      1.613      7.541
REMARK  4 active torsions:
REMARK  status: ('A' for Active; 'I' for Inactive)
REMARK    1  A    between atoms: C_5  and  C_6 
REMARK    2  A    between atoms: C_9  and  C_10 
REMARK    3  A    between atoms: C_10  and  N_11 
REMARK       I    between atoms: N_11  and  C_12 
REMARK       I    between atoms: C_12  and  N_13 
REMARK    4  A    between atoms: N_13  and  C_14 
ROOT
HETATM    1  C   UNL     1      41.762 -13.052   2.685  1.00  0.00     0.213 C 
ENDROOT
BRANCH   1   2
HETATM    2  C   UNL     1      42.689 -12.314   3.575  1.00  0.00     0.190 A 
HETATM    3  O   UNL     1      43.846 -11.862   3.016  1.00  0.00    -0.194 OA
HETATM    4  N   UNL     1      44.582 -11.279   4.044  1.00  0.00    -0.106 NA
HETATM    5  C   UNL     1      43.801 -11.429   5.127  1.00  0.00     0.189 A 
HETATM    6  N   UNL     1      42.602 -12.064   4.865  1.00  0.00    -0.202 NA
BRANCH   5   7
HETATM    7  C   UNL     1      44.180 -10.994   6.468  1.00  0.00     0.014 A 
HETATM    8  C   UNL     1      45.514 -11.052   6.898  1.00  0.00     0.016 A 
HETATM    9  C   UNL     1      45.868 -10.647   8.189  1.00  0.00     0.007 A 
HETATM   10  C   UNL     1      44.895 -10.178   9.076  1.00  0.00    -0.062 A 
HETATM   11  C   UNL     1      45.266  -9.723  10.456  1.00  0.00     0.048 C 
HETATM   12  C   UNL     1      43.564 -10.109   8.650  1.00  0.00     0.007 A 
HETATM   13  C   UNL     1      43.210 -10.517   7.360  1.00  0.00     0.016 A 
ENDBRANCH   5   7
ENDBRANCH   1   2
BRANCH   1  14
HETATM   14  N   UNL     1      41.980 -14.480   2.797  1.00  0.00    -0.335 N 
HETATM   15  C   UNL     1      41.033 -15.370   2.405  1.00  0.00     0.321 C 
HETATM   16  N   UNL     1      41.365 -16.688   2.396  1.00  0.00    -0.309 N 
HETATM   17  O   UNL     1      39.930 -15.026   1.986  1.00  0.00    -0.247 OA
HETATM   18  H   UNL     1      40.692 -17.226   1.861  1.00  0.00     0.170 HD
HETATM   19  H   UNL     1      42.937 -14.799   2.778  1.00  0.00     0.164 HD
BRANCH  16  20
HETATM   20  C   UNL     1      42.416 -17.414   2.982  1.00  0.00     0.036 A 
HETATM   21  C   UNL     1      42.927 -17.163   4.258  1.00  0.00     0.029 A 
HETATM   22  C   UNL     1      43.971 -17.944   4.767  1.00  0.00     0.002 A 
HETATM   23  C   UNL     1      44.501 -18.987   4.011  1.00  0.00     0.000 A 
HETATM   24  C   UNL     1      43.976 -19.265   2.752  1.00  0.00     0.002 A 
HETATM   25  C   UNL     1      42.931 -18.490   2.247  1.00  0.00     0.029 A 
ENDBRANCH  16  20
ENDBRANCH   1  14
TORSDOF 4
ENDMDL
MODEL 7
REMARK VINA RESULT:      -8.1      4.166      7.041
REMARK  4 active torsions:
REMARK  status: ('A' for Active; 'I' for Inactive)
REMARK    1  A    between atoms: C_5  and  C_6 
REMARK    2  A    between atoms: C_9  and  C_10 
REMARK    3  A    between atoms: C_10  and  N_11 
REMARK       I    between atoms: N_11  and  C_12 
REMARK       I    between atoms: C_12  and  N_13 
REMARK    4  A    between atoms: N_13  and  C_14 
ROOT
HETATM    1  C   UNL     1      39.461 -13.252   3.045  1.00  0.00     0.213 C 
ENDROOT
BRANCH   1   2
HETATM    2  C   UNL     1      40.657 -14.040   3.422  1.00  0.00     0.190 A 
HETATM    3  O   UNL     1      41.848 -13.380   3.431  1.00  0.00    -0.194 OA
HETATM    4  N   UNL     1      42.825 -14.326   3.732  1.00  0.00    -0.106 NA
HETATM    5  C   UNL     1      42.133 -15.468   3.880  1.00  0.00     0.189 A 
HETATM    6  N   UNL     1      40.771 -15.321   3.703  1.00  0.00    -0.202 NA
BRANCH   5   7
HETATM    7  C   UNL     1      42.750 -16.759   4.172  1.00  0.00     0.014 A 
HETATM    8  C   UNL     1      42.952 -17.182   5.493  1.00  0.00     0.016 A 
HETATM    9  C   UNL     1      43.556 -18.414   5.767  1.00  0.00     0.007 A 
HETATM   10  C   UNL     1      43.973 -19.245   4.723  1.00  0.00    -0.062 A 
HETATM   11  C   UNL     1      44.605 -20.576   5.004  1.00  0.00     0.048 C 
HETATM   12  C   UNL     1      43.766 -18.832   3.402  1.00  0.00     0.007 A 
HETATM   13  C   UNL     1      43.164 -17.600   3.130  1.00  0.00     0.016 A 
ENDBRANCH   5   7
ENDBRANCH   1   2
BRANCH   1  14
HETATM   14  N   UNL     1      39.375 -13.116   1.605  1.00  0.00    -0.335 N 
HETATM   15  C   UNL     1      39.790 -11.985   0.978  1.00  0.00     0.321 C 
HETATM   16  N   UNL     1      39.823 -11.989  -0.381  1.00  0.00    -0.309 N 
HETATM   17  O   UNL     1      40.208 -11.003   1.586  1.00  0.00    -0.247 OA
HETATM   18  H   UNL     1      40.371 -11.212  -0.731  1.00  0.00     0.170 HD
HETATM   19  H   UNL     1      39.395 -13.968   1.064  1.00  0.00     0.164 HD
BRANCH  16  20
HETATM   20  C   UNL     1      39.244 -12.827  -1.350  1.00  0.00     0.036 A 
HETATM   21  C   UNL     1      39.895 -13.918  -1.933  1.00  0.00     0.029 A 
HETATM   22  C   UNL     1      39.237 -14.705  -2.885  1.00  0.00     0.002 A 
HETATM   23  C   UNL     1      37.925 -14.416  -3.252  1.00  0.00     0.000 A 
HETATM   24  C   UNL     1      37.259 -13.350  -2.653  1.00  0.00     0.002 A 
HETATM   25  C   UNL     1      37.912 -12.568  -1.698  1.00  0.00     0.029 A 
ENDBRANCH  16  20
ENDBRANCH   1  14
TORSDOF 4
ENDMDL
MODEL 8
REMARK VINA RESULT:      -8.0      1.855      7.818
REMARK  4 active torsions:
REMARK  status: ('A' for Active; 'I' for Inactive)
REMARK    1  A    between atoms: C_5  and  C_6 
REMARK    2  A    between atoms: C_9  and  C_10 
REMARK    3  A    between atoms: C_10  and  N_11 
REMARK       I    between atoms: N_11  and  C_12 
REMARK       I    between atoms: C_12  and  N_13 
REMARK    4  A    between atoms: N_13  and  C_14 
ROOT
HETATM    1  C   UNL     1      43.108 -12.057   3.337  1.00  0.00     0.213 C 
ENDROOT
BRANCH   1   2
HETATM    2  C   UNL     1      43.722 -11.498   4.564  1.00  0.00     0.190 A 
HETATM    3  O   UNL     1      45.083 -11.467   4.608  1.00  0.00    -0.194 OA
HETATM    4  N   UNL     1      45.429 -10.984   5.866  1.00  0.00    -0.106 NA
HETATM    5  C   UNL     1      44.246 -10.764   6.465  1.00  0.00     0.189 A 
HETATM    6  N   UNL     1      43.156 -11.066   5.671  1.00  0.00    -0.202 NA
BRANCH   5   7
HETATM    7  C   UNL     1      44.106 -10.279   7.835  1.00  0.00     0.014 A 
HETATM    8  C   UNL     1      42.898  -9.729   8.288  1.00  0.00     0.016 A 
HETATM    9  C   UNL     1      42.775  -9.254   9.598  1.00  0.00     0.007 A 
HETATM   10  C   UNL     1      43.858  -9.316  10.479  1.00  0.00    -0.062 A 
HETATM   11  C   UNL     1      43.731  -8.826  11.891  1.00  0.00     0.048 C 
HETATM   12  C   UNL     1      45.063  -9.872  10.035  1.00  0.00     0.007 A 
HETATM   13  C   UNL     1      45.187 -10.345   8.725  1.00  0.00     0.016 A 
ENDBRANCH   5   7
ENDBRANCH   1   2
BRANCH   1  14
HETATM   14  N   UNL     1      42.863 -13.477   3.493  1.00  0.00    -0.335 N 
HETATM   15  C   UNL     1      41.662 -13.942   3.925  1.00  0.00     0.321 C 
HETATM   16  N   UNL     1      41.455 -15.285   3.901  1.00  0.00    -0.309 N 
HETATM   17  O   UNL     1      40.741 -13.198   4.255  1.00  0.00    -0.247 OA
HETATM   18  H   UNL     1      40.470 -15.500   3.999  1.00  0.00     0.170 HD
HETATM   19  H   UNL     1      43.410 -14.101   2.919  1.00  0.00     0.164 HD
BRANCH  16  20
HETATM   20  C   UNL     1      42.323 -16.385   3.787  1.00  0.00     0.036 A 
HETATM   21  C   UNL     1      42.540 -17.095   2.603  1.00  0.00     0.029 A 
HETATM   22  C   UNL     1      43.430 -18.174   2.580  1.00  0.00     0.002 A 
HETATM   23  C   UNL     1      44.118 -18.542   3.733  1.00  0.00     0.000 A 
HETATM   24  C   UNL     1      43.933 -17.820   4.909  1.00  0.00     0.002 A 
HETATM   25  C   UNL     1      43.049 -16.740   4.931  1.00  0.00     0.029 A 
ENDBRANCH  16  20
ENDBRANCH   1  14
TORSDOF 4
ENDMDL
MODEL 9
REMARK VINA RESULT:      -7.8      4.011      7.412
REMARK  4 active torsions:
REMARK  status: ('A' for Active; 'I' for Inactive)
REMARK    1  A    between atoms: C_5  and  C_6 
REMARK    2  A    between atoms: C_9  and  C_10 
REMARK    3  A    between atoms: C_10  and  N_11 
REMARK       I    between atoms: N_11  and  C_12 
REMARK       I    between atoms: C_12  and  N_13 
REMARK    4  A    between atoms: N_13  and  C_14 
ROOT
HETATM    1  C   UNL     1      42.992 -12.663   3.350  1.00  0.00     0.213 C 
ENDROOT
BRANCH   1   2
HETATM    2  C   UNL     1      42.230 -12.464   2.095  1.00  0.00     0.190 A 
HETATM    3  O   UNL     1      41.947 -11.178   1.746  1.00  0.00    -0.194 OA
HETATM    4  N   UNL     1      41.168 -11.240   0.594  1.00  0.00    -0.106 NA
HETATM    5  C   UNL     1      41.055 -12.557   0.352  1.00  0.00     0.189 A 
HETATM    6  N   UNL     1      41.718 -13.351   1.267  1.00  0.00    -0.202 NA
BRANCH   5   7
HETATM    7  C   UNL     1      40.283 -13.115  -0.756  1.00  0.00     0.014 A 
HETATM    8  C   UNL     1      39.754 -14.412  -0.687  1.00  0.00     0.016 A 
HETATM    9  C   UNL     1      39.028 -14.946  -1.756  1.00  0.00     0.007 A 
HETATM   10  C   UNL     1      38.820 -14.195  -2.916  1.00  0.00    -0.062 A 
HETATM   11  C   UNL     1      38.026 -14.751  -4.062  1.00  0.00     0.048 C 
HETATM   12  C   UNL     1      39.338 -12.897  -2.987  1.00  0.00     0.007 A 
HETATM   13  C   UNL     1      40.065 -12.364  -1.918  1.00  0.00     0.016 A 
ENDBRANCH   5   7
ENDBRANCH   1   2
BRANCH   1  14
HETATM   14  N   UNL     1      43.052 -14.070   3.690  1.00  0.00    -0.335 N 
HETATM   15  C   UNL     1      42.646 -14.520   4.905  1.00  0.00     0.321 C 
HETATM   16  N   UNL     1      42.587 -15.864   5.098  1.00  0.00    -0.309 N 
HETATM   17  O   UNL     1      42.258 -13.768   5.796  1.00  0.00    -0.247 OA
HETATM   18  H   UNL     1      42.046 -16.086   5.926  1.00  0.00     0.170 HD
HETATM   19  H   UNL     1      43.006 -14.727   2.925  1.00  0.00     0.164 HD
BRANCH  16  20
HETATM   20  C   UNL     1      43.131 -16.955   4.399  1.00  0.00     0.036 A 
HETATM   21  C   UNL     1      44.142 -17.781   4.898  1.00  0.00     0.029 A 
HETATM   22  C   UNL     1      44.618 -18.853   4.135  1.00  0.00     0.002 A 
HETATM   23  C   UNL     1      44.079 -19.115   2.878  1.00  0.00     0.000 A 
HETATM   24  C   UNL     1      43.049 -18.317   2.387  1.00  0.00     0.002 A 
HETATM   25  C   UNL     1      42.570 -17.251   3.150  1.00  0.00     0.029 A 
ENDBRANCH  16  20
ENDBRANCH   1  14
TORSDOF 4
ENDMDL
MODEL 10
REMARK VINA RESULT:      -7.8      1.789      2.478
REMARK  4 active torsions:
REMARK  status: ('A' for Active; 'I' for Inactive)
REMARK    1  A    between atoms: C_5  and  C_6 
REMARK    2  A    between atoms: C_9  and  C_10 
REMARK    3  A    between atoms: C_10  and  N_11 
REMARK       I    between atoms: N_11  and  C_12 
REMARK       I    between atoms: C_12  and  N_13 
REMARK    4  A    between atoms: N_13  and  C_14 
ROOT
HETATM    1  C   UNL     1      40.723 -11.646   6.071  1.00  0.00     0.213 C 
ENDROOT
BRANCH   1   2
HETATM    2  C   UNL     1      41.609 -12.574   5.330  1.00  0.00     0.190 A 
HETATM    3  O   UNL     1      42.576 -12.008   4.554  1.00  0.00    -0.194 OA
HETATM    4  N   UNL     1      43.223 -13.054   3.902  1.00  0.00    -0.106 NA
HETATM    5  C   UNL     1      42.590 -14.153   4.345  1.00  0.00     0.189 A 
HETATM    6  N   UNL     1      41.581 -13.887   5.250  1.00  0.00    -0.202 NA
BRANCH   5   7
HETATM    7  C   UNL     1      42.907 -15.508   3.901  1.00  0.00     0.014 A 
HETATM    8  C   UNL     1      43.463 -16.446   4.783  1.00  0.00     0.016 A 
HETATM    9  C   UNL     1      43.778 -17.738   4.349  1.00  0.00     0.007 A 
HETATM   10  C   UNL     1      43.546 -18.115   3.022  1.00  0.00    -0.062 A 
HETATM   11  C   UNL     1      43.862 -19.503   2.550  1.00  0.00     0.048 C 
HETATM   12  C   UNL     1      42.984 -17.185   2.140  1.00  0.00     0.007 A 
HETATM   13  C   UNL     1      42.671 -15.894   2.575  1.00  0.00     0.016 A 
ENDBRANCH   5   7
ENDBRANCH   1   2
BRANCH   1  14
HETATM   14  N   UNL     1      41.491 -10.847   7.006  1.00  0.00    -0.335 N 
HETATM   15  C   UNL     1      41.209  -9.534   7.207  1.00  0.00     0.321 C 
HETATM   16  N   UNL     1      41.868  -8.890   8.207  1.00  0.00    -0.309 N 
HETATM   17  O   UNL     1      40.335  -8.938   6.582  1.00  0.00    -0.247 OA
HETATM   18  H   UNL     1      41.414  -8.013   8.431  1.00  0.00     0.170 HD
HETATM   19  H   UNL     1      41.936 -11.338   7.766  1.00  0.00     0.164 HD
BRANCH  16  20
HETATM   20  C   UNL     1      43.025  -9.197   8.943  1.00  0.00     0.036 A 
HETATM   21  C   UNL     1      43.019  -9.835  10.186  1.00  0.00     0.029 A 
HETATM   22  C   UNL     1      44.222 -10.109  10.845  1.00  0.00     0.002 A 
HETATM   23  C   UNL     1      45.438  -9.761  10.262  1.00  0.00     0.000 A 
HETATM   24  C   UNL     1      45.455  -9.155   9.009  1.00  0.00     0.002 A 
HETATM   25  C   UNL     1      44.255  -8.886   8.348  1.00  0.00     0.029 A 
ENDBRANCH  16  20
ENDBRANCH   1  14
TORSDOF 4
ENDMDL
