MODEL 1
REMARK VINA RESULT:      -8.7      0.000      0.000
REMARK  8 active torsions:
REMARK  status: ('A' for Active; 'I' for Inactive)
REMARK    1  A    between atoms: C_2  and  C_3 
REMARK    2  A    between atoms: C_3  and  O_4 
REMARK    3  A    between atoms: O_4  and  C_5 
REMARK    4  A    between atoms: C_7  and  C_8 
REMARK    5  A    between atoms: N_9  and  C_10 
REMARK    6  A    between atoms: C_10  and  C_11 
REMARK    7  A    between atoms: C_24  and  C_25 
REMARK    8  A    between atoms: C_26  and  O_27 
ROOT
HETATM    1  C   UNL     1      39.901 -13.681   3.104  1.00  0.00     0.159 A 
HETATM    2  N   UNL     1      40.064 -12.979   4.410  1.00  0.00    -0.329 N 
HETATM    3  C   UNL     1      40.182 -11.589   4.302  1.00  0.00     0.273 A 
HETATM    4  O   UNL     1      40.325 -10.767   5.189  1.00  0.00    -0.266 OA
HETATM    5  C   UNL     1      40.039 -11.357   2.917  1.00  0.00     0.129 A 
HETATM    6  C   UNL     1      39.839 -12.503   2.205  1.00  0.00     0.034 A 
HETATM    7  N   UNL     1      40.000 -10.324   2.064  1.00  0.00    -0.272 N 
HETATM    8  H   UNL     1      40.111  -9.332   2.251  1.00  0.00     0.189 HD
HETATM    9  N   UNL     1      39.758 -10.740   0.794  1.00  0.00    -0.173 NA
HETATM   10  C   UNL     1      39.587 -12.086   0.887  1.00  0.00     0.101 A 
ENDROOT
BRANCH   1  11
HETATM   11  C   UNL     1      41.118 -14.481   2.687  1.00  0.00    -0.028 A 
HETATM   12  C   UNL     1      41.152 -15.892   2.747  1.00  0.00     0.046 A 
HETATM   13  C   UNL     1      42.294 -16.606   2.379  1.00  0.00     0.069 A 
HETATM   14  C   UNL     1      43.424 -15.909   1.952  1.00  0.00     0.037 A 
HETATM   15  C   UNL     1      43.415 -14.518   1.884  1.00  0.00     0.003 A 
HETATM   16  C   UNL     1      42.269 -13.809   2.244  1.00  0.00     0.010 A 
BRANCH  13  17
HETATM   17  O   UNL     1      42.434 -17.967   2.397  1.00  0.00    -0.348 OA
BRANCH  17  18
HETATM   18  C   UNL     1      43.576 -18.497   3.067  1.00  0.00     0.202 C 
BRANCH  18  19
HETATM   19  C   UNL     1      43.619 -19.971   2.792  1.00  0.00    -0.011 C 
HETATM   20  C   UNL     1      43.553 -20.520   1.572  1.00  0.00     0.009 C 
ENDBRANCH  18  19
ENDBRANCH  17  18
ENDBRANCH  13  17
ENDBRANCH   1  11
BRANCH   2  21
HETATM   21  C   UNL     1      39.954 -13.668   5.679  1.00  0.00     0.167 C 
BRANCH  21  22
HETATM   22  C   UNL     1      41.219 -14.356   6.119  1.00  0.00    -0.023 A 
HETATM   23  C   UNL     1      41.167 -15.679   6.551  1.00  0.00     0.125 A 
HETATM   24  N   UNL     1      42.245 -16.405   6.929  1.00  0.00    -0.273 NA
HETATM   25  C   UNL     1      43.445 -15.793   6.855  1.00  0.00     0.116 A 
HETATM   26  C   UNL     1      43.615 -14.490   6.423  1.00  0.00     0.020 A 
HETATM   27  C   UNL     1      42.488 -13.768   6.041  1.00  0.00     0.012 A 
ENDBRANCH  21  22
ENDBRANCH   2  21
BRANCH  10  28
HETATM   28  C   UNL     1      39.201 -12.867  -0.290  1.00  0.00     0.028 A 
HETATM   29  C   UNL     1      38.191 -12.427  -1.163  1.00  0.00     0.078 A 
HETATM   30  C   UNL     1      37.835 -13.167  -2.289  1.00  0.00     0.037 A 
HETATM   31  C   UNL     1      38.467 -14.381  -2.549  1.00  0.00     0.003 A 
HETATM   32  C   UNL     1      39.448 -14.853  -1.679  1.00  0.00     0.001 A 
HETATM   33  C   UNL     1      39.811 -14.104  -0.555  1.00  0.00     0.017 A 
BRANCH  29  34
HETATM   34  O   UNL     1      37.494 -11.265  -0.952  1.00  0.00    -0.360 OA
HETATM   35  H   UNL     1      36.593 -11.420  -1.316  1.00  0.00     0.217 HD
ENDBRANCH  29  34
ENDBRANCH  10  28
TORSDOF 8
ENDMDL
MODEL 2
REMARK VINA RESULT:      -8.7      2.773      6.652
REMARK  8 active torsions:
REMARK  status: ('A' for Active; 'I' for Inactive)
REMARK    1  A    between atoms: C_2  and  C_3 
REMARK    2  A    between atoms: C_3  and  O_4 
REMARK    3  A    between atoms: O_4  and  C_5 
REMARK    4  A    between atoms: C_7  and  C_8 
REMARK    5  A    between atoms: N_9  and  C_10 
REMARK    6  A    between atoms: C_10  and  C_11 
REMARK    7  A    between atoms: C_24  and  C_25 
REMARK    8  A    between atoms: C_26  and  O_27 
ROOT
HETATM    1  C   UNL     1      41.136 -15.393   3.820  1.00  0.00     0.159 A 
HETATM    2  N   UNL     1      40.630 -14.110   3.253  1.00  0.00    -0.329 N 
HETATM    3  C   UNL     1      41.370 -13.633   2.166  1.00  0.00     0.273 A 
HETATM    4  O   UNL     1      41.194 -12.623   1.510  1.00  0.00    -0.266 OA
HETATM    5  C   UNL     1      42.344 -14.637   1.970  1.00  0.00     0.129 A 
HETATM    6  C   UNL     1      42.228 -15.669   2.855  1.00  0.00     0.034 A 
HETATM    7  N   UNL     1      43.355 -14.916   1.136  1.00  0.00    -0.272 N 
HETATM    8  H   UNL     1      43.718 -14.369   0.360  1.00  0.00     0.189 HD
HETATM    9  N   UNL     1      43.913 -16.121   1.419  1.00  0.00    -0.173 NA
HETATM   10  C   UNL     1      43.171 -16.624   2.442  1.00  0.00     0.101 A 
ENDROOT
BRANCH   1  11
HETATM   11  C   UNL     1      41.788 -15.243   5.179  1.00  0.00    -0.028 A 
HETATM   12  C   UNL     1      42.701 -14.204   5.468  1.00  0.00     0.046 A 
HETATM   13  C   UNL     1      43.308 -14.100   6.721  1.00  0.00     0.069 A 
HETATM   14  C   UNL     1      43.010 -15.046   7.702  1.00  0.00     0.037 A 
HETATM   15  C   UNL     1      42.112 -16.079   7.441  1.00  0.00     0.003 A 
HETATM   16  C   UNL     1      41.502 -16.174   6.191  1.00  0.00     0.010 A 
BRANCH  13  17
HETATM   17  O   UNL     1      44.202 -13.138   7.108  1.00  0.00    -0.348 OA
BRANCH  17  18
HETATM   18  C   UNL     1      44.267 -11.954   6.317  1.00  0.00     0.202 C 
BRANCH  18  19
HETATM   19  C   UNL     1      45.503 -11.207   6.722  1.00  0.00    -0.011 C 
HETATM   20  C   UNL     1      45.758 -10.774   7.964  1.00  0.00     0.009 C 
ENDBRANCH  18  19
ENDBRANCH  17  18
ENDBRANCH  13  17
ENDBRANCH   1  11
BRANCH   2  21
HETATM   21  C   UNL     1      39.393 -13.501   3.695  1.00  0.00     0.167 C 
BRANCH  21  22
HETATM   22  C   UNL     1      39.581 -12.280   4.556  1.00  0.00    -0.023 A 
HETATM   23  C   UNL     1      39.558 -11.016   3.970  1.00  0.00     0.125 A 
HETATM   24  N   UNL     1      39.676  -9.853   4.652  1.00  0.00    -0.273 NA
HETATM   25  C   UNL     1      39.804  -9.945   5.991  1.00  0.00     0.116 A 
HETATM   26  C   UNL     1      39.821 -11.145   6.679  1.00  0.00     0.020 A 
HETATM   27  C   UNL     1      39.698 -12.325   5.951  1.00  0.00     0.012 A 
ENDBRANCH  21  22
ENDBRANCH   2  21
BRANCH  10  28
HETATM   28  C   UNL     1      43.423 -17.976   2.946  1.00  0.00     0.028 A 
HETATM   29  C   UNL     1      44.069 -18.190   4.176  1.00  0.00     0.078 A 
HETATM   30  C   UNL     1      44.297 -19.477   4.659  1.00  0.00     0.037 A 
HETATM   31  C   UNL     1      43.905 -20.581   3.904  1.00  0.00     0.003 A 
HETATM   32  C   UNL     1      43.293 -20.393   2.666  1.00  0.00     0.001 A 
HETATM   33  C   UNL     1      43.056 -19.099   2.188  1.00  0.00     0.017 A 
BRANCH  29  34
HETATM   34  O   UNL     1      44.522 -17.158   4.957  1.00  0.00    -0.360 OA
HETATM   35  H   UNL     1      44.207 -17.349   5.869  1.00  0.00     0.217 HD
ENDBRANCH  29  34
ENDBRANCH  10  28
TORSDOF 8
ENDMDL
MODEL 3
REMARK VINA RESULT:      -8.4      2.143      6.907
REMARK  8 active torsions:
REMARK  status: ('A' for Active; 'I' for Inactive)
REMARK    1  A    between atoms: C_2  and  C_3 
REMARK    2  A    between atoms: C_3  and  O_4 
REMARK    3  A    between atoms: O_4  and  C_5 
REMARK    4  A    between atoms: C_7  and  C_8 
REMARK    5  A    between atoms: N_9  and  C_10 
REMARK    6  A    between atoms: C_10  and  C_11 
REMARK    7  A    between atoms: C_24  and  C_25 
REMARK    8  A    between atoms: C_26  and  O_27 
ROOT
HETATM    1  C   UNL     1      43.426 -15.275   4.403  1.00  0.00     0.159 A 
HETATM    2  N   UNL     1      43.465 -14.207   5.442  1.00  0.00    -0.329 N 
HETATM    3  C   UNL     1      43.320 -14.676   6.752  1.00  0.00     0.273 A 
HETATM    4  O   UNL     1      43.311 -14.042   7.791  1.00  0.00    -0.266 OA
HETATM    5  C   UNL     1      43.240 -16.077   6.588  1.00  0.00     0.129 A 
HETATM    6  C   UNL     1      43.334 -16.465   5.284  1.00  0.00     0.034 A 
HETATM    7  N   UNL     1      43.134 -17.178   7.344  1.00  0.00    -0.272 N 
HETATM    8  H   UNL     1      43.044 -17.260   8.353  1.00  0.00     0.189 HD
HETATM    9  N   UNL     1      43.175 -18.304   6.586  1.00  0.00    -0.173 NA
HETATM   10  C   UNL     1      43.371 -17.869   5.312  1.00  0.00     0.101 A 
ENDROOT
BRANCH   1  11
HETATM   11  C   UNL     1      42.165 -15.261   3.562  1.00  0.00    -0.028 A 
HETATM   12  C   UNL     1      42.156 -14.815   2.222  1.00  0.00     0.046 A 
HETATM   13  C   UNL     1      40.977 -14.787   1.475  1.00  0.00     0.069 A 
HETATM   14  C   UNL     1      39.786 -15.204   2.069  1.00  0.00     0.037 A 
HETATM   15  C   UNL     1      39.770 -15.648   3.389  1.00  0.00     0.003 A 
HETATM   16  C   UNL     1      40.951 -15.681   4.129  1.00  0.00     0.010 A 
BRANCH  13  17
HETATM   17  O   UNL     1      40.855 -14.379   0.175  1.00  0.00    -0.348 OA
BRANCH  17  18
HETATM   18  C   UNL     1      39.806 -13.460  -0.125  1.00  0.00     0.202 C 
BRANCH  18  19
HETATM   19  C   UNL     1      39.260 -13.820  -1.475  1.00  0.00    -0.011 C 
HETATM   20  C   UNL     1      40.009 -14.160  -2.533  1.00  0.00     0.009 C 
ENDBRANCH  18  19
ENDBRANCH  17  18
ENDBRANCH  13  17
ENDBRANCH   1  11
BRANCH   2  21
HETATM   21  C   UNL     1      43.781 -12.829   5.127  1.00  0.00     0.167 C 
BRANCH  21  22
HETATM   22  C   UNL     1      42.735 -12.131   4.299  1.00  0.00    -0.023 A 
HETATM   23  C   UNL     1      43.097 -11.540   3.091  1.00  0.00     0.125 A 
HETATM   24  N   UNL     1      42.234 -10.924   2.250  1.00  0.00    -0.273 NA
HETATM   25  C   UNL     1      40.936 -10.910   2.615  1.00  0.00     0.116 A 
HETATM   26  C   UNL     1      40.463 -11.482   3.782  1.00  0.00     0.020 A 
HETATM   27  C   UNL     1      41.374 -12.109   4.627  1.00  0.00     0.012 A 
ENDBRANCH  21  22
ENDBRANCH   2  21
BRANCH  10  28
HETATM   28  C   UNL     1      43.573 -18.827   4.224  1.00  0.00     0.028 A 
HETATM   29  C   UNL     1      44.000 -20.142   4.475  1.00  0.00     0.078 A 
HETATM   30  C   UNL     1      44.179 -21.055   3.438  1.00  0.00     0.037 A 
HETATM   31  C   UNL     1      43.959 -20.660   2.120  1.00  0.00     0.003 A 
HETATM   32  C   UNL     1      43.566 -19.352   1.844  1.00  0.00     0.001 A 
HETATM   33  C   UNL     1      43.377 -18.440   2.888  1.00  0.00     0.017 A 
BRANCH  29  34
HETATM   34  O   UNL     1      44.279 -20.595   5.739  1.00  0.00    -0.360 OA
HETATM   35  H   UNL     1      43.579 -20.222   6.321  1.00  0.00     0.217 HD
ENDBRANCH  29  34
ENDBRANCH  10  28
TORSDOF 8
ENDMDL
MODEL 4
REMARK VINA RESULT:      -8.0      1.879      6.278
REMARK  8 active torsions:
REMARK  status: ('A' for Active; 'I' for Inactive)
REMARK    1  A    between atoms: C_2  and  C_3 
REMARK    2  A    between atoms: C_3  and  O_4 
REMARK    3  A    between atoms: O_4  and  C_5 
REMARK    4  A    between atoms: C_7  and  C_8 
REMARK    5  A    between atoms: N_9  and  C_10 
REMARK    6  A    between atoms: C_10  and  C_11 
REMARK    7  A    between atoms: C_24  and  C_25 
REMARK    8  A    between atoms: C_26  and  O_27 
ROOT
HETATM    1  C   UNL     1      41.511 -12.231   1.654  1.00  0.00     0.159 A 
HETATM    2  N   UNL     1      40.575 -11.635   0.659  1.00  0.00    -0.329 N 
HETATM    3  C   UNL     1      39.567 -10.844   1.222  1.00  0.00     0.273 A 
HETATM    4  O   UNL     1      38.672 -10.239   0.662  1.00  0.00    -0.266 OA
HETATM    5  C   UNL     1      39.869 -10.868   2.602  1.00  0.00     0.129 A 
HETATM    6  C   UNL     1      40.980 -11.605   2.889  1.00  0.00     0.034 A 
HETATM    7  N   UNL     1      39.410 -10.343   3.746  1.00  0.00    -0.272 N 
HETATM    8  H   UNL     1      38.602  -9.745   3.901  1.00  0.00     0.189 HD
HETATM    9  N   UNL     1      40.193 -10.689   4.799  1.00  0.00    -0.173 NA
HETATM   10  C   UNL     1      41.210 -11.415   4.262  1.00  0.00     0.101 A 
ENDROOT
BRANCH   1  11
HETATM   11  C   UNL     1      41.348 -13.728   1.823  1.00  0.00    -0.028 A 
HETATM   12  C   UNL     1      42.449 -14.613   1.819  1.00  0.00     0.046 A 
HETATM   13  C   UNL     1      42.271 -15.992   1.951  1.00  0.00     0.069 A 
HETATM   14  C   UNL     1      40.980 -16.502   2.083  1.00  0.00     0.037 A 
HETATM   15  C   UNL     1      39.879 -15.649   2.090  1.00  0.00     0.003 A 
HETATM   16  C   UNL     1      40.061 -14.272   1.965  1.00  0.00     0.010 A 
BRANCH  13  17
HETATM   17  O   UNL     1      43.263 -16.935   1.963  1.00  0.00    -0.348 OA
BRANCH  17  18
HETATM   18  C   UNL     1      43.564 -17.550   3.214  1.00  0.00     0.202 C 
BRANCH  18  19
HETATM   19  C   UNL     1      43.789 -19.010   2.959  1.00  0.00    -0.011 C 
HETATM   20  C   UNL     1      43.155 -19.726   2.020  1.00  0.00     0.009 C 
ENDBRANCH  18  19
ENDBRANCH  17  18
ENDBRANCH  13  17
ENDBRANCH   1  11
BRANCH   2  21
HETATM   21  C   UNL     1      40.789 -11.743  -0.770  1.00  0.00     0.167 C 
BRANCH  21  22
HETATM   22  C   UNL     1      39.832 -12.673  -1.467  1.00  0.00    -0.023 A 
HETATM   23  C   UNL     1      38.732 -12.147  -2.142  1.00  0.00     0.125 A 
HETATM   24  N   UNL     1      37.834 -12.885  -2.834  1.00  0.00    -0.273 NA
HETATM   25  C   UNL     1      38.046 -14.216  -2.878  1.00  0.00     0.116 A 
HETATM   26  C   UNL     1      39.114 -14.842  -2.261  1.00  0.00     0.020 A 
HETATM   27  C   UNL     1      40.022 -14.057  -1.556  1.00  0.00     0.012 A 
ENDBRANCH  21  22
ENDBRANCH   2  21
BRANCH  10  28
HETATM   28  C   UNL     1      42.319 -11.874   5.102  1.00  0.00     0.028 A 
HETATM   29  C   UNL     1      42.373 -13.192   5.588  1.00  0.00     0.078 A 
HETATM   30  C   UNL     1      43.436 -13.629   6.376  1.00  0.00     0.037 A 
HETATM   31  C   UNL     1      44.456 -12.743   6.718  1.00  0.00     0.003 A 
HETATM   32  C   UNL     1      44.405 -11.423   6.276  1.00  0.00     0.001 A 
HETATM   33  C   UNL     1      43.343 -10.989   5.475  1.00  0.00     0.017 A 
BRANCH  29  34
HETATM   34  O   UNL     1      41.388 -14.111   5.330  1.00  0.00    -0.360 OA
HETATM   35  H   UNL     1      40.574 -13.591   5.146  1.00  0.00     0.217 HD
ENDBRANCH  29  34
ENDBRANCH  10  28
TORSDOF 8
ENDMDL
MODEL 5
REMARK VINA RESULT:      -8.0      1.611      2.240
REMARK  8 active torsions:
REMARK  status: ('A' for Active; 'I' for Inactive)
REMARK    1  A    between atoms: C_2  and  C_3 
REMARK    2  A    between atoms: C_3  and  O_4 
REMARK    3  A    between atoms: O_4  and  C_5 
REMARK    4  A    between atoms: C_7  and  C_8 
REMARK    5  A    between atoms: N_9  and  C_10 
REMARK    6  A    between atoms: C_10  and  C_11 
REMARK    7  A    between atoms: C_24  and  C_25 
REMARK    8  A    between atoms: C_26  and  O_27 
ROOT
HETATM    1  C   UNL     1      40.111 -12.524   3.026  1.00  0.00     0.159 A 
HETATM    2  N   UNL     1      40.850 -11.900   4.160  1.00  0.00    -0.329 N 
HETATM    3  C   UNL     1      41.747 -10.897   3.777  1.00  0.00     0.273 A 
HETATM    4  O   UNL     1      42.478 -10.222   4.478  1.00  0.00    -0.266 OA
HETATM    5  C   UNL     1      41.563 -10.813   2.379  1.00  0.00     0.129 A 
HETATM    6  C   UNL     1      40.621 -11.684   1.915  1.00  0.00     0.034 A 
HETATM    7  N   UNL     1      42.013 -10.094   1.342  1.00  0.00    -0.272 N 
HETATM    8  H   UNL     1      42.715  -9.359   1.325  1.00  0.00     0.189 HD
HETATM    9  N   UNL     1      41.386 -10.442   0.189  1.00  0.00    -0.173 NA
HETATM   10  C   UNL     1      40.470 -11.380   0.552  1.00  0.00     0.101 A 
ENDROOT
BRANCH   1  11
HETATM   11  C   UNL     1      40.542 -13.945   2.727  1.00  0.00    -0.028 A 
HETATM   12  C   UNL     1      41.885 -14.369   2.850  1.00  0.00     0.046 A 
HETATM   13  C   UNL     1      42.263 -15.678   2.545  1.00  0.00     0.069 A 
HETATM   14  C   UNL     1      41.295 -16.581   2.105  1.00  0.00     0.037 A 
HETATM   15  C   UNL     1      39.965 -16.186   1.976  1.00  0.00     0.003 A 
HETATM   16  C   UNL     1      39.590 -14.880   2.289  1.00  0.00     0.010 A 
BRANCH  13  17
HETATM   17  O   UNL     1      43.528 -16.193   2.631  1.00  0.00    -0.348 OA
BRANCH  17  18
HETATM   18  C   UNL     1      43.648 -17.579   2.943  1.00  0.00     0.202 C 
BRANCH  18  19
HETATM   19  C   UNL     1      43.912 -17.691   4.415  1.00  0.00    -0.011 C 
HETATM   20  C   UNL     1      44.005 -18.846   5.087  1.00  0.00     0.009 C 
ENDBRANCH  18  19
ENDBRANCH  17  18
ENDBRANCH  13  17
ENDBRANCH   1  11
BRANCH   2  21
HETATM   21  C   UNL     1      40.546 -12.203   5.544  1.00  0.00     0.167 C 
BRANCH  21  22
HETATM   22  C   UNL     1      41.165 -13.481   6.044  1.00  0.00    -0.023 A 
HETATM   23  C   UNL     1      42.509 -13.496   6.409  1.00  0.00     0.125 A 
HETATM   24  N   UNL     1      43.156 -14.575   6.908  1.00  0.00    -0.273 NA
HETATM   25  C   UNL     1      42.426 -15.697   7.074  1.00  0.00     0.116 A 
HETATM   26  C   UNL     1      41.081 -15.789   6.762  1.00  0.00     0.020 A 
HETATM   27  C   UNL     1      40.443 -14.663   6.251  1.00  0.00     0.012 A 
ENDBRANCH  21  22
ENDBRANCH   2  21
BRANCH  10  28
HETATM   28  C   UNL     1      39.527 -11.915  -0.432  1.00  0.00     0.028 A 
HETATM   29  C   UNL     1      39.744 -13.155  -1.057  1.00  0.00     0.078 A 
HETATM   30  C   UNL     1      38.837 -13.667  -1.983  1.00  0.00     0.037 A 
HETATM   31  C   UNL     1      37.704 -12.932  -2.325  1.00  0.00     0.003 A 
HETATM   32  C   UNL     1      37.485 -11.685  -1.743  1.00  0.00     0.001 A 
HETATM   33  C   UNL     1      38.391 -11.177  -0.805  1.00  0.00     0.017 A 
BRANCH  29  34
HETATM   34  O   UNL     1      40.855 -13.919  -0.807  1.00  0.00    -0.360 OA
HETATM   35  H   UNL     1      41.605 -13.287  -0.725  1.00  0.00     0.217 HD
ENDBRANCH  29  34
ENDBRANCH  10  28
TORSDOF 8
ENDMDL
MODEL 6
REMARK VINA RESULT:      -7.8      2.154      6.486
REMARK  8 active torsions:
REMARK  status: ('A' for Active; 'I' for Inactive)
REMARK    1  A    between atoms: C_2  and  C_3 
REMARK    2  A    between atoms: C_3  and  O_4 
REMARK    3  A    between atoms: O_4  and  C_5 
REMARK    4  A    between atoms: C_7  and  C_8 
REMARK    5  A    between atoms: N_9  and  C_10 
REMARK    6  A    between atoms: C_10  and  C_11 
REMARK    7  A    between atoms: C_24  and  C_25 
REMARK    8  A    between atoms: C_26  and  O_27 
ROOT
HETATM    1  C   UNL     1      41.817 -11.956   2.177  1.00  0.00     0.159 A 
HETATM    2  N   UNL     1      40.809 -11.615   1.134  1.00  0.00    -0.329 N 
HETATM    3  C   UNL     1      39.602 -11.124   1.642  1.00  0.00     0.273 A 
HETATM    4  O   UNL     1      38.609 -10.769   1.034  1.00  0.00    -0.266 OA
HETATM    5  C   UNL     1      39.828 -11.083   3.035  1.00  0.00     0.129 A 
HETATM    6  C   UNL     1      41.078 -11.507   3.382  1.00  0.00     0.034 A 
HETATM    7  N   UNL     1      39.189 -10.711   4.153  1.00  0.00    -0.272 N 
HETATM    8  H   UNL     1      38.247 -10.349   4.264  1.00  0.00     0.189 HD
HETATM    9  N   UNL     1      39.982 -10.852   5.246  1.00  0.00    -0.173 NA
HETATM   10  C   UNL     1      41.180 -11.279   4.765  1.00  0.00     0.101 A 
ENDROOT
BRANCH   1  11
HETATM   11  C   UNL     1      42.045 -13.445   2.341  1.00  0.00    -0.028 A 
HETATM   12  C   UNL     1      41.188 -14.260   3.114  1.00  0.00     0.046 A 
HETATM   13  C   UNL     1      41.432 -15.626   3.270  1.00  0.00     0.069 A 
HETATM   14  C   UNL     1      42.548 -16.192   2.654  1.00  0.00     0.037 A 
HETATM   15  C   UNL     1      43.407 -15.409   1.886  1.00  0.00     0.003 A 
HETATM   16  C   UNL     1      43.155 -14.047   1.726  1.00  0.00     0.010 A 
BRANCH  13  17
HETATM   17  O   UNL     1      40.670 -16.504   3.991  1.00  0.00    -0.348 OA
BRANCH  17  18
HETATM   18  C   UNL     1      40.468 -16.211   5.372  1.00  0.00     0.202 C 
BRANCH  18  19
HETATM   19  C   UNL     1      41.723 -16.583   6.103  1.00  0.00    -0.011 C 
HETATM   20  C   UNL     1      42.204 -15.933   7.171  1.00  0.00     0.009 C 
ENDBRANCH  18  19
ENDBRANCH  17  18
ENDBRANCH  13  17
ENDBRANCH   1  11
BRANCH   2  21
HETATM   21  C   UNL     1      41.117 -11.646  -0.282  1.00  0.00     0.167 C 
BRANCH  21  22
HETATM   22  C   UNL     1      40.408 -12.736  -1.042  1.00  0.00    -0.023 A 
HETATM   23  C   UNL     1      40.245 -12.617  -2.420  1.00  0.00     0.125 A 
HETATM   24  N   UNL     1      39.661 -13.551  -3.206  1.00  0.00    -0.273 NA
HETATM   25  C   UNL     1      39.233 -14.675  -2.597  1.00  0.00     0.116 A 
HETATM   26  C   UNL     1      39.360 -14.907  -1.239  1.00  0.00     0.020 A 
HETATM   27  C   UNL     1      39.965 -13.928  -0.456  1.00  0.00     0.012 A 
ENDBRANCH  21  22
ENDBRANCH   2  21
BRANCH  10  28
HETATM   28  C   UNL     1      42.325 -11.440   5.662  1.00  0.00     0.028 A 
HETATM   29  C   UNL     1      42.763 -10.389   6.487  1.00  0.00     0.078 A 
HETATM   30  C   UNL     1      43.846 -10.549   7.350  1.00  0.00     0.037 A 
HETATM   31  C   UNL     1      44.531 -11.762   7.384  1.00  0.00     0.003 A 
HETATM   32  C   UNL     1      44.136 -12.807   6.552  1.00  0.00     0.001 A 
HETATM   33  C   UNL     1      43.042 -12.647   5.694  1.00  0.00     0.017 A 
BRANCH  29  34
HETATM   34  O   UNL     1      42.168  -9.153   6.480  1.00  0.00    -0.360 OA
HETATM   35  H   UNL     1      42.137  -8.872   5.537  1.00  0.00     0.217 HD
ENDBRANCH  29  34
ENDBRANCH  10  28
TORSDOF 8
ENDMDL
MODEL 7
REMARK VINA RESULT:      -7.8      2.371      6.287
REMARK  8 active torsions:
REMARK  status: ('A' for Active; 'I' for Inactive)
REMARK    1  A    between atoms: C_2  and  C_3 
REMARK    2  A    between atoms: C_3  and  O_4 
REMARK    3  A    between atoms: O_4  and  C_5 
REMARK    4  A    between atoms: C_7  and  C_8 
REMARK    5  A    between atoms: N_9  and  C_10 
REMARK    6  A    between atoms: C_10  and  C_11 
REMARK    7  A    between atoms: C_24  and  C_25 
REMARK    8  A    between atoms: C_26  and  O_27 
ROOT
HETATM    1  C   UNL     1      41.813 -13.316   4.310  1.00  0.00     0.159 A 
HETATM    2  N   UNL     1      41.118 -12.276   5.120  1.00  0.00    -0.329 N 
HETATM    3  C   UNL     1      40.209 -12.788   6.052  1.00  0.00     0.273 A 
HETATM    4  O   UNL     1      39.506 -12.183   6.840  1.00  0.00    -0.266 OA
HETATM    5  C   UNL     1      40.340 -14.185   5.900  1.00  0.00     0.129 A 
HETATM    6  C   UNL     1      41.262 -14.532   4.956  1.00  0.00     0.034 A 
HETATM    7  N   UNL     1      39.852 -15.311   6.439  1.00  0.00    -0.272 N 
HETATM    8  H   UNL     1      39.151 -15.425   7.165  1.00  0.00     0.189 HD
HETATM    9  N   UNL     1      40.435 -16.412   5.898  1.00  0.00    -0.173 NA
HETATM   10  C   UNL     1      41.362 -15.932   5.027  1.00  0.00     0.101 A 
ENDROOT
BRANCH   1  11
HETATM   11  C   UNL     1      41.369 -13.357   2.861  1.00  0.00    -0.028 A 
HETATM   12  C   UNL     1      40.172 -12.748   2.421  1.00  0.00     0.046 A 
HETATM   13  C   UNL     1      39.771 -12.820   1.085  1.00  0.00     0.069 A 
HETATM   14  C   UNL     1      40.566 -13.513   0.173  1.00  0.00     0.037 A 
HETATM   15  C   UNL     1      41.750 -14.122   0.583  1.00  0.00     0.003 A 
HETATM   16  C   UNL     1      42.151 -14.041   1.917  1.00  0.00     0.010 A 
BRANCH  13  17
HETATM   17  O   UNL     1      38.638 -12.267   0.553  1.00  0.00    -0.348 OA
BRANCH  17  18
HETATM   18  C   UNL     1      38.761 -11.620  -0.712  1.00  0.00     0.202 C 
BRANCH  18  19
HETATM   19  C   UNL     1      37.636 -12.103  -1.579  1.00  0.00    -0.011 C 
HETATM   20  C   UNL     1      37.667 -13.224  -2.311  1.00  0.00     0.009 C 
ENDBRANCH  18  19
ENDBRANCH  17  18
ENDBRANCH  13  17
ENDBRANCH   1  11
BRANCH   2  21
HETATM   21  C   UNL     1      41.474 -10.873   5.050  1.00  0.00     0.167 C 
BRANCH  21  22
HETATM   22  C   UNL     1      42.471 -10.438   6.091  1.00  0.00    -0.023 A 
HETATM   23  C   UNL     1      42.133  -9.423   6.983  1.00  0.00     0.125 A 
HETATM   24  N   UNL     1      42.933  -8.982   7.981  1.00  0.00    -0.273 NA
HETATM   25  C   UNL     1      44.128  -9.593   8.117  1.00  0.00     0.116 A 
HETATM   26  C   UNL     1      44.558 -10.623   7.300  1.00  0.00     0.020 A 
HETATM   27  C   UNL     1      43.712 -11.056   6.282  1.00  0.00     0.012 A 
ENDBRANCH  21  22
ENDBRANCH   2  21
BRANCH  10  28
HETATM   28  C   UNL     1      42.267 -16.847   4.328  1.00  0.00     0.028 A 
HETATM   29  C   UNL     1      43.339 -17.467   4.994  1.00  0.00     0.078 A 
HETATM   30  C   UNL     1      44.191 -18.347   4.329  1.00  0.00     0.037 A 
HETATM   31  C   UNL     1      44.003 -18.603   2.973  1.00  0.00     0.003 A 
HETATM   32  C   UNL     1      42.967 -17.974   2.285  1.00  0.00     0.001 A 
HETATM   33  C   UNL     1      42.106 -17.099   2.957  1.00  0.00     0.017 A 
BRANCH  29  34
HETATM   34  O   UNL     1      43.616 -17.235   6.317  1.00  0.00    -0.360 OA
HETATM   35  H   UNL     1      43.183 -16.379   6.538  1.00  0.00     0.217 HD
ENDBRANCH  29  34
ENDBRANCH  10  28
TORSDOF 8
ENDMDL
MODEL 8
REMARK VINA RESULT:      -7.8      1.983      6.792
REMARK  8 active torsions:
REMARK  status: ('A' for Active; 'I' for Inactive)
REMARK    1  A    between atoms: C_2  and  C_3 
REMARK    2  A    between atoms: C_3  and  O_4 
REMARK    3  A    between atoms: O_4  and  C_5 
REMARK    4  A    between atoms: C_7  and  C_8 
REMARK    5  A    between atoms: N_9  and  C_10 
REMARK    6  A    between atoms: C_10  and  C_11 
REMARK    7  A    between atoms: C_24  and  C_25 
REMARK    8  A    between atoms: C_26  and  O_27 
ROOT
HETATM    1  C   UNL     1      41.581 -13.485   3.920  1.00  0.00     0.159 A 
HETATM    2  N   UNL     1      40.808 -12.422   4.624  1.00  0.00    -0.329 N 
HETATM    3  C   UNL     1      40.004 -12.893   5.667  1.00  0.00     0.273 A 
HETATM    4  O   UNL     1      39.272 -12.263   6.408  1.00  0.00    -0.266 OA
HETATM    5  C   UNL     1      40.287 -14.276   5.696  1.00  0.00     0.129 A 
HETATM    6  C   UNL     1      41.200 -14.651   4.754  1.00  0.00     0.034 A 
HETATM    7  N   UNL     1      39.954 -15.362   6.408  1.00  0.00    -0.272 N 
HETATM    8  H   UNL     1      39.303 -15.447   7.183  1.00  0.00     0.189 HD
HETATM    9  N   UNL     1      40.634 -16.458   5.986  1.00  0.00    -0.173 NA
HETATM   10  C   UNL     1      41.462 -16.008   5.005  1.00  0.00     0.101 A 
ENDROOT
BRANCH   1  11
HETATM   11  C   UNL     1      41.081 -13.774   2.519  1.00  0.00    -0.028 A 
HETATM   12  C   UNL     1      41.430 -12.969   1.411  1.00  0.00     0.046 A 
HETATM   13  C   UNL     1      40.937 -13.241   0.133  1.00  0.00     0.069 A 
HETATM   14  C   UNL     1      40.078 -14.325  -0.048  1.00  0.00     0.037 A 
HETATM   15  C   UNL     1      39.720 -15.133   1.029  1.00  0.00     0.003 A 
HETATM   16  C   UNL     1      40.221 -14.863   2.302  1.00  0.00     0.010 A 
BRANCH  13  17
HETATM   17  O   UNL     1      41.211 -12.532  -1.004  1.00  0.00    -0.348 OA
BRANCH  17  18
HETATM   18  C   UNL     1      40.786 -11.171  -1.043  1.00  0.00     0.202 C 
BRANCH  18  19
HETATM   19  C   UNL     1      39.466 -11.128  -1.753  1.00  0.00    -0.011 C 
HETATM   20  C   UNL     1      39.180 -11.810  -2.870  1.00  0.00     0.009 C 
ENDBRANCH  18  19
ENDBRANCH  17  18
ENDBRANCH  13  17
ENDBRANCH   1  11
BRANCH   2  21
HETATM   21  C   UNL     1      40.998 -11.012   4.347  1.00  0.00     0.167 C 
BRANCH  21  22
HETATM   22  C   UNL     1      40.043 -10.452   3.326  1.00  0.00    -0.023 A 
HETATM   23  C   UNL     1      40.415  -9.337   2.577  1.00  0.00     0.125 A 
HETATM   24  N   UNL     1      39.656  -8.777   1.608  1.00  0.00    -0.273 NA
HETATM   25  C   UNL     1      38.469  -9.364   1.351  1.00  0.00     0.116 A 
HETATM   26  C   UNL     1      38.008 -10.484   2.019  1.00  0.00     0.020 A 
HETATM   27  C   UNL     1      38.812 -11.039   3.011  1.00  0.00     0.012 A 
ENDBRANCH  21  22
ENDBRANCH   2  21
BRANCH  10  28
HETATM   28  C   UNL     1      42.434 -16.909   4.383  1.00  0.00     0.028 A 
HETATM   29  C   UNL     1      43.410 -17.574   5.145  1.00  0.00     0.078 A 
HETATM   30  C   UNL     1      44.325 -18.441   4.552  1.00  0.00     0.037 A 
HETATM   31  C   UNL     1      44.299 -18.640   3.173  1.00  0.00     0.003 A 
HETATM   32  C   UNL     1      43.361 -17.966   2.393  1.00  0.00     0.001 A 
HETATM   33  C   UNL     1      42.436 -17.104   2.992  1.00  0.00     0.017 A 
BRANCH  29  34
HETATM   34  O   UNL     1      43.528 -17.398   6.500  1.00  0.00    -0.360 OA
HETATM   35  H   UNL     1      42.681 -16.995   6.797  1.00  0.00     0.217 HD
ENDBRANCH  29  34
ENDBRANCH  10  28
TORSDOF 8
ENDMDL
MODEL 9
REMARK VINA RESULT:      -7.6      5.500     10.092
REMARK  8 active torsions:
REMARK  status: ('A' for Active; 'I' for Inactive)
REMARK    1  A    between atoms: C_2  and  C_3 
REMARK    2  A    between atoms: C_3  and  O_4 
REMARK    3  A    between atoms: O_4  and  C_5 
REMARK    4  A    between atoms: C_7  and  C_8 
REMARK    5  A    between atoms: N_9  and  C_10 
REMARK    6  A    between atoms: C_10  and  C_11 
REMARK    7  A    between atoms: C_24  and  C_25 
REMARK    8  A    between atoms: C_26  and  O_27 
ROOT
HETATM    1  C   UNL     1      42.849 -10.831   7.623  1.00  0.00     0.159 A 
HETATM    2  N   UNL     1      43.506 -11.331   6.382  1.00  0.00    -0.329 N 
HETATM    3  C   UNL     1      44.852 -10.968   6.260  1.00  0.00     0.273 A 
HETATM    4  O   UNL     1      45.632 -11.230   5.364  1.00  0.00    -0.266 OA
HETATM    5  C   UNL     1      45.109 -10.268   7.459  1.00  0.00     0.129 A 
HETATM    6  C   UNL     1      44.020 -10.198   8.277  1.00  0.00     0.034 A 
HETATM    7  N   UNL     1      46.134  -9.664   8.077  1.00  0.00    -0.272 N 
HETATM    8  H   UNL     1      47.089  -9.532   7.758  1.00  0.00     0.189 HD
HETATM    9  N   UNL     1      45.772  -9.205   9.303  1.00  0.00    -0.173 NA
HETATM   10  C   UNL     1      44.479  -9.596   9.461  1.00  0.00     0.101 A 
ENDROOT
BRANCH   1  11
HETATM   11  C   UNL     1      41.842  -9.725   7.376  1.00  0.00    -0.028 A 
HETATM   12  C   UNL     1      40.754  -9.487   8.244  1.00  0.00     0.046 A 
HETATM   13  C   UNL     1      39.824  -8.478   7.982  1.00  0.00     0.069 A 
HETATM   14  C   UNL     1      39.974  -7.696   6.837  1.00  0.00     0.037 A 
HETATM   15  C   UNL     1      41.039  -7.913   5.965  1.00  0.00     0.003 A 
HETATM   16  C   UNL     1      41.969  -8.916   6.235  1.00  0.00     0.010 A 
BRANCH  13  17
HETATM   17  O   UNL     1      38.739  -8.161   8.753  1.00  0.00    -0.348 OA
BRANCH  17  18
HETATM   18  C   UNL     1      38.745  -6.887   9.395  1.00  0.00     0.202 C 
BRANCH  18  19
HETATM   19  C   UNL     1      39.404  -7.057  10.731  1.00  0.00    -0.011 C 
HETATM   20  C   UNL     1      39.192  -8.088  11.560  1.00  0.00     0.009 C 
ENDBRANCH  18  19
ENDBRANCH  17  18
ENDBRANCH  13  17
ENDBRANCH   1  11
BRANCH   2  21
HETATM   21  C   UNL     1      42.846 -12.240   5.467  1.00  0.00     0.167 C 
BRANCH  21  22
HETATM   22  C   UNL     1      42.492 -13.572   6.072  1.00  0.00    -0.023 A 
HETATM   23  C   UNL     1      41.195 -14.063   5.940  1.00  0.00     0.125 A 
HETATM   24  N   UNL     1      40.778 -15.262   6.407  1.00  0.00    -0.273 NA
HETATM   25  C   UNL     1      41.702 -16.029   7.022  1.00  0.00     0.116 A 
HETATM   26  C   UNL     1      43.021 -15.650   7.192  1.00  0.00     0.020 A 
HETATM   27  C   UNL     1      43.421 -14.410   6.700  1.00  0.00     0.012 A 
ENDBRANCH  21  22
ENDBRANCH   2  21
BRANCH  10  28
HETATM   28  C   UNL     1      43.783  -9.362  10.728  1.00  0.00     0.028 A 
HETATM   29  C   UNL     1      43.402 -10.426  11.563  1.00  0.00     0.078 A 
HETATM   30  C   UNL     1      42.751 -10.199  12.774  1.00  0.00     0.037 A 
HETATM   31  C   UNL     1      42.442  -8.897  13.162  1.00  0.00     0.003 A 
HETATM   32  C   UNL     1      42.780  -7.828  12.334  1.00  0.00     0.001 A 
HETATM   33  C   UNL     1      43.444  -8.058  11.123  1.00  0.00     0.017 A 
BRANCH  29  34
HETATM   34  O   UNL     1      43.632 -11.737  11.233  1.00  0.00    -0.360 OA
HETATM   35  H   UNL     1      42.922 -12.257  11.673  1.00  0.00     0.217 HD
ENDBRANCH  29  34
ENDBRANCH  10  28
TORSDOF 8
ENDMDL
MODEL 10
REMARK VINA RESULT:      -7.6      2.429      5.760
REMARK  8 active torsions:
REMARK  status: ('A' for Active; 'I' for Inactive)
REMARK    1  A    between atoms: C_2  and  C_3 
REMARK    2  A    between atoms: C_3  and  O_4 
REMARK    3  A    between atoms: O_4  and  C_5 
REMARK    4  A    between atoms: C_7  and  C_8 
REMARK    5  A    between atoms: N_9  and  C_10 
REMARK    6  A    between atoms: C_10  and  C_11 
REMARK    7  A    between atoms: C_24  and  C_25 
REMARK    8  A    between atoms: C_26  and  O_27 
ROOT
HETATM    1  C   UNL     1      41.381 -14.327   5.356  1.00  0.00     0.159 A 
HETATM    2  N   UNL     1      42.266 -15.363   5.962  1.00  0.00    -0.329 N 
HETATM    3  C   UNL     1      43.294 -14.845   6.757  1.00  0.00     0.273 A 
HETATM    4  O   UNL     1      44.158 -15.445   7.369  1.00  0.00    -0.266 OA
HETATM    5  C   UNL     1      43.057 -13.453   6.728  1.00  0.00     0.129 A 
HETATM    6  C   UNL     1      41.965 -13.116   5.982  1.00  0.00     0.034 A 
HETATM    7  N   UNL     1      43.566 -12.330   7.253  1.00  0.00    -0.272 N 
HETATM    8  H   UNL     1      44.376 -12.211   7.855  1.00  0.00     0.189 HD
HETATM    9  N   UNL     1      42.835 -11.242   6.898  1.00  0.00    -0.173 NA
HETATM   10  C   UNL     1      41.799 -11.734   6.167  1.00  0.00     0.101 A 
ENDROOT
BRANCH   1  11
HETATM   11  C   UNL     1      41.562 -14.171   3.860  1.00  0.00    -0.028 A 
HETATM   12  C   UNL     1      40.493 -14.329   2.949  1.00  0.00     0.046 A 
HETATM   13  C   UNL     1      40.690 -14.205   1.572  1.00  0.00     0.069 A 
HETATM   14  C   UNL     1      41.968 -13.925   1.090  1.00  0.00     0.037 A 
HETATM   15  C   UNL     1      43.038 -13.765   1.968  1.00  0.00     0.003 A 
HETATM   16  C   UNL     1      42.836 -13.882   3.343  1.00  0.00     0.010 A 
BRANCH  13  17
HETATM   17  O   UNL     1      39.730 -14.335   0.606  1.00  0.00    -0.348 OA
BRANCH  17  18
HETATM   18  C   UNL     1      40.141 -14.164  -0.749  1.00  0.00     0.202 C 
BRANCH  18  19
HETATM   19  C   UNL     1      38.936 -14.371  -1.617  1.00  0.00    -0.011 C 
HETATM   20  C   UNL     1      38.979 -14.670  -2.923  1.00  0.00     0.009 C 
ENDBRANCH  18  19
ENDBRANCH  17  18
ENDBRANCH  13  17
ENDBRANCH   1  11
BRANCH   2  21
HETATM   21  C   UNL     1      41.986 -16.781   5.856  1.00  0.00     0.167 C 
BRANCH  21  22
HETATM   22  C   UNL     1      42.786 -17.489   4.794  1.00  0.00    -0.023 A 
HETATM   23  C   UNL     1      43.826 -18.336   5.169  1.00  0.00     0.125 A 
HETATM   24  N   UNL     1      44.581 -19.052   4.304  1.00  0.00    -0.273 NA
HETATM   25  C   UNL     1      44.278 -18.938   2.995  1.00  0.00     0.116 A 
HETATM   26  C   UNL     1      43.255 -18.140   2.513  1.00  0.00     0.020 A 
HETATM   27  C   UNL     1      42.495 -17.416   3.427  1.00  0.00     0.012 A 
ENDBRANCH  21  22
ENDBRANCH   2  21
BRANCH  10  28
HETATM   28  C   UNL     1      40.734 -10.844   5.698  1.00  0.00     0.028 A 
HETATM   29  C   UNL     1      39.959 -10.092   6.598  1.00  0.00     0.078 A 
HETATM   30  C   UNL     1      38.955  -9.237   6.149  1.00  0.00     0.037 A 
HETATM   31  C   UNL     1      38.687  -9.138   4.785  1.00  0.00     0.003 A 
HETATM   32  C   UNL     1      39.420  -9.899   3.877  1.00  0.00     0.001 A 
HETATM   33  C   UNL     1      40.435 -10.749   4.330  1.00  0.00     0.017 A 
BRANCH  29  34
HETATM   34  O   UNL     1      40.132 -10.166   7.957  1.00  0.00    -0.360 OA
HETATM   35  H   UNL     1      40.110  -9.238   8.284  1.00  0.00     0.217 HD
ENDBRANCH  29  34
ENDBRANCH  10  28
TORSDOF 8
ENDMDL
