MODEL 1
REMARK VINA RESULT:      -7.3      0.000      0.000
REMARK  5 active torsions:
REMARK  status: ('A' for Active; 'I' for Inactive)
REMARK    1  A    between atoms: C_2  and  O_3 
REMARK    2  A    between atoms: O_3  and  C_4 
REMARK    3  A    between atoms: C_6  and  C_7 
REMARK    4  A    between atoms: C_7  and  N_8 
REMARK       I    between atoms: N_8  and  C_9 
REMARK       I    between atoms: C_9  and  N_10 
REMARK    5  A    between atoms: N_10  and  C_11 
ROOT
HETATM    1  N   UNL     1      42.957 -13.895   5.771  1.00  0.00    -0.335 N 
HETATM    2  C   UNL     1      43.475 -13.046   6.701  1.00  0.00     0.321 C 
HETATM    3  N   UNL     1      43.841 -11.809   6.251  1.00  0.00    -0.307 N 
HETATM    4  O   UNL     1      43.583 -13.463   7.850  1.00  0.00    -0.247 OA
HETATM    5  H   UNL     1      42.801 -14.815   6.165  1.00  0.00     0.165 HD
HETATM    6  H   UNL     1      44.119 -11.797   5.285  1.00  0.00     0.170 HD
ENDROOT
BRANCH   1   7
HETATM    7  C   UNL     1      42.800 -13.771   4.326  1.00  0.00     0.115 C 
HETATM    8  C   UNL     1      41.437 -13.142   4.029  1.00  0.00     0.037 C 
BRANCH   7   9
HETATM    9  C   UNL     1      43.049 -15.125   3.677  1.00  0.00    -0.033 A 
HETATM   10  C   UNL     1      43.277 -16.244   4.500  1.00  0.00     0.046 A 
HETATM   11  C   UNL     1      43.458 -17.525   3.971  1.00  0.00     0.069 A 
HETATM   12  C   UNL     1      43.452 -17.703   2.592  1.00  0.00     0.037 A 
HETATM   13  C   UNL     1      43.233 -16.608   1.755  1.00  0.00     0.003 A 
HETATM   14  C   UNL     1      43.023 -15.334   2.290  1.00  0.00     0.009 A 
BRANCH  11  15
HETATM   15  O   UNL     1      43.646 -18.506   4.903  1.00  0.00    -0.352 OA
BRANCH  15  16
HETATM   16  C   UNL     1      44.424 -19.628   4.488  1.00  0.00     0.171 C 
HETATM   17  C   UNL     1      43.941 -20.838   5.267  1.00  0.00     0.034 C 
ENDBRANCH  15  16
ENDBRANCH  11  15
ENDBRANCH   7   9
ENDBRANCH   1   7
BRANCH   3  18
HETATM   18  C   UNL     1      44.385 -10.759   7.032  1.00  0.00     0.059 A 
HETATM   19  C   UNL     1      43.667  -9.746   7.681  1.00  0.00    -0.032 A 
HETATM   20  C   UNL     1      42.181  -9.546   7.576  1.00  0.00     0.050 C 
HETATM   21  C   UNL     1      44.381  -8.822   8.466  1.00  0.00     0.028 A 
HETATM   22  C   UNL     1      45.764  -8.894   8.522  1.00  0.00     0.117 A 
HETATM   23  N   UNL     1      46.488  -9.807   7.852  1.00  0.00    -0.271 NA
HETATM   24  C   UNL     1      45.783 -10.708   7.129  1.00  0.00     0.146 A 
ENDBRANCH   3  18
TORSDOF 5
ENDMDL
MODEL 2
REMARK VINA RESULT:      -7.2      2.341      3.255
REMARK  5 active torsions:
REMARK  status: ('A' for Active; 'I' for Inactive)
REMARK    1  A    between atoms: C_2  and  O_3 
REMARK    2  A    between atoms: O_3  and  C_4 
REMARK    3  A    between atoms: C_6  and  C_7 
REMARK    4  A    between atoms: C_7  and  N_8 
REMARK       I    between atoms: N_8  and  C_9 
REMARK       I    between atoms: C_9  and  N_10 
REMARK    5  A    between atoms: N_10  and  C_11 
ROOT
HETATM    1  N   UNL     1      40.363 -15.127   4.454  1.00  0.00    -0.335 N 
HETATM    2  C   UNL     1      40.578 -14.136   5.363  1.00  0.00     0.321 C 
HETATM    3  N   UNL     1      41.407 -13.125   4.969  1.00  0.00    -0.307 N 
HETATM    4  O   UNL     1      40.028 -14.241   6.455  1.00  0.00    -0.247 OA
HETATM    5  H   UNL     1      39.816 -15.879   4.857  1.00  0.00     0.165 HD
HETATM    6  H   UNL     1      42.098 -13.409   4.296  1.00  0.00     0.170 HD
ENDROOT
BRANCH   1   7
HETATM    7  C   UNL     1      40.937 -15.375   3.136  1.00  0.00     0.115 C 
HETATM    8  C   UNL     1      39.800 -15.603   2.136  1.00  0.00     0.037 C 
BRANCH   7   9
HETATM    9  C   UNL     1      41.954 -16.503   3.236  1.00  0.00    -0.033 A 
HETATM   10  C   UNL     1      42.636 -16.699   4.451  1.00  0.00     0.046 A 
HETATM   11  C   UNL     1      43.542 -17.749   4.628  1.00  0.00     0.069 A 
HETATM   12  C   UNL     1      43.812 -18.606   3.567  1.00  0.00     0.037 A 
HETATM   13  C   UNL     1      43.152 -18.428   2.351  1.00  0.00     0.003 A 
HETATM   14  C   UNL     1      42.225 -17.394   2.188  1.00  0.00     0.009 A 
BRANCH  11  15
HETATM   15  O   UNL     1      44.103 -17.816   5.873  1.00  0.00    -0.352 OA
BRANCH  15  16
HETATM   16  C   UNL     1      44.460 -16.570   6.470  1.00  0.00     0.171 C 
HETATM   17  C   UNL     1      43.697 -16.449   7.777  1.00  0.00     0.034 C 
ENDBRANCH  15  16
ENDBRANCH  11  15
ENDBRANCH   7   9
ENDBRANCH   1   7
BRANCH   3  18
HETATM   18  C   UNL     1      41.764 -11.986   5.732  1.00  0.00     0.059 A 
HETATM   19  C   UNL     1      42.939 -11.819   6.477  1.00  0.00    -0.032 A 
HETATM   20  C   UNL     1      43.991 -12.874   6.668  1.00  0.00     0.050 C 
HETATM   21  C   UNL     1      43.146 -10.586   7.123  1.00  0.00     0.028 A 
HETATM   22  C   UNL     1      42.167  -9.607   7.066  1.00  0.00     0.117 A 
HETATM   23  N   UNL     1      40.997  -9.765   6.423  1.00  0.00    -0.271 NA
HETATM   24  C   UNL     1      40.829 -10.943   5.779  1.00  0.00     0.146 A 
ENDBRANCH   3  18
TORSDOF 5
ENDMDL
MODEL 3
REMARK VINA RESULT:      -7.1      4.528      7.418
REMARK  5 active torsions:
REMARK  status: ('A' for Active; 'I' for Inactive)
REMARK    1  A    between atoms: C_2  and  O_3 
REMARK    2  A    between atoms: O_3  and  C_4 
REMARK    3  A    between atoms: C_6  and  C_7 
REMARK    4  A    between atoms: C_7  and  N_8 
REMARK       I    between atoms: N_8  and  C_9 
REMARK       I    between atoms: C_9  and  N_10 
REMARK    5  A    between atoms: N_10  and  C_11 
ROOT
HETATM    1  N   UNL     1      41.844 -14.853   0.931  1.00  0.00    -0.335 N 
HETATM    2  C   UNL     1      42.724 -15.704   1.528  1.00  0.00     0.321 C 
HETATM    3  N   UNL     1      42.179 -16.747   2.221  1.00  0.00    -0.307 N 
HETATM    4  O   UNL     1      43.920 -15.458   1.406  1.00  0.00    -0.247 OA
HETATM    5  H   UNL     1      42.324 -14.062   0.520  1.00  0.00     0.165 HD
HETATM    6  H   UNL     1      41.269 -16.549   2.600  1.00  0.00     0.170 HD
ENDROOT
BRANCH   1   7
HETATM    7  C   UNL     1      40.387 -14.782   0.969  1.00  0.00     0.115 C 
HETATM    8  C   UNL     1      39.860 -14.670  -0.464  1.00  0.00     0.037 C 
BRANCH   7   9
HETATM    9  C   UNL     1      39.964 -13.663   1.908  1.00  0.00    -0.033 A 
HETATM   10  C   UNL     1      40.026 -13.879   3.298  1.00  0.00     0.046 A 
HETATM   11  C   UNL     1      39.705 -12.877   4.217  1.00  0.00     0.069 A 
HETATM   12  C   UNL     1      39.272 -11.638   3.754  1.00  0.00     0.037 A 
HETATM   13  C   UNL     1      39.196 -11.401   2.382  1.00  0.00     0.003 A 
HETATM   14  C   UNL     1      39.548 -12.399   1.467  1.00  0.00     0.009 A 
BRANCH  11  15
HETATM   15  O   UNL     1      39.838 -13.239   5.528  1.00  0.00    -0.352 OA
BRANCH  15  16
HETATM   16  C   UNL     1      40.893 -14.152   5.824  1.00  0.00     0.171 C 
HETATM   17  C   UNL     1      40.277 -15.369   6.490  1.00  0.00     0.034 C 
ENDBRANCH  15  16
ENDBRANCH  11  15
ENDBRANCH   7   9
ENDBRANCH   1   7
BRANCH   3  18
HETATM   18  C   UNL     1      42.891 -17.763   2.907  1.00  0.00     0.059 A 
HETATM   19  C   UNL     1      43.505 -17.647   4.161  1.00  0.00    -0.032 A 
HETATM   20  C   UNL     1      43.591 -16.377   4.960  1.00  0.00     0.050 C 
HETATM   21  C   UNL     1      44.115 -18.789   4.711  1.00  0.00     0.028 A 
HETATM   22  C   UNL     1      44.155 -19.965   3.979  1.00  0.00     0.117 A 
HETATM   23  N   UNL     1      43.642 -20.088   2.743  1.00  0.00    -0.271 NA
HETATM   24  C   UNL     1      43.029 -18.990   2.243  1.00  0.00     0.146 A 
ENDBRANCH   3  18
TORSDOF 5
ENDMDL
MODEL 4
REMARK VINA RESULT:      -7.1      4.228      6.396
REMARK  5 active torsions:
REMARK  status: ('A' for Active; 'I' for Inactive)
REMARK    1  A    between atoms: C_2  and  O_3 
REMARK    2  A    between atoms: O_3  and  C_4 
REMARK    3  A    between atoms: C_6  and  C_7 
REMARK    4  A    between atoms: C_7  and  N_8 
REMARK       I    between atoms: N_8  and  C_9 
REMARK       I    between atoms: C_9  and  N_10 
REMARK    5  A    between atoms: N_10  and  C_11 
ROOT
HETATM    1  N   UNL     1      41.750 -14.008   4.203  1.00  0.00    -0.335 N 
HETATM    2  C   UNL     1      41.486 -13.509   2.963  1.00  0.00     0.321 C 
HETATM    3  N   UNL     1      40.334 -13.944   2.371  1.00  0.00    -0.307 N 
HETATM    4  O   UNL     1      42.303 -12.732   2.480  1.00  0.00    -0.247 OA
HETATM    5  H   UNL     1      42.661 -13.710   4.529  1.00  0.00     0.165 HD
HETATM    6  H   UNL     1      40.054 -14.865   2.661  1.00  0.00     0.170 HD
ENDROOT
BRANCH   1   7
HETATM    7  C   UNL     1      41.071 -15.018   5.006  1.00  0.00     0.115 C 
HETATM    8  C   UNL     1      40.482 -14.347   6.251  1.00  0.00     0.037 C 
BRANCH   7   9
HETATM    9  C   UNL     1      42.028 -16.170   5.278  1.00  0.00    -0.033 A 
HETATM   10  C   UNL     1      42.630 -16.826   4.188  1.00  0.00     0.046 A 
HETATM   11  C   UNL     1      43.559 -17.854   4.368  1.00  0.00     0.069 A 
HETATM   12  C   UNL     1      43.875 -18.274   5.655  1.00  0.00     0.037 A 
HETATM   13  C   UNL     1      43.287 -17.643   6.751  1.00  0.00     0.003 A 
HETATM   14  C   UNL     1      42.380 -16.595   6.567  1.00  0.00     0.009 A 
BRANCH  11  15
HETATM   15  O   UNL     1      44.069 -18.372   3.210  1.00  0.00    -0.352 OA
BRANCH  15  16
HETATM   16  C   UNL     1      43.116 -18.830   2.252  1.00  0.00     0.171 C 
HETATM   17  C   UNL     1      43.424 -20.287   1.955  1.00  0.00     0.034 C 
ENDBRANCH  15  16
ENDBRANCH  11  15
ENDBRANCH   7   9
ENDBRANCH   1   7
BRANCH   3  18
HETATM   18  C   UNL     1      39.846 -13.555   1.099  1.00  0.00     0.059 A 
HETATM   19  C   UNL     1      39.155 -12.374   0.798  1.00  0.00    -0.032 A 
HETATM   20  C   UNL     1      38.726 -11.349   1.811  1.00  0.00     0.050 C 
HETATM   21  C   UNL     1      38.803 -12.132  -0.542  1.00  0.00     0.028 A 
HETATM   22  C   UNL     1      39.083 -13.085  -1.508  1.00  0.00     0.117 A 
HETATM   23  N   UNL     1      39.678 -14.260  -1.241  1.00  0.00    -0.271 NA
HETATM   24  C   UNL     1      40.040 -14.462   0.048  1.00  0.00     0.146 A 
ENDBRANCH   3  18
TORSDOF 5
ENDMDL
MODEL 5
REMARK VINA RESULT:      -7.0      2.372      3.241
REMARK  5 active torsions:
REMARK  status: ('A' for Active; 'I' for Inactive)
REMARK    1  A    between atoms: C_2  and  O_3 
REMARK    2  A    between atoms: O_3  and  C_4 
REMARK    3  A    between atoms: C_6  and  C_7 
REMARK    4  A    between atoms: C_7  and  N_8 
REMARK       I    between atoms: N_8  and  C_9 
REMARK       I    between atoms: C_9  and  N_10 
REMARK    5  A    between atoms: N_10  and  C_11 
ROOT
HETATM    1  N   UNL     1      40.232 -14.673   4.822  1.00  0.00    -0.335 N 
HETATM    2  C   UNL     1      40.385 -13.558   5.588  1.00  0.00     0.321 C 
HETATM    3  N   UNL     1      41.428 -12.739   5.261  1.00  0.00    -0.307 N 
HETATM    4  O   UNL     1      39.590 -13.390   6.508  1.00  0.00    -0.247 OA
HETATM    5  H   UNL     1      39.498 -15.268   5.187  1.00  0.00     0.165 HD
HETATM    6  H   UNL     1      42.202 -13.222   4.837  1.00  0.00     0.170 HD
ENDROOT
BRANCH   1   7
HETATM    7  C   UNL     1      41.046 -15.230   3.747  1.00  0.00     0.115 C 
HETATM    8  C   UNL     1      40.121 -15.784   2.660  1.00  0.00     0.037 C 
BRANCH   7   9
HETATM    9  C   UNL     1      42.034 -16.229   4.333  1.00  0.00    -0.033 A 
HETATM   10  C   UNL     1      42.699 -17.117   3.467  1.00  0.00     0.046 A 
HETATM   11  C   UNL     1      43.657 -18.022   3.930  1.00  0.00     0.069 A 
HETATM   12  C   UNL     1      43.941 -18.081   5.291  1.00  0.00     0.037 A 
HETATM   13  C   UNL     1      43.291 -17.215   6.170  1.00  0.00     0.003 A 
HETATM   14  C   UNL     1      42.354 -16.291   5.696  1.00  0.00     0.009 A 
BRANCH  11  15
HETATM   15  O   UNL     1      44.227 -18.798   2.960  1.00  0.00    -0.352 OA
BRANCH  15  16
HETATM   16  C   UNL     1      43.836 -20.170   2.942  1.00  0.00     0.171 C 
HETATM   17  C   UNL     1      43.496 -20.534   1.507  1.00  0.00     0.034 C 
ENDBRANCH  15  16
ENDBRANCH  11  15
ENDBRANCH   7   9
ENDBRANCH   1   7
BRANCH   3  18
HETATM   18  C   UNL     1      41.774 -11.523   5.901  1.00  0.00     0.059 A 
HETATM   19  C   UNL     1      42.902 -11.295   6.701  1.00  0.00    -0.032 A 
HETATM   20  C   UNL     1      43.900 -12.346   7.095  1.00  0.00     0.050 C 
HETATM   21  C   UNL     1      43.109  -9.997   7.201  1.00  0.00     0.028 A 
HETATM   22  C   UNL     1      42.171  -9.007   6.954  1.00  0.00     0.117 A 
HETATM   23  N   UNL     1      41.042  -9.213   6.254  1.00  0.00    -0.271 NA
HETATM   24  C   UNL     1      40.875 -10.458   5.751  1.00  0.00     0.146 A 
ENDBRANCH   3  18
TORSDOF 5
ENDMDL
MODEL 6
REMARK VINA RESULT:      -6.9      5.081      7.832
REMARK  5 active torsions:
REMARK  status: ('A' for Active; 'I' for Inactive)
REMARK    1  A    between atoms: C_2  and  O_3 
REMARK    2  A    between atoms: O_3  and  C_4 
REMARK    3  A    between atoms: C_6  and  C_7 
REMARK    4  A    between atoms: C_7  and  N_8 
REMARK       I    between atoms: N_8  and  C_9 
REMARK       I    between atoms: C_9  and  N_10 
REMARK    5  A    between atoms: N_10  and  C_11 
ROOT
HETATM    1  N   UNL     1      41.060 -13.323   1.698  1.00  0.00    -0.335 N 
HETATM    2  C   UNL     1      40.527 -12.879   0.527  1.00  0.00     0.321 C 
HETATM    3  N   UNL     1      39.188 -13.089   0.355  1.00  0.00    -0.307 N 
HETATM    4  O   UNL     1      41.288 -12.347  -0.276  1.00  0.00    -0.247 OA
HETATM    5  H   UNL     1      42.067 -13.213   1.705  1.00  0.00     0.165 HD
HETATM    6  H   UNL     1      38.840 -13.897   0.843  1.00  0.00     0.170 HD
ENDROOT
BRANCH   1   7
HETATM    7  C   UNL     1      40.482 -14.086   2.799  1.00  0.00     0.115 C 
HETATM    8  C   UNL     1      39.905 -13.110   3.828  1.00  0.00     0.037 C 
BRANCH   7   9
HETATM    9  C   UNL     1      41.522 -15.059   3.335  1.00  0.00    -0.033 A 
HETATM   10  C   UNL     1      41.743 -16.267   2.648  1.00  0.00     0.046 A 
HETATM   11  C   UNL     1      42.720 -17.180   3.054  1.00  0.00     0.069 A 
HETATM   12  C   UNL     1      43.474 -16.914   4.192  1.00  0.00     0.037 A 
HETATM   13  C   UNL     1      43.270 -15.726   4.893  1.00  0.00     0.003 A 
HETATM   14  C   UNL     1      42.311 -14.802   4.465  1.00  0.00     0.009 A 
BRANCH  11  15
HETATM   15  O   UNL     1      42.824 -18.293   2.267  1.00  0.00    -0.352 OA
BRANCH  15  16
HETATM   16  C   UNL     1      43.819 -19.242   2.648  1.00  0.00     0.171 C 
HETATM   17  C   UNL     1      43.608 -20.492   1.813  1.00  0.00     0.034 C 
ENDBRANCH  15  16
ENDBRANCH  11  15
ENDBRANCH   7   9
ENDBRANCH   1   7
BRANCH   3  18
HETATM   18  C   UNL     1      38.415 -12.704  -0.768  1.00  0.00     0.059 A 
HETATM   19  C   UNL     1      38.235 -13.440  -1.947  1.00  0.00    -0.032 A 
HETATM   20  C   UNL     1      38.919 -14.741  -2.258  1.00  0.00     0.050 C 
HETATM   21  C   UNL     1      37.376 -12.918  -2.931  1.00  0.00     0.028 A 
HETATM   22  C   UNL     1      36.792 -11.676  -2.746  1.00  0.00     0.117 A 
HETATM   23  N   UNL     1      37.004 -10.911  -1.660  1.00  0.00    -0.271 NA
HETATM   24  C   UNL     1      37.805 -11.443  -0.708  1.00  0.00     0.146 A 
ENDBRANCH   3  18
TORSDOF 5
ENDMDL
MODEL 7
REMARK VINA RESULT:      -6.9      2.682      7.122
REMARK  5 active torsions:
REMARK  status: ('A' for Active; 'I' for Inactive)
REMARK    1  A    between atoms: C_2  and  O_3 
REMARK    2  A    between atoms: O_3  and  C_4 
REMARK    3  A    between atoms: C_6  and  C_7 
REMARK    4  A    between atoms: C_7  and  N_8 
REMARK       I    between atoms: N_8  and  C_9 
REMARK       I    between atoms: C_9  and  N_10 
REMARK    5  A    between atoms: N_10  and  C_11 
ROOT
HETATM    1  N   UNL     1      42.630 -14.482   6.203  1.00  0.00    -0.335 N 
HETATM    2  C   UNL     1      42.524 -15.777   5.795  1.00  0.00     0.321 C 
HETATM    3  N   UNL     1      43.527 -16.240   4.992  1.00  0.00    -0.307 N 
HETATM    4  O   UNL     1      41.539 -16.408   6.166  1.00  0.00    -0.247 OA
HETATM    5  H   UNL     1      41.805 -14.192   6.714  1.00  0.00     0.165 HD
HETATM    6  H   UNL     1      43.960 -15.525   4.434  1.00  0.00     0.170 HD
ENDROOT
BRANCH   1   7
HETATM    7  C   UNL     1      43.585 -13.433   5.862  1.00  0.00     0.115 C 
HETATM    8  C   UNL     1      43.880 -12.605   7.116  1.00  0.00     0.037 C 
BRANCH   7   9
HETATM    9  C   UNL     1      43.062 -12.646   4.670  1.00  0.00    -0.033 A 
HETATM   10  C   UNL     1      42.792 -13.328   3.469  1.00  0.00     0.046 A 
HETATM   11  C   UNL     1      42.259 -12.677   2.353  1.00  0.00     0.069 A 
HETATM   12  C   UNL     1      42.021 -11.308   2.409  1.00  0.00     0.037 A 
HETATM   13  C   UNL     1      42.286 -10.608   3.587  1.00  0.00     0.003 A 
HETATM   14  C   UNL     1      42.791 -11.271   4.710  1.00  0.00     0.009 A 
BRANCH  11  15
HETATM   15  O   UNL     1      42.034 -13.484   1.274  1.00  0.00    -0.352 OA
BRANCH  15  16
HETATM   16  C   UNL     1      40.912 -13.148   0.459  1.00  0.00     0.171 C 
HETATM   17  C   UNL     1      40.203 -14.439   0.093  1.00  0.00     0.034 C 
ENDBRANCH  15  16
ENDBRANCH  11  15
ENDBRANCH   7   9
ENDBRANCH   1   7
BRANCH   3  18
HETATM   18  C   UNL     1      43.639 -17.549   4.460  1.00  0.00     0.059 A 
HETATM   19  C   UNL     1      43.458 -17.922   3.122  1.00  0.00    -0.032 A 
HETATM   20  C   UNL     1      43.015 -16.994   2.026  1.00  0.00     0.050 C 
HETATM   21  C   UNL     1      43.675 -19.267   2.772  1.00  0.00     0.028 A 
HETATM   22  C   UNL     1      43.989 -20.191   3.755  1.00  0.00     0.117 A 
HETATM   23  N   UNL     1      44.097 -19.880   5.059  1.00  0.00    -0.271 NA
HETATM   24  C   UNL     1      43.919 -18.575   5.373  1.00  0.00     0.146 A 
ENDBRANCH   3  18
TORSDOF 5
ENDMDL
MODEL 8
REMARK VINA RESULT:      -6.9      3.587      7.118
REMARK  5 active torsions:
REMARK  status: ('A' for Active; 'I' for Inactive)
REMARK    1  A    between atoms: C_2  and  O_3 
REMARK    2  A    between atoms: O_3  and  C_4 
REMARK    3  A    between atoms: C_6  and  C_7 
REMARK    4  A    between atoms: C_7  and  N_8 
REMARK       I    between atoms: N_8  and  C_9 
REMARK       I    between atoms: C_9  and  N_10 
REMARK    5  A    between atoms: N_10  and  C_11 
ROOT
HETATM    1  N   UNL     1      41.376 -16.713   2.520  1.00  0.00    -0.335 N 
HETATM    2  C   UNL     1      40.671 -15.751   1.862  1.00  0.00     0.321 C 
HETATM    3  N   UNL     1      41.397 -14.908   1.069  1.00  0.00    -0.307 N 
HETATM    4  O   UNL     1      39.459 -15.714   2.045  1.00  0.00    -0.247 OA
HETATM    5  H   UNL     1      40.781 -17.232   3.153  1.00  0.00     0.165 HD
HETATM    6  H   UNL     1      42.343 -14.774   1.382  1.00  0.00     0.170 HD
ENDROOT
BRANCH   1   7
HETATM    7  C   UNL     1      42.810 -16.965   2.622  1.00  0.00     0.115 C 
HETATM    8  C   UNL     1      43.081 -18.429   2.261  1.00  0.00     0.037 C 
BRANCH   7   9
HETATM    9  C   UNL     1      43.299 -16.531   3.996  1.00  0.00    -0.033 A 
HETATM   10  C   UNL     1      43.064 -15.208   4.416  1.00  0.00     0.046 A 
HETATM   11  C   UNL     1      43.439 -14.759   5.685  1.00  0.00     0.069 A 
HETATM   12  C   UNL     1      44.098 -15.626   6.551  1.00  0.00     0.037 A 
HETATM   13  C   UNL     1      44.347 -16.940   6.155  1.00  0.00     0.003 A 
HETATM   14  C   UNL     1      43.943 -17.393   4.895  1.00  0.00     0.009 A 
BRANCH  11  15
HETATM   15  O   UNL     1      43.120 -13.456   5.947  1.00  0.00    -0.352 OA
BRANCH  15  16
HETATM   16  C   UNL     1      43.828 -12.838   7.020  1.00  0.00     0.171 C 
HETATM   17  C   UNL     1      44.704 -11.748   6.429  1.00  0.00     0.034 C 
ENDBRANCH  15  16
ENDBRANCH  11  15
ENDBRANCH   7   9
ENDBRANCH   1   7
BRANCH   3  18
HETATM   18  C   UNL     1      40.883 -13.848   0.281  1.00  0.00     0.059 A 
HETATM   19  C   UNL     1      41.001 -12.478   0.551  1.00  0.00    -0.032 A 
HETATM   20  C   UNL     1      41.620 -11.898   1.791  1.00  0.00     0.050 C 
HETATM   21  C   UNL     1      40.476 -11.569  -0.386  1.00  0.00     0.028 A 
HETATM   22  C   UNL     1      39.806 -12.042  -1.502  1.00  0.00     0.117 A 
HETATM   23  N   UNL     1      39.611 -13.349  -1.751  1.00  0.00    -0.271 NA
HETATM   24  C   UNL     1      40.151 -14.210  -0.857  1.00  0.00     0.146 A 
ENDBRANCH   3  18
TORSDOF 5
ENDMDL
MODEL 9
REMARK VINA RESULT:      -6.8      4.819      7.737
REMARK  5 active torsions:
REMARK  status: ('A' for Active; 'I' for Inactive)
REMARK    1  A    between atoms: C_2  and  O_3 
REMARK    2  A    between atoms: O_3  and  C_4 
REMARK    3  A    between atoms: C_6  and  C_7 
REMARK    4  A    between atoms: C_7  and  N_8 
REMARK       I    between atoms: N_8  and  C_9 
REMARK       I    between atoms: C_9  and  N_10 
REMARK    5  A    between atoms: N_10  and  C_11 
ROOT
HETATM    1  N   UNL     1      41.121 -13.554   2.056  1.00  0.00    -0.335 N 
HETATM    2  C   UNL     1      40.706 -13.305   0.783  1.00  0.00     0.321 C 
HETATM    3  N   UNL     1      39.632 -14.027   0.346  1.00  0.00    -0.307 N 
HETATM    4  O   UNL     1      41.334 -12.472   0.137  1.00  0.00    -0.247 OA
HETATM    5  H   UNL     1      41.973 -13.049   2.267  1.00  0.00     0.165 HD
HETATM    6  H   UNL     1      39.549 -14.930   0.781  1.00  0.00     0.170 HD
ENDROOT
BRANCH   1   7
HETATM    7  C   UNL     1      40.688 -14.540   3.041  1.00  0.00     0.115 C 
HETATM    8  C   UNL     1      40.407 -13.825   4.366  1.00  0.00     0.037 C 
BRANCH   7   9
HETATM    9  C   UNL     1      41.713 -15.662   3.111  1.00  0.00    -0.033 A 
HETATM   10  C   UNL     1      42.008 -16.239   4.361  1.00  0.00     0.046 A 
HETATM   11  C   UNL     1      42.898 -17.309   4.489  1.00  0.00     0.069 A 
HETATM   12  C   UNL     1      43.545 -17.800   3.360  1.00  0.00     0.037 A 
HETATM   13  C   UNL     1      43.274 -17.241   2.111  1.00  0.00     0.003 A 
HETATM   14  C   UNL     1      42.360 -16.190   1.985  1.00  0.00     0.009 A 
BRANCH  11  15
HETATM   15  O   UNL     1      43.058 -17.769   5.766  1.00  0.00    -0.352 OA
BRANCH  15  16
HETATM   16  C   UNL     1      43.308 -16.781   6.765  1.00  0.00     0.171 C 
HETATM   17  C   UNL     1      44.751 -16.331   6.618  1.00  0.00     0.034 C 
ENDBRANCH  15  16
ENDBRANCH  11  15
ENDBRANCH   7   9
ENDBRANCH   1   7
BRANCH   3  18
HETATM   18  C   UNL     1      39.017 -13.929  -0.927  1.00  0.00     0.059 A 
HETATM   19  C   UNL     1      38.217 -12.874  -1.386  1.00  0.00    -0.032 A 
HETATM   20  C   UNL     1      37.795 -11.694  -0.557  1.00  0.00     0.050 C 
HETATM   21  C   UNL     1      37.744 -12.926  -2.710  1.00  0.00     0.028 A 
HETATM   22  C   UNL     1      38.017 -14.035  -3.494  1.00  0.00     0.117 A 
HETATM   23  N   UNL     1      38.718 -15.097  -3.059  1.00  0.00    -0.271 NA
HETATM   24  C   UNL     1      39.194 -15.015  -1.794  1.00  0.00     0.146 A 
ENDBRANCH   3  18
TORSDOF 5
ENDMDL
MODEL 10
REMARK VINA RESULT:      -6.8      4.592      8.367
REMARK  5 active torsions:
REMARK  status: ('A' for Active; 'I' for Inactive)
REMARK    1  A    between atoms: C_2  and  O_3 
REMARK    2  A    between atoms: O_3  and  C_4 
REMARK    3  A    between atoms: C_6  and  C_7 
REMARK    4  A    between atoms: C_7  and  N_8 
REMARK       I    between atoms: N_8  and  C_9 
REMARK       I    between atoms: C_9  and  N_10 
REMARK    5  A    between atoms: N_10  and  C_11 
ROOT
HETATM    1  N   UNL     1      41.312 -14.603   2.871  1.00  0.00    -0.335 N 
HETATM    2  C   UNL     1      41.585 -15.856   3.329  1.00  0.00     0.321 C 
HETATM    3  N   UNL     1      42.705 -16.453   2.823  1.00  0.00    -0.307 N 
HETATM    4  O   UNL     1      40.802 -16.346   4.137  1.00  0.00    -0.247 OA
HETATM    5  H   UNL     1      40.422 -14.272   3.223  1.00  0.00     0.165 HD
HETATM    6  H   UNL     1      42.941 -16.147   1.895  1.00  0.00     0.170 HD
ENDROOT
BRANCH   1   7
HETATM    7  C   UNL     1      41.950 -13.786   1.844  1.00  0.00     0.115 C 
HETATM    8  C   UNL     1      42.399 -12.463   2.471  1.00  0.00     0.037 C 
BRANCH   7   9
HETATM    9  C   UNL     1      41.012 -13.657   0.652  1.00  0.00    -0.033 A 
HETATM   10  C   UNL     1      40.868 -12.402   0.032  1.00  0.00     0.046 A 
HETATM   11  C   UNL     1      40.066 -12.225  -1.099  1.00  0.00     0.069 A 
HETATM   12  C   UNL     1      39.357 -13.307  -1.611  1.00  0.00     0.037 A 
HETATM   13  C   UNL     1      39.480 -14.560  -1.010  1.00  0.00     0.003 A 
HETATM   14  C   UNL     1      40.306 -14.737   0.104  1.00  0.00     0.009 A 
BRANCH  11  15
HETATM   15  O   UNL     1      40.050 -10.952  -1.595  1.00  0.00    -0.352 OA
BRANCH  15  16
HETATM   16  C   UNL     1      40.092 -10.828  -3.015  1.00  0.00     0.171 C 
HETATM   17  C   UNL     1      40.911  -9.594  -3.347  1.00  0.00     0.034 C 
ENDBRANCH  15  16
ENDBRANCH  11  15
ENDBRANCH   7   9
ENDBRANCH   1   7
BRANCH   3  18
HETATM   18  C   UNL     1      43.195 -17.739   3.159  1.00  0.00     0.059 A 
HETATM   19  C   UNL     1      43.906 -18.082   4.317  1.00  0.00    -0.032 A 
HETATM   20  C   UNL     1      44.358 -17.107   5.367  1.00  0.00     0.050 C 
HETATM   21  C   UNL     1      44.257 -19.432   4.506  1.00  0.00     0.028 A 
HETATM   22  C   UNL     1      43.956 -20.364   3.526  1.00  0.00     0.117 A 
HETATM   23  N   UNL     1      43.340 -20.054   2.371  1.00  0.00    -0.271 NA
HETATM   24  C   UNL     1      42.980 -18.758   2.220  1.00  0.00     0.146 A 
ENDBRANCH   3  18
TORSDOF 5
ENDMDL
