MODEL 1
REMARK VINA RESULT:      -9.2      0.000      0.000
REMARK  9 active torsions:
REMARK  status: ('A' for Active; 'I' for Inactive)
REMARK    1  A    between atoms: C_2  and  O_3 
REMARK    2  A    between atoms: O_3  and  C_4 
REMARK    3  A    between atoms: C_4  and  C_5 
REMARK    4  A    between atoms: C_8  and  N_9 
REMARK       I    between atoms: N_9  and  C_10 
REMARK    5  A    between atoms: C_10  and  C_11 
REMARK    6  A    between atoms: C_11  and  C_12 
REMARK    7  A    between atoms: N_13  and  C_14 
REMARK    8  A    between atoms: C_14  and  C_15 
REMARK    9  A    between atoms: N_23  and  C_24 
ROOT
HETATM    1  C   UNL     1      41.558 -13.285   1.306  1.00  0.00     0.191 C 
HETATM    2  N   UNL     1      40.735 -14.306   0.685  1.00  0.00    -0.315 N 
HETATM    3  C   UNL     1      40.868 -15.518   1.365  1.00  0.00     0.333 C 
HETATM    4  O   UNL     1      40.040 -16.411   1.274  1.00  0.00    -0.246 OA
HETATM    5  N   UNL     1      42.047 -15.476   2.085  1.00  0.00    -0.232 N 
HETATM    6  C   UNL     1      42.582 -14.207   1.972  1.00  0.00     0.256 C 
HETATM    7  O   UNL     1      43.664 -13.786   2.363  1.00  0.00    -0.270 OA
ENDROOT
BRANCH   1   8
HETATM    8  C   UNL     1      40.772 -12.508   2.360  1.00  0.00     0.138 C 
BRANCH   8   9
HETATM    9  C   UNL     1      41.660 -11.618   3.202  1.00  0.00     0.224 C 
HETATM   10  N   UNL     1      41.779 -12.040   4.516  1.00  0.00    -0.327 N 
HETATM   11  H   UNL     1      41.205 -12.817   4.815  1.00  0.00     0.169 HD
HETATM   12  O   UNL     1      42.218 -10.650   2.699  1.00  0.00    -0.273 OA
BRANCH  10  13
HETATM   13  C   UNL     1      42.681 -11.548   5.489  1.00  0.00     0.034 A 
HETATM   14  C   UNL     1      42.377 -10.531   6.395  1.00  0.00     0.030 A 
HETATM   15  C   UNL     1      43.341 -10.063   7.300  1.00  0.00     0.020 A 
HETATM   16  C   UNL     1      44.627 -10.612   7.312  1.00  0.00     0.039 A 
HETATM   17  C   UNL     1      44.933 -11.639   6.412  1.00  0.00     0.020 A 
HETATM   18  C   UNL     1      43.969 -12.101   5.507  1.00  0.00     0.030 A 
BRANCH  16  19
HETATM   19  C   UNL     1      45.688 -10.154   8.251  1.00  0.00     0.293 C 
HETATM   20  O   UNL     1      46.512  -9.301   7.963  1.00  0.00    -0.259 OA
BRANCH  19  21
HETATM   21  O   UNL     1      45.586 -10.800   9.439  1.00  0.00    -0.318 OA
BRANCH  21  22
HETATM   22  C   UNL     1      45.132 -10.006  10.545  1.00  0.00     0.174 C 
HETATM   23  C   UNL     1      43.768 -10.473  11.019  1.00  0.00     0.034 C 
ENDBRANCH  21  22
ENDBRANCH  19  21
ENDBRANCH  16  19
ENDBRANCH  10  13
ENDBRANCH   8   9
ENDBRANCH   1   8
BRANCH   2  24
HETATM   24  C   UNL     1      39.582 -13.985  -0.143  1.00  0.00     0.168 C 
BRANCH  24  25
HETATM   25  C   UNL     1      39.818 -12.949  -1.212  1.00  0.00    -0.023 A 
HETATM   26  C   UNL     1      40.529 -13.308  -2.356  1.00  0.00     0.125 A 
HETATM   27  N   UNL     1      40.802 -12.473  -3.386  1.00  0.00    -0.273 NA
HETATM   28  C   UNL     1      40.356 -11.205  -3.271  1.00  0.00     0.116 A 
HETATM   29  C   UNL     1      39.626 -10.746  -2.190  1.00  0.00     0.020 A 
HETATM   30  C   UNL     1      39.340 -11.636  -1.156  1.00  0.00     0.012 A 
ENDBRANCH  24  25
ENDBRANCH   2  24
BRANCH   5  31
HETATM   31  C   UNL     1      42.643 -16.586   2.764  1.00  0.00     0.047 A 
HETATM   32  C   UNL     1      42.889 -17.809   2.112  1.00  0.00     0.037 A 
HETATM   33  C   UNL     1      43.501 -18.899   2.760  1.00  0.00    -0.060 A 
HETATM   34  C   UNL     1      43.714 -20.196   2.035  1.00  0.00     0.048 C 
HETATM   35  C   UNL     1      43.865 -18.779   4.099  1.00  0.00     0.007 A 
HETATM   36  C   UNL     1      43.629 -17.586   4.773  1.00  0.00     0.003 A 
HETATM   37  C   UNL     1      43.025 -16.508   4.115  1.00  0.00     0.030 A 
ENDBRANCH   5  31
TORSDOF 9
ENDMDL
MODEL 2
REMARK VINA RESULT:      -9.0      2.383      8.950
REMARK  9 active torsions:
REMARK  status: ('A' for Active; 'I' for Inactive)
REMARK    1  A    between atoms: C_2  and  O_3 
REMARK    2  A    between atoms: O_3  and  C_4 
REMARK    3  A    between atoms: C_4  and  C_5 
REMARK    4  A    between atoms: C_8  and  N_9 
REMARK       I    between atoms: N_9  and  C_10 
REMARK    5  A    between atoms: C_10  and  C_11 
REMARK    6  A    between atoms: C_11  and  C_12 
REMARK    7  A    between atoms: N_13  and  C_14 
REMARK    8  A    between atoms: C_14  and  C_15 
REMARK    9  A    between atoms: N_23  and  C_24 
ROOT
HETATM    1  C   UNL     1      42.558 -13.701   4.742  1.00  0.00     0.191 C 
HETATM    2  N   UNL     1      43.029 -14.622   5.759  1.00  0.00    -0.315 N 
HETATM    3  C   UNL     1      43.505 -13.921   6.869  1.00  0.00     0.333 C 
HETATM    4  O   UNL     1      43.619 -14.438   7.969  1.00  0.00    -0.246 OA
HETATM    5  N   UNL     1      43.797 -12.631   6.465  1.00  0.00    -0.232 N 
HETATM    6  C   UNL     1      43.384 -12.480   5.155  1.00  0.00     0.256 C 
HETATM    7  O   UNL     1      43.555 -11.536   4.393  1.00  0.00    -0.270 OA
ENDROOT
BRANCH   1   8
HETATM    8  C   UNL     1      41.066 -13.417   4.905  1.00  0.00     0.138 C 
BRANCH   8   9
HETATM    9  C   UNL     1      40.413 -13.005   3.603  1.00  0.00     0.224 C 
HETATM   10  N   UNL     1      41.140 -13.366   2.481  1.00  0.00    -0.327 N 
HETATM   11  H   UNL     1      42.058 -13.767   2.624  1.00  0.00     0.169 HD
HETATM   12  O   UNL     1      39.327 -12.439   3.610  1.00  0.00    -0.273 OA
BRANCH  10  13
HETATM   13  C   UNL     1      40.712 -13.305   1.134  1.00  0.00     0.034 A 
HETATM   14  C   UNL     1      40.784 -12.159   0.341  1.00  0.00     0.030 A 
HETATM   15  C   UNL     1      40.294 -12.162  -0.974  1.00  0.00     0.020 A 
HETATM   16  C   UNL     1      39.728 -13.321  -1.515  1.00  0.00     0.039 A 
HETATM   17  C   UNL     1      39.664 -14.476  -0.727  1.00  0.00     0.020 A 
HETATM   18  C   UNL     1      40.149 -14.466   0.587  1.00  0.00     0.030 A 
BRANCH  16  19
HETATM   19  C   UNL     1      39.194 -13.381  -2.903  1.00  0.00     0.293 C 
HETATM   20  O   UNL     1      39.366 -14.335  -3.645  1.00  0.00    -0.259 OA
BRANCH  19  21
HETATM   21  O   UNL     1      38.498 -12.255  -3.197  1.00  0.00    -0.318 OA
BRANCH  21  22
HETATM   22  C   UNL     1      37.183 -12.167  -2.629  1.00  0.00     0.174 C 
HETATM   23  C   UNL     1      36.904 -10.758  -2.138  1.00  0.00     0.034 C 
ENDBRANCH  21  22
ENDBRANCH  19  21
ENDBRANCH  16  19
ENDBRANCH  10  13
ENDBRANCH   8   9
ENDBRANCH   1   8
BRANCH   2  24
HETATM   24  C   UNL     1      42.585 -16.005   5.829  1.00  0.00     0.168 C 
BRANCH  24  25
HETATM   25  C   UNL     1      43.027 -16.889   4.690  1.00  0.00    -0.023 A 
HETATM   26  C   UNL     1      44.017 -17.843   4.919  1.00  0.00     0.125 A 
HETATM   27  N   UNL     1      44.495 -18.696   3.984  1.00  0.00    -0.273 NA
HETATM   28  C   UNL     1      43.972 -18.590   2.745  1.00  0.00     0.116 A 
HETATM   29  C   UNL     1      42.974 -17.692   2.410  1.00  0.00     0.020 A 
HETATM   30  C   UNL     1      42.485 -16.843   3.401  1.00  0.00     0.012 A 
ENDBRANCH  24  25
ENDBRANCH   2  24
BRANCH   5  31
HETATM   31  C   UNL     1      44.481 -11.651   7.253  1.00  0.00     0.047 A 
HETATM   32  C   UNL     1      43.883 -11.058   8.381  1.00  0.00     0.037 A 
HETATM   33  C   UNL     1      44.555 -10.115   9.182  1.00  0.00    -0.060 A 
HETATM   34  C   UNL     1      43.867  -9.485  10.358  1.00  0.00     0.048 C 
HETATM   35  C   UNL     1      45.852  -9.735   8.844  1.00  0.00     0.007 A 
HETATM   36  C   UNL     1      46.467 -10.298   7.732  1.00  0.00     0.003 A 
HETATM   37  C   UNL     1      45.789 -11.239   6.948  1.00  0.00     0.030 A 
ENDBRANCH   5  31
TORSDOF 9
ENDMDL
MODEL 3
REMARK VINA RESULT:      -8.4      2.393      8.820
REMARK  9 active torsions:
REMARK  status: ('A' for Active; 'I' for Inactive)
REMARK    1  A    between atoms: C_2  and  O_3 
REMARK    2  A    between atoms: O_3  and  C_4 
REMARK    3  A    between atoms: C_4  and  C_5 
REMARK    4  A    between atoms: C_8  and  N_9 
REMARK       I    between atoms: N_9  and  C_10 
REMARK    5  A    between atoms: C_10  and  C_11 
REMARK    6  A    between atoms: C_11  and  C_12 
REMARK    7  A    between atoms: N_13  and  C_14 
REMARK    8  A    between atoms: C_14  and  C_15 
REMARK    9  A    between atoms: N_23  and  C_24 
ROOT
HETATM    1  C   UNL     1      41.236 -11.300   6.005  1.00  0.00     0.191 C 
HETATM    2  N   UNL     1      42.581 -11.251   6.548  1.00  0.00    -0.315 N 
HETATM    3  C   UNL     1      43.355 -12.289   6.027  1.00  0.00     0.333 C 
HETATM    4  O   UNL     1      44.576 -12.264   6.040  1.00  0.00    -0.246 OA
HETATM    5  N   UNL     1      42.496 -13.263   5.551  1.00  0.00    -0.232 N 
HETATM    6  C   UNL     1      41.202 -12.787   5.643  1.00  0.00     0.256 C 
HETATM    7  O   UNL     1      40.146 -13.371   5.433  1.00  0.00    -0.270 OA
ENDROOT
BRANCH   1   8
HETATM    8  C   UNL     1      41.118 -10.441   4.748  1.00  0.00     0.138 C 
BRANCH   8   9
HETATM    9  C   UNL     1      41.435 -11.217   3.488  1.00  0.00     0.224 C 
HETATM   10  N   UNL     1      40.328 -11.826   2.921  1.00  0.00    -0.327 N 
HETATM   11  H   UNL     1      39.455 -11.787   3.432  1.00  0.00     0.169 HD
HETATM   12  O   UNL     1      42.577 -11.236   3.047  1.00  0.00    -0.273 OA
BRANCH  10  13
HETATM   13  C   UNL     1      40.255 -12.446   1.652  1.00  0.00     0.034 A 
HETATM   14  C   UNL     1      40.559 -13.788   1.418  1.00  0.00     0.030 A 
HETATM   15  C   UNL     1      40.510 -14.321   0.121  1.00  0.00     0.020 A 
HETATM   16  C   UNL     1      40.151 -13.513  -0.963  1.00  0.00     0.039 A 
HETATM   17  C   UNL     1      39.835 -12.170  -0.731  1.00  0.00     0.020 A 
HETATM   18  C   UNL     1      39.890 -11.641   0.564  1.00  0.00     0.030 A 
BRANCH  16  19
HETATM   19  C   UNL     1      40.082 -14.026  -2.359  1.00  0.00     0.293 C 
HETATM   20  O   UNL     1      40.876 -13.706  -3.229  1.00  0.00    -0.259 OA
BRANCH  19  21
HETATM   21  O   UNL     1      39.044 -14.887  -2.502  1.00  0.00    -0.318 OA
BRANCH  21  22
HETATM   22  C   UNL     1      38.066 -14.530  -3.489  1.00  0.00     0.174 C 
HETATM   23  C   UNL     1      37.121 -13.471  -2.951  1.00  0.00     0.034 C 
ENDBRANCH  21  22
ENDBRANCH  19  21
ENDBRANCH  16  19
ENDBRANCH  10  13
ENDBRANCH   8   9
ENDBRANCH   1   8
BRANCH   2  24
HETATM   24  C   UNL     1      43.158 -10.035   7.101  1.00  0.00     0.168 C 
BRANCH  24  25
HETATM   25  C   UNL     1      43.333 -10.020   8.598  1.00  0.00    -0.023 A 
HETATM   26  C   UNL     1      44.505 -10.540   9.147  1.00  0.00     0.125 A 
HETATM   27  N   UNL     1      44.783 -10.581  10.470  1.00  0.00    -0.273 NA
HETATM   28  C   UNL     1      43.840 -10.090  11.301  1.00  0.00     0.116 A 
HETATM   29  C   UNL     1      42.650  -9.534  10.866  1.00  0.00     0.020 A 
HETATM   30  C   UNL     1      42.403  -9.485   9.495  1.00  0.00     0.012 A 
ENDBRANCH  24  25
ENDBRANCH   2  24
BRANCH   5  31
HETATM   31  C   UNL     1      42.886 -14.568   5.110  1.00  0.00     0.047 A 
HETATM   32  C   UNL     1      42.893 -14.919   3.747  1.00  0.00     0.037 A 
HETATM   33  C   UNL     1      43.302 -16.189   3.298  1.00  0.00    -0.060 A 
HETATM   34  C   UNL     1      43.263 -16.530   1.837  1.00  0.00     0.048 C 
HETATM   35  C   UNL     1      43.701 -17.145   4.229  1.00  0.00     0.007 A 
HETATM   36  C   UNL     1      43.699 -16.831   5.583  1.00  0.00     0.003 A 
HETATM   37  C   UNL     1      43.295 -15.562   6.015  1.00  0.00     0.030 A 
ENDBRANCH   5  31
TORSDOF 9
ENDMDL
MODEL 4
REMARK VINA RESULT:      -8.3      2.589      8.743
REMARK  9 active torsions:
REMARK  status: ('A' for Active; 'I' for Inactive)
REMARK    1  A    between atoms: C_2  and  O_3 
REMARK    2  A    between atoms: O_3  and  C_4 
REMARK    3  A    between atoms: C_4  and  C_5 
REMARK    4  A    between atoms: C_8  and  N_9 
REMARK       I    between atoms: N_9  and  C_10 
REMARK    5  A    between atoms: C_10  and  C_11 
REMARK    6  A    between atoms: C_11  and  C_12 
REMARK    7  A    between atoms: N_13  and  C_14 
REMARK    8  A    between atoms: C_14  and  C_15 
REMARK    9  A    between atoms: N_23  and  C_24 
ROOT
HETATM    1  C   UNL     1      42.207 -13.382   4.221  1.00  0.00     0.191 C 
HETATM    2  N   UNL     1      42.555 -14.408   5.186  1.00  0.00    -0.315 N 
HETATM    3  C   UNL     1      43.094 -13.831   6.337  1.00  0.00     0.333 C 
HETATM    4  O   UNL     1      43.133 -14.420   7.406  1.00  0.00    -0.246 OA
HETATM    5  N   UNL     1      43.540 -12.564   6.010  1.00  0.00    -0.232 N 
HETATM    6  C   UNL     1      43.164 -12.291   4.708  1.00  0.00     0.256 C 
HETATM    7  O   UNL     1      43.454 -11.332   4.004  1.00  0.00    -0.270 OA
ENDROOT
BRANCH   1   8
HETATM    8  C   UNL     1      40.757 -12.935   4.390  1.00  0.00     0.138 C 
BRANCH   8   9
HETATM    9  C   UNL     1      40.073 -12.683   3.063  1.00  0.00     0.224 C 
HETATM   10  N   UNL     1      40.762 -11.804   2.245  1.00  0.00    -0.327 N 
HETATM   11  H   UNL     1      41.578 -11.345   2.628  1.00  0.00     0.169 HD
HETATM   12  O   UNL     1      39.027 -13.260   2.789  1.00  0.00    -0.273 OA
BRANCH  10  13
HETATM   13  C   UNL     1      40.495 -11.522   0.884  1.00  0.00     0.034 A 
HETATM   14  C   UNL     1      41.055 -12.222  -0.186  1.00  0.00     0.030 A 
HETATM   15  C   UNL     1      40.780 -11.852  -1.510  1.00  0.00     0.020 A 
HETATM   16  C   UNL     1      39.932 -10.773  -1.782  1.00  0.00     0.039 A 
HETATM   17  C   UNL     1      39.360 -10.075  -0.712  1.00  0.00     0.020 A 
HETATM   18  C   UNL     1      39.641 -10.445   0.608  1.00  0.00     0.030 A 
BRANCH  16  19
HETATM   19  C   UNL     1      39.604 -10.338  -3.168  1.00  0.00     0.293 C 
HETATM   20  O   UNL     1      38.461 -10.206  -3.574  1.00  0.00    -0.259 OA
BRANCH  19  21
HETATM   21  O   UNL     1      40.737 -10.105  -3.876  1.00  0.00    -0.318 OA
BRANCH  21  22
HETATM   22  C   UNL     1      40.964  -8.741  -4.261  1.00  0.00     0.174 C 
HETATM   23  C   UNL     1      41.822  -8.028  -3.232  1.00  0.00     0.034 C 
ENDBRANCH  21  22
ENDBRANCH  19  21
ENDBRANCH  16  19
ENDBRANCH  10  13
ENDBRANCH   8   9
ENDBRANCH   1   8
BRANCH   2  24
HETATM   24  C   UNL     1      41.952 -15.731   5.173  1.00  0.00     0.168 C 
BRANCH  24  25
HETATM   25  C   UNL     1      42.669 -16.765   4.342  1.00  0.00    -0.023 A 
HETATM   26  C   UNL     1      43.718 -17.483   4.915  1.00  0.00     0.125 A 
HETATM   27  N   UNL     1      44.436 -18.437   4.278  1.00  0.00    -0.273 NA
HETATM   28  C   UNL     1      44.104 -18.687   2.994  1.00  0.00     0.116 A 
HETATM   29  C   UNL     1      43.071 -18.048   2.332  1.00  0.00     0.020 A 
HETATM   30  C   UNL     1      42.334 -17.087   3.023  1.00  0.00     0.012 A 
ENDBRANCH  24  25
ENDBRANCH   2  24
BRANCH   5  31
HETATM   31  C   UNL     1      44.323 -11.716   6.858  1.00  0.00     0.047 A 
HETATM   32  C   UNL     1      43.771 -11.084   7.988  1.00  0.00     0.037 A 
HETATM   33  C   UNL     1      44.536 -10.272   8.846  1.00  0.00    -0.060 A 
HETATM   34  C   UNL     1      43.898  -9.591  10.022  1.00  0.00     0.048 C 
HETATM   35  C   UNL     1      45.885 -10.067   8.567  1.00  0.00     0.007 A 
HETATM   36  C   UNL     1      46.458 -10.672   7.455  1.00  0.00     0.003 A 
HETATM   37  C   UNL     1      45.687 -11.482   6.612  1.00  0.00     0.030 A 
ENDBRANCH   5  31
TORSDOF 9
ENDMDL
MODEL 5
REMARK VINA RESULT:      -8.2      4.133      6.969
REMARK  9 active torsions:
REMARK  status: ('A' for Active; 'I' for Inactive)
REMARK    1  A    between atoms: C_2  and  O_3 
REMARK    2  A    between atoms: O_3  and  C_4 
REMARK    3  A    between atoms: C_4  and  C_5 
REMARK    4  A    between atoms: C_8  and  N_9 
REMARK       I    between atoms: N_9  and  C_10 
REMARK    5  A    between atoms: C_10  and  C_11 
REMARK    6  A    between atoms: C_11  and  C_12 
REMARK    7  A    between atoms: N_13  and  C_14 
REMARK    8  A    between atoms: C_14  and  C_15 
REMARK    9  A    between atoms: N_23  and  C_24 
ROOT
HETATM    1  C   UNL     1      41.266 -12.600   6.318  1.00  0.00     0.191 C 
HETATM    2  N   UNL     1      42.490 -12.161   5.674  1.00  0.00    -0.315 N 
HETATM    3  C   UNL     1      42.808 -13.003   4.607  1.00  0.00     0.333 C 
HETATM    4  O   UNL     1      43.561 -12.662   3.708  1.00  0.00    -0.246 OA
HETATM    5  N   UNL     1      42.144 -14.201   4.797  1.00  0.00    -0.232 N 
HETATM    6  C   UNL     1      41.311 -14.069   5.892  1.00  0.00     0.256 C 
HETATM    7  O   UNL     1      40.638 -14.921   6.459  1.00  0.00    -0.270 OA
ENDROOT
BRANCH   1   8
HETATM    8  C   UNL     1      40.047 -11.905   5.715  1.00  0.00     0.138 C 
BRANCH   8   9
HETATM    9  C   UNL     1      39.276 -11.102   6.740  1.00  0.00     0.224 C 
HETATM   10  N   UNL     1      40.087 -10.418   7.630  1.00  0.00    -0.327 N 
HETATM   11  H   UNL     1      41.084 -10.588   7.585  1.00  0.00     0.169 HD
HETATM   12  O   UNL     1      38.052 -11.075   6.708  1.00  0.00    -0.273 OA
BRANCH  10  13
HETATM   13  C   UNL     1      39.685  -9.436   8.565  1.00  0.00     0.034 A 
HETATM   14  C   UNL     1      39.478  -9.686   9.923  1.00  0.00     0.030 A 
HETATM   15  C   UNL     1      39.032  -8.669  10.781  1.00  0.00     0.020 A 
HETATM   16  C   UNL     1      38.790  -7.383  10.289  1.00  0.00     0.039 A 
HETATM   17  C   UNL     1      39.006  -7.125   8.930  1.00  0.00     0.020 A 
HETATM   18  C   UNL     1      39.447  -8.144   8.076  1.00  0.00     0.030 A 
BRANCH  16  19
HETATM   19  C   UNL     1      38.317  -6.267  11.154  1.00  0.00     0.293 C 
HETATM   20  O   UNL     1      38.315  -5.099  10.798  1.00  0.00    -0.259 OA
BRANCH  19  21
HETATM   21  O   UNL     1      37.889  -6.739  12.351  1.00  0.00    -0.318 OA
BRANCH  21  22
HETATM   22  C   UNL     1      38.451  -6.106  13.510  1.00  0.00     0.174 C 
HETATM   23  C   UNL     1      39.695  -6.843  13.975  1.00  0.00     0.034 C 
ENDBRANCH  21  22
ENDBRANCH  19  21
ENDBRANCH  16  19
ENDBRANCH  10  13
ENDBRANCH   8   9
ENDBRANCH   1   8
BRANCH   2  24
HETATM   24  C   UNL     1      42.984 -10.796   5.779  1.00  0.00     0.168 C 
BRANCH  24  25
HETATM   25  C   UNL     1      43.737 -10.473   7.044  1.00  0.00    -0.023 A 
HETATM   26  C   UNL     1      44.900 -11.183   7.339  1.00  0.00     0.125 A 
HETATM   27  N   UNL     1      45.665 -10.985   8.437  1.00  0.00    -0.273 NA
HETATM   28  C   UNL     1      45.249 -10.036   9.301  1.00  0.00     0.116 A 
HETATM   29  C   UNL     1      44.122  -9.259   9.100  1.00  0.00     0.020 A 
HETATM   30  C   UNL     1      43.368  -9.470   7.947  1.00  0.00     0.012 A 
ENDBRANCH  24  25
ENDBRANCH   2  24
BRANCH   5  31
HETATM   31  C   UNL     1      42.349 -15.393   4.030  1.00  0.00     0.047 A 
HETATM   32  C   UNL     1      43.261 -16.386   4.433  1.00  0.00     0.037 A 
HETATM   33  C   UNL     1      43.451 -17.575   3.704  1.00  0.00    -0.060 A 
HETATM   34  C   UNL     1      44.459 -18.593   4.154  1.00  0.00     0.048 C 
HETATM   35  C   UNL     1      42.726 -17.779   2.533  1.00  0.00     0.007 A 
HETATM   36  C   UNL     1      41.822 -16.814   2.105  1.00  0.00     0.003 A 
HETATM   37  C   UNL     1      41.639 -15.638   2.842  1.00  0.00     0.030 A 
ENDBRANCH   5  31
TORSDOF 9
ENDMDL
MODEL 6
REMARK VINA RESULT:      -8.0     16.589     19.278
REMARK  9 active torsions:
REMARK  status: ('A' for Active; 'I' for Inactive)
REMARK    1  A    between atoms: C_2  and  O_3 
REMARK    2  A    between atoms: O_3  and  C_4 
REMARK    3  A    between atoms: C_4  and  C_5 
REMARK    4  A    between atoms: C_8  and  N_9 
REMARK       I    between atoms: N_9  and  C_10 
REMARK    5  A    between atoms: C_10  and  C_11 
REMARK    6  A    between atoms: C_11  and  C_12 
REMARK    7  A    between atoms: N_13  and  C_14 
REMARK    8  A    between atoms: C_14  and  C_15 
REMARK    9  A    between atoms: N_23  and  C_24 
ROOT
HETATM    1  C   UNL     1      45.087 -29.879   1.002  1.00  0.00     0.191 C 
HETATM    2  N   UNL     1      46.285 -29.200   0.547  1.00  0.00    -0.315 N 
HETATM    3  C   UNL     1      46.237 -28.999  -0.834  1.00  0.00     0.333 C 
HETATM    4  O   UNL     1      46.925 -28.162  -1.397  1.00  0.00    -0.246 OA
HETATM    5  N   UNL     1      45.322 -29.891  -1.362  1.00  0.00    -0.232 N 
HETATM    6  C   UNL     1      44.702 -30.551  -0.319  1.00  0.00     0.256 C 
HETATM    7  O   UNL     1      43.916 -31.489  -0.355  1.00  0.00    -0.270 OA
ENDROOT
BRANCH   1   8
HETATM    8  C   UNL     1      44.014 -28.877   1.425  1.00  0.00     0.138 C 
BRANCH   8   9
HETATM    9  C   UNL     1      42.682 -29.542   1.703  1.00  0.00     0.224 C 
HETATM   10  N   UNL     1      42.766 -30.587   2.607  1.00  0.00    -0.327 N 
HETATM   11  H   UNL     1      43.686 -30.872   2.915  1.00  0.00     0.169 HD
HETATM   12  O   UNL     1      41.661 -29.124   1.170  1.00  0.00    -0.273 OA
BRANCH  10  13
HETATM   13  C   UNL     1      41.688 -31.270   3.219  1.00  0.00     0.034 A 
HETATM   14  C   UNL     1      40.847 -32.163   2.553  1.00  0.00     0.030 A 
HETATM   15  C   UNL     1      39.768 -32.766   3.216  1.00  0.00     0.020 A 
HETATM   16  C   UNL     1      39.518 -32.483   4.564  1.00  0.00     0.039 A 
HETATM   17  C   UNL     1      40.365 -31.597   5.238  1.00  0.00     0.020 A 
HETATM   18  C   UNL     1      41.438 -30.994   4.571  1.00  0.00     0.030 A 
BRANCH  16  19
HETATM   19  C   UNL     1      38.389 -33.095   5.316  1.00  0.00     0.293 C 
HETATM   20  O   UNL     1      38.033 -32.709   6.418  1.00  0.00    -0.259 OA
BRANCH  19  21
HETATM   21  O   UNL     1      37.828 -34.101   4.602  1.00  0.00    -0.318 OA
BRANCH  21  22
HETATM   22  C   UNL     1      36.393 -34.139   4.595  1.00  0.00     0.174 C 
HETATM   23  C   UNL     1      35.838 -33.286   3.469  1.00  0.00     0.034 C 
ENDBRANCH  21  22
ENDBRANCH  19  21
ENDBRANCH  16  19
ENDBRANCH  10  13
ENDBRANCH   8   9
ENDBRANCH   1   8
BRANCH   2  24
HETATM   24  C   UNL     1      47.117 -28.402   1.434  1.00  0.00     0.168 C 
BRANCH  24  25
HETATM   25  C   UNL     1      48.225 -29.148   2.134  1.00  0.00    -0.023 A 
HETATM   26  C   UNL     1      49.036 -30.005   1.392  1.00  0.00     0.125 A 
HETATM   27  N   UNL     1      50.062 -30.726   1.901  1.00  0.00    -0.273 NA
HETATM   28  C   UNL     1      50.291 -30.600   3.225  1.00  0.00     0.116 A 
HETATM   29  C   UNL     1      49.560 -29.766   4.052  1.00  0.00     0.020 A 
HETATM   30  C   UNL     1      48.525 -29.018   3.494  1.00  0.00     0.012 A 
ENDBRANCH  24  25
ENDBRANCH   2  24
BRANCH   5  31
HETATM   31  C   UNL     1      45.116 -30.136  -2.758  1.00  0.00     0.047 A 
HETATM   32  C   UNL     1      45.978 -30.966  -3.500  1.00  0.00     0.037 A 
HETATM   33  C   UNL     1      45.770 -31.239  -4.865  1.00  0.00    -0.060 A 
HETATM   34  C   UNL     1      46.733 -32.104  -5.625  1.00  0.00     0.048 C 
HETATM   35  C   UNL     1      44.685 -30.660  -5.519  1.00  0.00     0.007 A 
HETATM   36  C   UNL     1      43.819 -29.831  -4.815  1.00  0.00     0.003 A 
HETATM   37  C   UNL     1      44.035 -29.572  -3.456  1.00  0.00     0.030 A 
ENDBRANCH   5  31
TORSDOF 9
ENDMDL
MODEL 7
REMARK VINA RESULT:      -7.9      3.059      9.365
REMARK  9 active torsions:
REMARK  status: ('A' for Active; 'I' for Inactive)
REMARK    1  A    between atoms: C_2  and  O_3 
REMARK    2  A    between atoms: O_3  and  C_4 
REMARK    3  A    between atoms: C_4  and  C_5 
REMARK    4  A    between atoms: C_8  and  N_9 
REMARK       I    between atoms: N_9  and  C_10 
REMARK    5  A    between atoms: C_10  and  C_11 
REMARK    6  A    between atoms: C_11  and  C_12 
REMARK    7  A    between atoms: N_13  and  C_14 
REMARK    8  A    between atoms: C_14  and  C_15 
REMARK    9  A    between atoms: N_23  and  C_24 
ROOT
HETATM    1  C   UNL     1      42.129 -13.405   3.077  1.00  0.00     0.191 C 
HETATM    2  N   UNL     1      42.209 -14.394   4.135  1.00  0.00    -0.315 N 
HETATM    3  C   UNL     1      42.507 -13.781   5.353  1.00  0.00     0.333 C 
HETATM    4  O   UNL     1      42.283 -14.318   6.427  1.00  0.00    -0.246 OA
HETATM    5  N   UNL     1      43.070 -12.548   5.083  1.00  0.00    -0.232 N 
HETATM    6  C   UNL     1      43.003 -12.326   3.721  1.00  0.00     0.256 C 
HETATM    7  O   UNL     1      43.484 -11.414   3.061  1.00  0.00    -0.270 OA
ENDROOT
BRANCH   1   8
HETATM    8  C   UNL     1      40.698 -12.900   2.903  1.00  0.00     0.138 C 
BRANCH   8   9
HETATM    9  C   UNL     1      40.385 -12.539   1.466  1.00  0.00     0.224 C 
HETATM   10  N   UNL     1      39.029 -12.443   1.204  1.00  0.00    -0.327 N 
HETATM   11  H   UNL     1      38.386 -12.711   1.938  1.00  0.00     0.169 HD
HETATM   12  O   UNL     1      41.293 -12.333   0.670  1.00  0.00    -0.273 OA
BRANCH  10  13
HETATM   13  C   UNL     1      38.424 -11.936   0.030  1.00  0.00     0.034 A 
HETATM   14  C   UNL     1      38.303 -12.652  -1.162  1.00  0.00     0.030 A 
HETATM   15  C   UNL     1      37.733 -12.064  -2.301  1.00  0.00     0.020 A 
HETATM   16  C   UNL     1      37.270 -10.744  -2.259  1.00  0.00     0.039 A 
HETATM   17  C   UNL     1      37.380 -10.026  -1.063  1.00  0.00     0.020 A 
HETATM   18  C   UNL     1      37.954 -10.616   0.070  1.00  0.00     0.030 A 
BRANCH  16  19
HETATM   19  C   UNL     1      36.657 -10.071  -3.436  1.00  0.00     0.293 C 
HETATM   20  O   UNL     1      37.132  -9.076  -3.961  1.00  0.00    -0.259 OA
BRANCH  19  21
HETATM   21  O   UNL     1      35.535 -10.724  -3.830  1.00  0.00    -0.318 OA
BRANCH  21  22
HETATM   22  C   UNL     1      34.315 -10.309  -3.197  1.00  0.00     0.174 C 
HETATM   23  C   UNL     1      33.152 -11.169  -3.656  1.00  0.00     0.034 C 
ENDBRANCH  21  22
ENDBRANCH  19  21
ENDBRANCH  16  19
ENDBRANCH  10  13
ENDBRANCH   8   9
ENDBRANCH   1   8
BRANCH   2  24
HETATM   24  C   UNL     1      41.564 -15.695   4.042  1.00  0.00     0.168 C 
BRANCH  24  25
HETATM   25  C   UNL     1      42.482 -16.858   3.764  1.00  0.00    -0.023 A 
HETATM   26  C   UNL     1      42.373 -17.530   2.547  1.00  0.00     0.125 A 
HETATM   27  N   UNL     1      43.139 -18.582   2.178  1.00  0.00    -0.273 NA
HETATM   28  C   UNL     1      44.060 -19.003   3.071  1.00  0.00     0.116 A 
HETATM   29  C   UNL     1      44.266 -18.400   4.299  1.00  0.00     0.020 A 
HETATM   30  C   UNL     1      43.478 -17.302   4.640  1.00  0.00     0.012 A 
ENDBRANCH  24  25
ENDBRANCH   2  24
BRANCH   5  31
HETATM   31  C   UNL     1      43.686 -11.688   6.049  1.00  0.00     0.047 A 
HETATM   32  C   UNL     1      42.970 -10.655   6.684  1.00  0.00     0.037 A 
HETATM   33  C   UNL     1      43.554  -9.822   7.656  1.00  0.00    -0.060 A 
HETATM   34  C   UNL     1      42.763  -8.711   8.284  1.00  0.00     0.048 C 
HETATM   35  C   UNL     1      44.892 -10.007   7.998  1.00  0.00     0.007 A 
HETATM   36  C   UNL     1      45.626 -11.014   7.384  1.00  0.00     0.003 A 
HETATM   37  C   UNL     1      45.032 -11.839   6.422  1.00  0.00     0.030 A 
ENDBRANCH   5  31
TORSDOF 9
ENDMDL
MODEL 8
REMARK VINA RESULT:      -7.6      2.579      8.828
REMARK  9 active torsions:
REMARK  status: ('A' for Active; 'I' for Inactive)
REMARK    1  A    between atoms: C_2  and  O_3 
REMARK    2  A    between atoms: O_3  and  C_4 
REMARK    3  A    between atoms: C_4  and  C_5 
REMARK    4  A    between atoms: C_8  and  N_9 
REMARK       I    between atoms: N_9  and  C_10 
REMARK    5  A    between atoms: C_10  and  C_11 
REMARK    6  A    between atoms: C_11  and  C_12 
REMARK    7  A    between atoms: N_13  and  C_14 
REMARK    8  A    between atoms: C_14  and  C_15 
REMARK    9  A    between atoms: N_23  and  C_24 
ROOT
HETATM    1  C   UNL     1      42.139 -11.256   5.615  1.00  0.00     0.191 C 
HETATM    2  N   UNL     1      43.030 -11.401   6.751  1.00  0.00    -0.315 N 
HETATM    3  C   UNL     1      43.606 -12.673   6.757  1.00  0.00     0.333 C 
HETATM    4  O   UNL     1      44.630 -12.923   7.374  1.00  0.00    -0.246 OA
HETATM    5  N   UNL     1      42.815 -13.503   5.985  1.00  0.00    -0.232 N 
HETATM    6  C   UNL     1      41.832 -12.738   5.388  1.00  0.00     0.256 C 
HETATM    7  O   UNL     1      40.870 -13.098   4.720  1.00  0.00    -0.270 OA
ENDROOT
BRANCH   1   8
HETATM    8  C   UNL     1      42.872 -10.671   4.410  1.00  0.00     0.138 C 
BRANCH   8   9
HETATM    9  C   UNL     1      41.951 -10.438   3.232  1.00  0.00     0.224 C 
HETATM   10  N   UNL     1      42.072 -11.395   2.239  1.00  0.00    -0.327 N 
HETATM   11  H   UNL     1      42.807 -12.084   2.335  1.00  0.00     0.169 HD
HETATM   12  O   UNL     1      41.174  -9.491   3.235  1.00  0.00    -0.273 OA
BRANCH  10  13
HETATM   13  C   UNL     1      41.224 -11.571   1.120  1.00  0.00     0.034 A 
HETATM   14  C   UNL     1      41.178 -10.702   0.028  1.00  0.00     0.030 A 
HETATM   15  C   UNL     1      40.276 -10.917  -1.024  1.00  0.00     0.020 A 
HETATM   16  C   UNL     1      39.406 -12.012  -0.998  1.00  0.00     0.039 A 
HETATM   17  C   UNL     1      39.456 -12.891   0.089  1.00  0.00     0.020 A 
HETATM   18  C   UNL     1      40.355 -12.671   1.140  1.00  0.00     0.030 A 
BRANCH  16  19
HETATM   19  C   UNL     1      38.429 -12.288  -2.088  1.00  0.00     0.293 C 
HETATM   20  O   UNL     1      37.230 -12.088  -1.977  1.00  0.00    -0.259 OA
BRANCH  19  21
HETATM   21  O   UNL     1      39.063 -12.763  -3.188  1.00  0.00    -0.318 OA
BRANCH  21  22
HETATM   22  C   UNL     1      39.689 -14.047  -3.045  1.00  0.00     0.174 C 
HETATM   23  C   UNL     1      38.649 -15.130  -2.826  1.00  0.00     0.034 C 
ENDBRANCH  21  22
ENDBRANCH  19  21
ENDBRANCH  16  19
ENDBRANCH  10  13
ENDBRANCH   8   9
ENDBRANCH   1   8
BRANCH   2  24
HETATM   24  C   UNL     1      43.623 -10.261   7.432  1.00  0.00     0.168 C 
BRANCH  24  25
HETATM   25  C   UNL     1      43.130 -10.013   8.835  1.00  0.00    -0.023 A 
HETATM   26  C   UNL     1      43.873 -10.501   9.909  1.00  0.00     0.125 A 
HETATM   27  N   UNL     1      43.540 -10.342  11.210  1.00  0.00    -0.273 NA
HETATM   28  C   UNL     1      42.398  -9.670  11.465  1.00  0.00     0.116 A 
HETATM   29  C   UNL     1      41.594  -9.126  10.479  1.00  0.00     0.020 A 
HETATM   30  C   UNL     1      41.976  -9.287   9.148  1.00  0.00     0.012 A 
ENDBRANCH  24  25
ENDBRANCH   2  24
BRANCH   5  31
HETATM   31  C   UNL     1      42.954 -14.925   5.889  1.00  0.00     0.047 A 
HETATM   32  C   UNL     1      43.148 -15.569   4.652  1.00  0.00     0.037 A 
HETATM   33  C   UNL     1      43.314 -16.962   4.546  1.00  0.00    -0.060 A 
HETATM   34  C   UNL     1      43.486 -17.610   3.202  1.00  0.00     0.048 C 
HETATM   35  C   UNL     1      43.271 -17.744   5.698  1.00  0.00     0.007 A 
HETATM   36  C   UNL     1      43.075 -17.138   6.934  1.00  0.00     0.003 A 
HETATM   37  C   UNL     1      42.916 -15.750   7.025  1.00  0.00     0.030 A 
ENDBRANCH   5  31
TORSDOF 9
ENDMDL
MODEL 9
REMARK VINA RESULT:      -7.6      4.135     10.066
REMARK  9 active torsions:
REMARK  status: ('A' for Active; 'I' for Inactive)
REMARK    1  A    between atoms: C_2  and  O_3 
REMARK    2  A    between atoms: O_3  and  C_4 
REMARK    3  A    between atoms: C_4  and  C_5 
REMARK    4  A    between atoms: C_8  and  N_9 
REMARK       I    between atoms: N_9  and  C_10 
REMARK    5  A    between atoms: C_10  and  C_11 
REMARK    6  A    between atoms: C_11  and  C_12 
REMARK    7  A    between atoms: N_13  and  C_14 
REMARK    8  A    between atoms: C_14  and  C_15 
REMARK    9  A    between atoms: N_23  and  C_24 
ROOT
HETATM    1  C   UNL     1      42.983 -10.211   8.765  1.00  0.00     0.191 C 
HETATM    2  N   UNL     1      42.387  -9.028   8.173  1.00  0.00    -0.315 N 
HETATM    3  C   UNL     1      42.516  -7.935   9.033  1.00  0.00     0.333 C 
HETATM    4  O   UNL     1      42.426  -6.782   8.642  1.00  0.00    -0.246 OA
HETATM    5  N   UNL     1      42.737  -8.421  10.309  1.00  0.00    -0.232 N 
HETATM    6  C   UNL     1      42.883  -9.793  10.235  1.00  0.00     0.256 C 
HETATM    7  O   UNL     1      42.981 -10.611  11.141  1.00  0.00    -0.270 OA
ENDROOT
BRANCH   1   8
HETATM    8  C   UNL     1      44.445 -10.358   8.350  1.00  0.00     0.138 C 
BRANCH   8   9
HETATM    9  C   UNL     1      44.659 -11.512   7.393  1.00  0.00     0.224 C 
HETATM   10  N   UNL     1      43.581 -12.377   7.322  1.00  0.00    -0.327 N 
HETATM   11  H   UNL     1      42.813 -12.228   7.965  1.00  0.00     0.169 HD
HETATM   12  O   UNL     1      45.698 -11.594   6.750  1.00  0.00    -0.273 OA
BRANCH  10  13
HETATM   13  C   UNL     1      43.390 -13.423   6.389  1.00  0.00     0.034 A 
HETATM   14  C   UNL     1      43.638 -14.770   6.660  1.00  0.00     0.030 A 
HETATM   15  C   UNL     1      43.471 -15.746   5.666  1.00  0.00     0.020 A 
HETATM   16  C   UNL     1      43.047 -15.384   4.383  1.00  0.00     0.039 A 
HETATM   17  C   UNL     1      42.788 -14.037   4.110  1.00  0.00     0.020 A 
HETATM   18  C   UNL     1      42.960 -13.065   5.103  1.00  0.00     0.030 A 
BRANCH  16  19
HETATM   19  C   UNL     1      42.853 -16.378   3.292  1.00  0.00     0.293 C 
HETATM   20  O   UNL     1      42.490 -16.074   2.167  1.00  0.00    -0.259 OA
BRANCH  19  21
HETATM   21  O   UNL     1      43.149 -17.628   3.725  1.00  0.00    -0.318 OA
BRANCH  21  22
HETATM   22  C   UNL     1      44.003 -18.402   2.870  1.00  0.00     0.174 C 
HETATM   23  C   UNL     1      43.344 -19.718   2.499  1.00  0.00     0.034 C 
ENDBRANCH  21  22
ENDBRANCH  19  21
ENDBRANCH  16  19
ENDBRANCH  10  13
ENDBRANCH   8   9
ENDBRANCH   1   8
BRANCH   2  24
HETATM   24  C   UNL     1      42.187  -8.886   6.740  1.00  0.00     0.168 C 
BRANCH  24  25
HETATM   25  C   UNL     1      40.822  -9.276   6.232  1.00  0.00    -0.023 A 
HETATM   26  C   UNL     1      39.969  -8.282   5.753  1.00  0.00     0.125 A 
HETATM   27  N   UNL     1      38.725  -8.503   5.268  1.00  0.00    -0.273 NA
HETATM   28  C   UNL     1      38.295  -9.782   5.269  1.00  0.00     0.116 A 
HETATM   29  C   UNL     1      39.062 -10.848   5.703  1.00  0.00     0.020 A 
HETATM   30  C   UNL     1      40.348 -10.591   6.174  1.00  0.00     0.012 A 
ENDBRANCH  24  25
ENDBRANCH   2  24
BRANCH   5  31
HETATM   31  C   UNL     1      42.736  -7.636  11.506  1.00  0.00     0.047 A 
HETATM   32  C   UNL     1      42.222  -6.325  11.533  1.00  0.00     0.037 A 
HETATM   33  C   UNL     1      42.188  -5.553  12.709  1.00  0.00    -0.060 A 
HETATM   34  C   UNL     1      41.661  -4.148  12.684  1.00  0.00     0.048 C 
HETATM   35  C   UNL     1      42.694  -6.089  13.891  1.00  0.00     0.007 A 
HETATM   36  C   UNL     1      43.214  -7.378  13.896  1.00  0.00     0.003 A 
HETATM   37  C   UNL     1      43.236  -8.137  12.720  1.00  0.00     0.030 A 
ENDBRANCH   5  31
TORSDOF 9
ENDMDL
MODEL 10
REMARK VINA RESULT:      -7.6     16.722     19.423
REMARK  9 active torsions:
REMARK  status: ('A' for Active; 'I' for Inactive)
REMARK    1  A    between atoms: C_2  and  O_3 
REMARK    2  A    between atoms: O_3  and  C_4 
REMARK    3  A    between atoms: C_4  and  C_5 
REMARK    4  A    between atoms: C_8  and  N_9 
REMARK       I    between atoms: N_9  and  C_10 
REMARK    5  A    between atoms: C_10  and  C_11 
REMARK    6  A    between atoms: C_11  and  C_12 
REMARK    7  A    between atoms: N_13  and  C_14 
REMARK    8  A    between atoms: C_14  and  C_15 
REMARK    9  A    between atoms: N_23  and  C_24 
ROOT
HETATM    1  C   UNL     1      45.311 -30.429  -0.068  1.00  0.00     0.191 C 
HETATM    2  N   UNL     1      46.177 -29.381  -0.575  1.00  0.00    -0.315 N 
HETATM    3  C   UNL     1      45.975 -29.203  -1.945  1.00  0.00     0.333 C 
HETATM    4  O   UNL     1      46.302 -28.180  -2.526  1.00  0.00    -0.246 OA
HETATM    5  N   UNL     1      45.385 -30.351  -2.442  1.00  0.00    -0.232 N 
HETATM    6  C   UNL     1      45.093 -31.186  -1.381  1.00  0.00     0.256 C 
HETATM    7  O   UNL     1      44.671 -32.336  -1.394  1.00  0.00    -0.270 OA
ENDROOT
BRANCH   1   8
HETATM    8  C   UNL     1      43.991 -29.853   0.442  1.00  0.00     0.138 C 
BRANCH   8   9
HETATM    9  C   UNL     1      43.369 -30.709   1.525  1.00  0.00     0.224 C 
HETATM   10  N   UNL     1      42.107 -30.286   1.906  1.00  0.00    -0.327 N 
HETATM   11  H   UNL     1      41.764 -29.417   1.518  1.00  0.00     0.169 HD
HETATM   12  O   UNL     1      43.966 -31.688   1.956  1.00  0.00    -0.273 OA
BRANCH  10  13
HETATM   13  C   UNL     1      41.194 -30.977   2.737  1.00  0.00     0.034 A 
HETATM   14  C   UNL     1      41.124 -30.823   4.123  1.00  0.00     0.030 A 
HETATM   15  C   UNL     1      40.222 -31.580   4.886  1.00  0.00     0.020 A 
HETATM   16  C   UNL     1      39.373 -32.503   4.267  1.00  0.00     0.039 A 
HETATM   17  C   UNL     1      39.432 -32.653   2.878  1.00  0.00     0.020 A 
HETATM   18  C   UNL     1      40.337 -31.899   2.120  1.00  0.00     0.030 A 
BRANCH  16  19
HETATM   19  C   UNL     1      38.397 -33.331   5.028  1.00  0.00     0.293 C 
HETATM   20  O   UNL     1      38.017 -34.429   4.654  1.00  0.00    -0.259 OA
BRANCH  19  21
HETATM   21  O   UNL     1      38.024 -32.703   6.170  1.00  0.00    -0.318 OA
BRANCH  21  22
HETATM   22  C   UNL     1      38.285 -33.413   7.390  1.00  0.00     0.174 C 
HETATM   23  C   UNL     1      37.090 -34.262   7.783  1.00  0.00     0.034 C 
ENDBRANCH  21  22
ENDBRANCH  19  21
ENDBRANCH  16  19
ENDBRANCH  10  13
ENDBRANCH   8   9
ENDBRANCH   1   8
BRANCH   2  24
HETATM   24  C   UNL     1      46.744 -28.351   0.281  1.00  0.00     0.168 C 
BRANCH  24  25
HETATM   25  C   UNL     1      47.766 -28.827   1.282  1.00  0.00    -0.023 A 
HETATM   26  C   UNL     1      48.764 -29.706   0.863  1.00  0.00     0.125 A 
HETATM   27  N   UNL     1      49.739 -30.201   1.661  1.00  0.00    -0.273 NA
HETATM   28  C   UNL     1      49.717 -29.813   2.953  1.00  0.00     0.116 A 
HETATM   29  C   UNL     1      48.785 -28.933   3.473  1.00  0.00     0.020 A 
HETATM   30  C   UNL     1      47.808 -28.421   2.620  1.00  0.00     0.012 A 
ENDBRANCH  24  25
ENDBRANCH   2  24
BRANCH   5  31
HETATM   31  C   UNL     1      45.186 -30.646  -3.829  1.00  0.00     0.047 A 
HETATM   32  C   UNL     1      46.153 -31.333  -4.587  1.00  0.00     0.037 A 
HETATM   33  C   UNL     1      45.958 -31.655  -5.943  1.00  0.00    -0.060 A 
HETATM   34  C   UNL     1      47.030 -32.361  -6.721  1.00  0.00     0.048 C 
HETATM   35  C   UNL     1      44.775 -31.271  -6.571  1.00  0.00     0.007 A 
HETATM   36  C   UNL     1      43.804 -30.586  -5.851  1.00  0.00     0.003 A 
HETATM   37  C   UNL     1      44.009 -30.277  -4.501  1.00  0.00     0.030 A 
ENDBRANCH   5  31
TORSDOF 9
ENDMDL
