MODEL 1
REMARK VINA RESULT:      -8.0      0.000      0.000
REMARK  4 active torsions:
REMARK  status: ('A' for Active; 'I' for Inactive)
REMARK    1  A    between atoms: C_2  and  C_3 
REMARK    2  A    between atoms: C_7  and  N_8 
REMARK       I    between atoms: N_8  and  C_9 
REMARK    3  A    between atoms: C_9  and  C_10 
REMARK    4  A    between atoms: C_12  and  C_13 
ROOT
HETATM    1  N   UNL     1      43.940 -12.757   5.461  1.00  0.00    -0.308 N 
HETATM    2  C   UNL     1      43.176 -13.912   5.535  1.00  0.00     0.257 C 
HETATM    3  O   UNL     1      42.526 -14.258   6.519  1.00  0.00    -0.267 OA
HETATM    4  H   UNL     1      44.387 -12.486   4.596  1.00  0.00     0.170 HD
ENDROOT
BRANCH   2   5
HETATM    5  C   UNL     1      43.138 -14.742   4.298  1.00  0.00     0.033 A 
HETATM    6  C   UNL     1      43.308 -16.134   4.331  1.00  0.00     0.029 A 
HETATM    7  C   UNL     1      43.302 -16.875   3.140  1.00  0.00    -0.023 A 
HETATM    8  C   UNL     1      43.109 -16.211   1.922  1.00  0.00     0.012 A 
HETATM    9  C   UNL     1      42.909 -14.829   1.890  1.00  0.00     0.002 A 
HETATM   10  C   UNL     1      42.920 -14.096   3.076  1.00  0.00     0.017 A 
BRANCH   7  11
HETATM   11  C   UNL     1      43.512 -18.312   3.156  1.00  0.00    -0.002 A 
HETATM   12  C   UNL     1      44.064 -19.011   4.210  1.00  0.00     0.153 A 
HETATM   13  O   UNL     1      44.133 -20.337   3.926  1.00  0.00    -0.334 OA
HETATM   14  C   UNL     1      43.611 -20.501   2.684  1.00  0.00     0.142 A 
HETATM   15  C   UNL     1      43.208 -19.290   2.170  1.00  0.00     0.038 A 
ENDBRANCH   7  11
ENDBRANCH   2   5
BRANCH   1  16
HETATM   16  C   UNL     1      44.035 -11.882   6.525  1.00  0.00     0.126 A 
HETATM   17  N   UNL     1      42.963 -11.310   7.159  1.00  0.00    -0.262 N 
HETATM   18  N   UNL     1      43.312 -10.473   8.154  1.00  0.00    -0.178 NA
HETATM   19  H   UNL     1      41.980 -11.454   6.937  1.00  0.00     0.191 HD
HETATM   20  C   UNL     1      44.650 -10.518   8.158  1.00  0.00     0.058 A 
HETATM   21  C   UNL     1      45.149 -11.392   7.160  1.00  0.00     0.079 A 
BRANCH  20  22
HETATM   22  C   UNL     1      45.431  -9.706   9.135  1.00  0.00     0.056 C 
HETATM   23  C   UNL     1      44.945  -9.894  10.564  1.00  0.00     0.011 C 
ENDBRANCH  20  22
ENDBRANCH   1  16
TORSDOF 4
ENDMDL
MODEL 2
REMARK VINA RESULT:      -7.9      4.367      7.148
REMARK  4 active torsions:
REMARK  status: ('A' for Active; 'I' for Inactive)
REMARK    1  A    between atoms: C_2  and  C_3 
REMARK    2  A    between atoms: C_7  and  N_8 
REMARK       I    between atoms: N_8  and  C_9 
REMARK    3  A    between atoms: C_9  and  C_10 
REMARK    4  A    between atoms: C_12  and  C_13 
ROOT
HETATM    1  N   UNL     1      41.382 -15.049   0.786  1.00  0.00    -0.308 N 
HETATM    2  C   UNL     1      41.685 -14.484   2.015  1.00  0.00     0.257 C 
HETATM    3  O   UNL     1      41.377 -13.344   2.355  1.00  0.00    -0.267 OA
HETATM    4  H   UNL     1      41.592 -16.020   0.596  1.00  0.00     0.170 HD
ENDROOT
BRANCH   2   5
HETATM    5  C   UNL     1      42.400 -15.370   2.976  1.00  0.00     0.033 A 
HETATM    6  C   UNL     1      42.661 -16.719   2.692  1.00  0.00     0.029 A 
HETATM    7  C   UNL     1      43.305 -17.529   3.639  1.00  0.00    -0.023 A 
HETATM    8  C   UNL     1      43.697 -16.971   4.862  1.00  0.00     0.012 A 
HETATM    9  C   UNL     1      43.466 -15.621   5.135  1.00  0.00     0.002 A 
HETATM   10  C   UNL     1      42.822 -14.821   4.192  1.00  0.00     0.017 A 
BRANCH   7  11
HETATM   11  C   UNL     1      43.550 -18.935   3.373  1.00  0.00    -0.002 A 
HETATM   12  C   UNL     1      43.333 -19.551   2.157  1.00  0.00     0.153 A 
HETATM   13  O   UNL     1      43.652 -20.870   2.221  1.00  0.00    -0.334 OA
HETATM   14  C   UNL     1      44.089 -21.108   3.483  1.00  0.00     0.142 A 
HETATM   15  C   UNL     1      44.054 -19.953   4.229  1.00  0.00     0.038 A 
ENDBRANCH   7  11
ENDBRANCH   2   5
BRANCH   1  16
HETATM   16  C   UNL     1      40.693 -14.349  -0.184  1.00  0.00     0.126 A 
HETATM   17  N   UNL     1      41.020 -13.090  -0.615  1.00  0.00    -0.262 N 
HETATM   18  N   UNL     1      40.184 -12.609  -1.553  1.00  0.00    -0.178 NA
HETATM   19  H   UNL     1      41.797 -12.520  -0.285  1.00  0.00     0.191 HD
HETATM   20  C   UNL     1      39.299 -13.597  -1.732  1.00  0.00     0.058 A 
HETATM   21  C   UNL     1      39.580 -14.711  -0.902  1.00  0.00     0.079 A 
BRANCH  20  22
HETATM   22  C   UNL     1      38.185 -13.446  -2.712  1.00  0.00     0.056 C 
HETATM   23  C   UNL     1      38.077 -14.635  -3.655  1.00  0.00     0.011 C 
ENDBRANCH  20  22
ENDBRANCH   1  16
TORSDOF 4
ENDMDL
MODEL 3
REMARK VINA RESULT:      -7.1      2.804      7.822
REMARK  4 active torsions:
REMARK  status: ('A' for Active; 'I' for Inactive)
REMARK    1  A    between atoms: C_2  and  C_3 
REMARK    2  A    between atoms: C_7  and  N_8 
REMARK       I    between atoms: N_8  and  C_9 
REMARK    3  A    between atoms: C_9  and  C_10 
REMARK    4  A    between atoms: C_12  and  C_13 
ROOT
HETATM    1  N   UNL     1      43.238 -15.771   4.181  1.00  0.00    -0.308 N 
HETATM    2  C   UNL     1      42.018 -15.118   4.257  1.00  0.00     0.257 C 
HETATM    3  O   UNL     1      40.941 -15.606   3.921  1.00  0.00    -0.267 OA
HETATM    4  H   UNL     1      44.078 -15.345   4.548  1.00  0.00     0.170 HD
ENDROOT
BRANCH   2   5
HETATM    5  C   UNL     1      42.055 -13.743   4.829  1.00  0.00     0.033 A 
HETATM    6  C   UNL     1      43.157 -13.269   5.556  1.00  0.00     0.029 A 
HETATM    7  C   UNL     1      43.138 -11.980   6.110  1.00  0.00    -0.023 A 
HETATM    8  C   UNL     1      42.013 -11.169   5.914  1.00  0.00     0.012 A 
HETATM    9  C   UNL     1      40.928 -11.627   5.165  1.00  0.00     0.002 A 
HETATM   10  C   UNL     1      40.950 -12.911   4.620  1.00  0.00     0.017 A 
BRANCH   7  11
HETATM   11  C   UNL     1      44.257 -11.490   6.894  1.00  0.00    -0.002 A 
HETATM   12  C   UNL     1      44.202 -11.204   8.243  1.00  0.00     0.153 A 
HETATM   13  O   UNL     1      45.405 -10.762   8.692  1.00  0.00    -0.334 OA
HETATM   14  C   UNL     1      46.249 -10.770   7.629  1.00  0.00     0.142 A 
HETATM   15  C   UNL     1      45.597 -11.216   6.503  1.00  0.00     0.038 A 
ENDBRANCH   7  11
ENDBRANCH   2   5
BRANCH   1  16
HETATM   16  C   UNL     1      43.341 -17.062   3.701  1.00  0.00     0.126 A 
HETATM   17  N   UNL     1      43.020 -17.445   2.425  1.00  0.00    -0.262 N 
HETATM   18  N   UNL     1      43.184 -18.762   2.202  1.00  0.00    -0.178 NA
HETATM   19  H   UNL     1      42.675 -16.842   1.680  1.00  0.00     0.191 HD
HETATM   20  C   UNL     1      43.630 -19.233   3.373  1.00  0.00     0.058 A 
HETATM   21  C   UNL     1      43.751 -18.205   4.341  1.00  0.00     0.079 A 
BRANCH  20  22
HETATM   22  C   UNL     1      43.933 -20.683   3.539  1.00  0.00     0.056 C 
HETATM   23  C   UNL     1      43.880 -21.124   4.994  1.00  0.00     0.011 C 
ENDBRANCH  20  22
ENDBRANCH   1  16
TORSDOF 4
ENDMDL
MODEL 4
REMARK VINA RESULT:      -7.0      2.656      8.712
REMARK  4 active torsions:
REMARK  status: ('A' for Active; 'I' for Inactive)
REMARK    1  A    between atoms: C_2  and  C_3 
REMARK    2  A    between atoms: C_7  and  N_8 
REMARK       I    between atoms: N_8  and  C_9 
REMARK    3  A    between atoms: C_9  and  C_10 
REMARK    4  A    between atoms: C_12  and  C_13 
ROOT
HETATM    1  N   UNL     1      43.616 -12.891   6.529  1.00  0.00    -0.308 N 
HETATM    2  C   UNL     1      44.284 -11.727   6.183  1.00  0.00     0.257 C 
HETATM    3  O   UNL     1      44.435 -11.323   5.032  1.00  0.00    -0.267 OA
HETATM    4  H   UNL     1      43.455 -13.127   7.499  1.00  0.00     0.170 HD
ENDROOT
BRANCH   2   5
HETATM    5  C   UNL     1      44.807 -10.918   7.320  1.00  0.00     0.033 A 
HETATM    6  C   UNL     1      44.113 -10.806   8.534  1.00  0.00     0.029 A 
HETATM    7  C   UNL     1      44.622 -10.005   9.567  1.00  0.00    -0.023 A 
HETATM    8  C   UNL     1      45.836  -9.333   9.377  1.00  0.00     0.012 A 
HETATM    9  C   UNL     1      46.543  -9.468   8.181  1.00  0.00     0.002 A 
HETATM   10  C   UNL     1      46.032 -10.262   7.155  1.00  0.00     0.017 A 
BRANCH   7  11
HETATM   11  C   UNL     1      43.897  -9.852  10.816  1.00  0.00    -0.002 A 
HETATM   12  C   UNL     1      43.506 -10.897  11.628  1.00  0.00     0.153 A 
HETATM   13  O   UNL     1      42.845 -10.437  12.721  1.00  0.00    -0.334 OA
HETATM   14  C   UNL     1      42.817  -9.084  12.624  1.00  0.00     0.142 A 
HETATM   15  C   UNL     1      43.456  -8.673  11.477  1.00  0.00     0.038 A 
ENDBRANCH   7  11
ENDBRANCH   2   5
BRANCH   1  16
HETATM   16  C   UNL     1      43.054 -13.715   5.575  1.00  0.00     0.126 A 
HETATM   17  N   UNL     1      42.204 -13.294   4.586  1.00  0.00    -0.262 N 
HETATM   18  N   UNL     1      41.770 -14.289   3.790  1.00  0.00    -0.178 NA
HETATM   19  H   UNL     1      41.885 -12.340   4.427  1.00  0.00     0.191 HD
HETATM   20  C   UNL     1      42.369 -15.380   4.284  1.00  0.00     0.058 A 
HETATM   21  C   UNL     1      43.189 -15.070   5.398  1.00  0.00     0.079 A 
BRANCH  20  22
HETATM   22  C   UNL     1      42.136 -16.716   3.665  1.00  0.00     0.056 C 
HETATM   23  C   UNL     1      43.432 -17.471   3.411  1.00  0.00     0.011 C 
ENDBRANCH  20  22
ENDBRANCH   1  16
TORSDOF 4
ENDMDL
MODEL 5
REMARK VINA RESULT:      -6.9     22.550     24.336
REMARK  4 active torsions:
REMARK  status: ('A' for Active; 'I' for Inactive)
REMARK    1  A    between atoms: C_2  and  C_3 
REMARK    2  A    between atoms: C_7  and  N_8 
REMARK       I    between atoms: N_8  and  C_9 
REMARK    3  A    between atoms: C_9  and  C_10 
REMARK    4  A    between atoms: C_12  and  C_13 
ROOT
HETATM    1  N   UNL     1      31.407 -32.637  13.129  1.00  0.00    -0.308 N 
HETATM    2  C   UNL     1      30.542 -32.421  14.190  1.00  0.00     0.257 C 
HETATM    3  O   UNL     1      29.418 -32.910  14.287  1.00  0.00    -0.267 OA
HETATM    4  H   UNL     1      32.349 -32.271  13.146  1.00  0.00     0.170 HD
ENDROOT
BRANCH   2   5
HETATM    5  C   UNL     1      31.066 -31.561  15.287  1.00  0.00     0.033 A 
HETATM    6  C   UNL     1      32.413 -31.590  15.677  1.00  0.00     0.029 A 
HETATM    7  C   UNL     1      32.860 -30.791  16.739  1.00  0.00    -0.023 A 
HETATM    8  C   UNL     1      31.948 -29.952  17.394  1.00  0.00     0.012 A 
HETATM    9  C   UNL     1      30.613 -29.898  16.988  1.00  0.00     0.002 A 
HETATM   10  C   UNL     1      30.174 -30.698  15.933  1.00  0.00     0.017 A 
BRANCH   7  11
HETATM   11  C   UNL     1      34.243 -30.837  17.177  1.00  0.00    -0.002 A 
HETATM   12  C   UNL     1      35.237 -31.567  16.556  1.00  0.00     0.153 A 
HETATM   13  O   UNL     1      36.423 -31.411  17.199  1.00  0.00    -0.334 OA
HETATM   14  C   UNL     1      36.200 -30.566  18.237  1.00  0.00     0.142 A 
HETATM   15  C   UNL     1      34.881 -30.178  18.264  1.00  0.00     0.038 A 
ENDBRANCH   7  11
ENDBRANCH   2   5
BRANCH   1  16
HETATM   16  C   UNL     1      31.059 -33.442  12.062  1.00  0.00     0.126 A 
HETATM   17  N   UNL     1      29.837 -33.425  11.441  1.00  0.00    -0.262 N 
HETATM   18  N   UNL     1      29.731 -34.317  10.439  1.00  0.00    -0.178 NA
HETATM   19  H   UNL     1      29.046 -32.830  11.678  1.00  0.00     0.191 HD
HETATM   20  C   UNL     1      30.928 -34.918  10.416  1.00  0.00     0.058 A 
HETATM   21  C   UNL     1      31.796 -34.398  11.409  1.00  0.00     0.079 A 
BRANCH  20  22
HETATM   22  C   UNL     1      31.214 -35.995   9.425  1.00  0.00     0.056 C 
HETATM   23  C   UNL     1      32.705 -36.175   9.180  1.00  0.00     0.011 C 
ENDBRANCH  20  22
ENDBRANCH   1  16
TORSDOF 4
ENDMDL
MODEL 6
REMARK VINA RESULT:      -6.8      2.972      9.050
REMARK  4 active torsions:
REMARK  status: ('A' for Active; 'I' for Inactive)
REMARK    1  A    between atoms: C_2  and  C_3 
REMARK    2  A    between atoms: C_7  and  N_8 
REMARK       I    between atoms: N_8  and  C_9 
REMARK    3  A    between atoms: C_9  and  C_10 
REMARK    4  A    between atoms: C_12  and  C_13 
ROOT
HETATM    1  N   UNL     1      43.449 -13.004   7.450  1.00  0.00    -0.308 N 
HETATM    2  C   UNL     1      44.305 -12.020   6.981  1.00  0.00     0.257 C 
HETATM    3  O   UNL     1      44.757 -11.974   5.839  1.00  0.00    -0.267 OA
HETATM    4  H   UNL     1      43.046 -12.942   8.376  1.00  0.00     0.170 HD
ENDROOT
BRANCH   2   5
HETATM    5  C   UNL     1      44.644 -10.941   7.951  1.00  0.00     0.033 A 
HETATM    6  C   UNL     1      43.863 -10.691   9.088  1.00  0.00     0.029 A 
HETATM    7  C   UNL     1      44.195  -9.641   9.957  1.00  0.00    -0.023 A 
HETATM    8  C   UNL     1      45.324  -8.858   9.683  1.00  0.00     0.012 A 
HETATM    9  C   UNL     1      46.121  -9.125   8.568  1.00  0.00     0.002 A 
HETATM   10  C   UNL     1      45.783 -10.167   7.705  1.00  0.00     0.017 A 
BRANCH   7  11
HETATM   11  C   UNL     1      43.376  -9.348  11.120  1.00  0.00    -0.002 A 
HETATM   12  C   UNL     1      42.148  -9.924  11.377  1.00  0.00     0.153 A 
HETATM   13  O   UNL     1      41.626  -9.447  12.537  1.00  0.00    -0.334 OA
HETATM   14  C   UNL     1      42.526  -8.565  13.041  1.00  0.00     0.142 A 
HETATM   15  C   UNL     1      43.621  -8.473  12.213  1.00  0.00     0.038 A 
ENDBRANCH   7  11
ENDBRANCH   2   5
BRANCH   1  16
HETATM   16  C   UNL     1      43.028 -14.044   6.646  1.00  0.00     0.126 A 
HETATM   17  N   UNL     1      43.820 -15.090   6.249  1.00  0.00    -0.262 N 
HETATM   18  N   UNL     1      43.189 -15.968   5.448  1.00  0.00    -0.178 NA
HETATM   19  H   UNL     1      44.798 -15.235   6.493  1.00  0.00     0.191 HD
HETATM   20  C   UNL     1      41.952 -15.469   5.335  1.00  0.00     0.058 A 
HETATM   21  C   UNL     1      41.800 -14.269   6.073  1.00  0.00     0.079 A 
BRANCH  20  22
HETATM   22  C   UNL     1      40.927 -16.168   4.508  1.00  0.00     0.056 C 
HETATM   23  C   UNL     1      41.461 -16.568   3.140  1.00  0.00     0.011 C 
ENDBRANCH  20  22
ENDBRANCH   1  16
TORSDOF 4
ENDMDL
MODEL 7
REMARK VINA RESULT:      -6.7      3.283      3.970
REMARK  4 active torsions:
REMARK  status: ('A' for Active; 'I' for Inactive)
REMARK    1  A    between atoms: C_2  and  C_3 
REMARK    2  A    between atoms: C_7  and  N_8 
REMARK       I    between atoms: N_8  and  C_9 
REMARK    3  A    between atoms: C_9  and  C_10 
REMARK    4  A    between atoms: C_12  and  C_13 
ROOT
HETATM    1  N   UNL     1      41.363 -13.484   4.961  1.00  0.00    -0.308 N 
HETATM    2  C   UNL     1      41.734 -14.372   3.964  1.00  0.00     0.257 C 
HETATM    3  O   UNL     1      41.417 -14.269   2.781  1.00  0.00    -0.267 OA
HETATM    4  H   UNL     1      41.723 -13.580   5.901  1.00  0.00     0.170 HD
ENDROOT
BRANCH   2   5
HETATM    5  C   UNL     1      42.613 -15.496   4.394  1.00  0.00     0.033 A 
HETATM    6  C   UNL     1      42.716 -16.684   3.655  1.00  0.00     0.029 A 
HETATM    7  C   UNL     1      43.526 -17.734   4.113  1.00  0.00    -0.023 A 
HETATM    8  C   UNL     1      44.242 -17.573   5.307  1.00  0.00     0.012 A 
HETATM    9  C   UNL     1      44.165 -16.380   6.028  1.00  0.00     0.002 A 
HETATM   10  C   UNL     1      43.355 -15.342   5.570  1.00  0.00     0.017 A 
BRANCH   7  11
HETATM   11  C   UNL     1      43.615 -18.982   3.378  1.00  0.00    -0.002 A 
HETATM   12  C   UNL     1      44.018 -20.184   3.922  1.00  0.00     0.153 A 
HETATM   13  O   UNL     1      44.001 -21.168   2.985  1.00  0.00    -0.334 OA
HETATM   14  C   UNL     1      43.573 -20.602   1.828  1.00  0.00     0.142 A 
HETATM   15  C   UNL     1      43.315 -19.264   2.016  1.00  0.00     0.038 A 
ENDBRANCH   7  11
ENDBRANCH   2   5
BRANCH   1  16
HETATM   16  C   UNL     1      40.577 -12.380   4.693  1.00  0.00     0.126 A 
HETATM   17  N   UNL     1      39.565 -12.352   3.770  1.00  0.00    -0.262 N 
HETATM   18  N   UNL     1      38.959 -11.154   3.674  1.00  0.00    -0.178 NA
HETATM   19  H   UNL     1      39.265 -13.122   3.176  1.00  0.00     0.191 HD
HETATM   20  C   UNL     1      39.601 -10.396   4.571  1.00  0.00     0.058 A 
HETATM   21  C   UNL     1      40.619 -11.122   5.240  1.00  0.00     0.079 A 
BRANCH  20  22
HETATM   22  C   UNL     1      39.218  -8.969   4.769  1.00  0.00     0.056 C 
HETATM   23  C   UNL     1      39.365  -8.524   6.216  1.00  0.00     0.011 C 
ENDBRANCH  20  22
ENDBRANCH   1  16
TORSDOF 4
ENDMDL
MODEL 8
REMARK VINA RESULT:      -6.7      3.937      6.493
REMARK  4 active torsions:
REMARK  status: ('A' for Active; 'I' for Inactive)
REMARK    1  A    between atoms: C_2  and  C_3 
REMARK    2  A    between atoms: C_7  and  N_8 
REMARK       I    between atoms: N_8  and  C_9 
REMARK    3  A    between atoms: C_9  and  C_10 
REMARK    4  A    between atoms: C_12  and  C_13 
ROOT
HETATM    1  N   UNL     1      42.676  -9.779   9.986  1.00  0.00    -0.308 N 
HETATM    2  C   UNL     1      43.767 -10.633   9.992  1.00  0.00     0.257 C 
HETATM    3  O   UNL     1      44.178 -11.235  10.982  1.00  0.00    -0.267 OA
HETATM    4  H   UNL     1      42.338  -9.377   9.122  1.00  0.00     0.170 HD
ENDROOT
BRANCH   2   5
HETATM    5  C   UNL     1      44.436 -10.837   8.677  1.00  0.00     0.033 A 
HETATM    6  C   UNL     1      43.751 -11.345   7.564  1.00  0.00     0.029 A 
HETATM    7  C   UNL     1      44.426 -11.557   6.353  1.00  0.00    -0.023 A 
HETATM    8  C   UNL     1      45.788 -11.241   6.266  1.00  0.00     0.012 A 
HETATM    9  C   UNL     1      46.466 -10.707   7.363  1.00  0.00     0.002 A 
HETATM   10  C   UNL     1      45.790 -10.502   8.566  1.00  0.00     0.017 A 
BRANCH   7  11
HETATM   11  C   UNL     1      43.737 -12.114   5.203  1.00  0.00    -0.002 A 
HETATM   12  C   UNL     1      43.604 -11.478   3.986  1.00  0.00     0.153 A 
HETATM   13  O   UNL     1      42.908 -12.250   3.112  1.00  0.00    -0.334 OA
HETATM   14  C   UNL     1      42.597 -13.399   3.762  1.00  0.00     0.142 A 
HETATM   15  C   UNL     1      43.089 -13.371   5.047  1.00  0.00     0.038 A 
ENDBRANCH   7  11
ENDBRANCH   2   5
BRANCH   1  16
HETATM   16  C   UNL     1      41.945  -9.528  11.130  1.00  0.00     0.126 A 
HETATM   17  N   UNL     1      40.965 -10.349  11.624  1.00  0.00    -0.262 N 
HETATM   18  N   UNL     1      40.381  -9.878  12.740  1.00  0.00    -0.178 NA
HETATM   19  H   UNL     1      40.657 -11.233  11.222  1.00  0.00     0.191 HD
HETATM   20  C   UNL     1      41.013  -8.720  12.970  1.00  0.00     0.058 A 
HETATM   21  C   UNL     1      42.007  -8.461  11.992  1.00  0.00     0.079 A 
BRANCH  20  22
HETATM   22  C   UNL     1      40.643  -7.875  14.141  1.00  0.00     0.056 C 
HETATM   23  C   UNL     1      41.398  -8.269  15.402  1.00  0.00     0.011 C 
ENDBRANCH  20  22
ENDBRANCH   1  16
TORSDOF 4
ENDMDL
MODEL 9
REMARK VINA RESULT:      -6.6     15.819     16.800
REMARK  4 active torsions:
REMARK  status: ('A' for Active; 'I' for Inactive)
REMARK    1  A    between atoms: C_2  and  C_3 
REMARK    2  A    between atoms: C_7  and  N_8 
REMARK       I    between atoms: N_8  and  C_9 
REMARK    3  A    between atoms: C_9  and  C_10 
REMARK    4  A    between atoms: C_12  and  C_13 
ROOT
HETATM    1  N   UNL     1      47.798 -30.253   2.233  1.00  0.00    -0.308 N 
HETATM    2  C   UNL     1      47.148 -29.052   1.995  1.00  0.00     0.257 C 
HETATM    3  O   UNL     1      47.563 -27.951   2.348  1.00  0.00    -0.267 OA
HETATM    4  H   UNL     1      47.447 -31.118   1.846  1.00  0.00     0.170 HD
ENDROOT
BRANCH   2   5
HETATM    5  C   UNL     1      45.880 -29.146   1.218  1.00  0.00     0.033 A 
HETATM    6  C   UNL     1      45.860 -29.089  -0.183  1.00  0.00     0.029 A 
HETATM    7  C   UNL     1      44.641 -29.144  -0.875  1.00  0.00    -0.023 A 
HETATM    8  C   UNL     1      43.449 -29.272  -0.151  1.00  0.00     0.012 A 
HETATM    9  C   UNL     1      43.469 -29.360   1.242  1.00  0.00     0.002 A 
HETATM   10  C   UNL     1      44.683 -29.301   1.926  1.00  0.00     0.017 A 
BRANCH   7  11
HETATM   11  C   UNL     1      44.602 -29.051  -2.324  1.00  0.00    -0.002 A 
HETATM   12  C   UNL     1      45.245 -28.079  -3.063  1.00  0.00     0.153 A 
HETATM   13  O   UNL     1      45.018 -28.255  -4.391  1.00  0.00    -0.334 OA
HETATM   14  C   UNL     1      44.232 -29.353  -4.514  1.00  0.00     0.142 A 
HETATM   15  C   UNL     1      43.954 -29.884  -3.276  1.00  0.00     0.038 A 
ENDBRANCH   7  11
ENDBRANCH   2   5
BRANCH   1  16
HETATM   16  C   UNL     1      48.999 -30.305   2.912  1.00  0.00     0.126 A 
HETATM   17  N   UNL     1      50.191 -29.836   2.423  1.00  0.00    -0.262 N 
HETATM   18  N   UNL     1      51.226 -30.020   3.263  1.00  0.00    -0.178 NA
HETATM   19  H   UNL     1      50.342 -29.395   1.518  1.00  0.00     0.191 HD
HETATM   20  C   UNL     1      50.676 -30.621   4.325  1.00  0.00     0.058 A 
HETATM   21  C   UNL     1      49.282 -30.815   4.155  1.00  0.00     0.079 A 
BRANCH  20  22
HETATM   22  C   UNL     1      51.515 -31.002   5.497  1.00  0.00     0.056 C 
HETATM   23  C   UNL     1      51.810 -32.494   5.537  1.00  0.00     0.011 C 
ENDBRANCH  20  22
ENDBRANCH   1  16
TORSDOF 4
ENDMDL
MODEL 10
REMARK VINA RESULT:      -6.5      3.786      8.142
REMARK  4 active torsions:
REMARK  status: ('A' for Active; 'I' for Inactive)
REMARK    1  A    between atoms: C_2  and  C_3 
REMARK    2  A    between atoms: C_7  and  N_8 
REMARK       I    between atoms: N_8  and  C_9 
REMARK    3  A    between atoms: C_9  and  C_10 
REMARK    4  A    between atoms: C_12  and  C_13 
ROOT
HETATM    1  N   UNL     1      43.383 -15.519   3.920  1.00  0.00    -0.308 N 
HETATM    2  C   UNL     1      42.118 -14.963   4.026  1.00  0.00     0.257 C 
HETATM    3  O   UNL     1      41.086 -15.603   4.214  1.00  0.00    -0.267 OA
HETATM    4  H   UNL     1      44.203 -14.931   3.846  1.00  0.00     0.170 HD
ENDROOT
BRANCH   2   5
HETATM    5  C   UNL     1      42.055 -13.476   3.940  1.00  0.00     0.033 A 
HETATM    6  C   UNL     1      40.962 -12.748   4.431  1.00  0.00     0.029 A 
HETATM    7  C   UNL     1      40.925 -11.352   4.298  1.00  0.00    -0.023 A 
HETATM    8  C   UNL     1      41.999 -10.696   3.684  1.00  0.00     0.012 A 
HETATM    9  C   UNL     1      43.102 -11.415   3.222  1.00  0.00     0.002 A 
HETATM   10  C   UNL     1      43.132 -12.804   3.353  1.00  0.00     0.017 A 
BRANCH   7  11
HETATM   11  C   UNL     1      39.784 -10.589   4.770  1.00  0.00    -0.002 A 
HETATM   12  C   UNL     1      38.932 -10.995   5.777  1.00  0.00     0.153 A 
HETATM   13  O   UNL     1      37.961 -10.070   5.989  1.00  0.00    -0.334 OA
HETATM   14  C   UNL     1      38.190  -9.052   5.122  1.00  0.00     0.142 A 
HETATM   15  C   UNL     1      39.301  -9.317   4.356  1.00  0.00     0.038 A 
ENDBRANCH   7  11
ENDBRANCH   2   5
BRANCH   1  16
HETATM   16  C   UNL     1      43.587 -16.881   4.015  1.00  0.00     0.126 A 
HETATM   17  N   UNL     1      43.967 -17.532   5.159  1.00  0.00    -0.262 N 
HETATM   18  N   UNL     1      44.123 -18.859   4.996  1.00  0.00    -0.178 NA
HETATM   19  H   UNL     1      44.143 -17.108   6.068  1.00  0.00     0.191 HD
HETATM   20  C   UNL     1      43.825 -19.061   3.706  1.00  0.00     0.058 A 
HETATM   21  C   UNL     1      43.476 -17.853   3.052  1.00  0.00     0.079 A 
BRANCH  20  22
HETATM   22  C   UNL     1      43.885 -20.432   3.122  1.00  0.00     0.056 C 
HETATM   23  C   UNL     1      43.478 -20.455   1.656  1.00  0.00     0.011 C 
ENDBRANCH  20  22
ENDBRANCH   1  16
TORSDOF 4
ENDMDL
