MODEL 1
REMARK VINA RESULT:      -8.0      0.000      0.000
REMARK  6 active torsions:
REMARK  status: ('A' for Active; 'I' for Inactive)
REMARK    1  A    between atoms: C_2  and  C_3 
REMARK    2  A    between atoms: C_3  and  N_4 
REMARK       I    between atoms: N_4  and  C_5 
REMARK    3  A    between atoms: C_5  and  C_6 
REMARK    4  A    between atoms: C_11  and  C_12 
REMARK    5  A    between atoms: C_15  and  O_16 
REMARK    6  A    between atoms: C_21  and  C_22 
ROOT
HETATM    1  C   UNL     1      42.400 -10.835   6.748  1.00  0.00     0.170 A 
HETATM    2  N   UNL     1      41.174 -11.222   6.311  1.00  0.00    -0.163 NA
HETATM    3  N   UNL     1      41.438 -12.279   5.527  1.00  0.00    -0.238 N 
HETATM    4  C   UNL     1      42.758 -12.629   5.477  1.00  0.00     0.145 A 
HETATM    5  N   UNL     1      43.166 -13.721   4.782  1.00  0.00    -0.365 N 
HETATM    6  C   UNL     1      42.251 -14.439   3.900  1.00  0.00     0.118 C 
HETATM    7  C   UNL     1      40.836 -14.423   4.506  1.00  0.00     0.066 C 
HETATM    8  C   UNL     1      40.382 -12.988   4.828  1.00  0.00     0.221 C 
HETATM    9  C   UNL     1      43.417 -11.696   6.245  1.00  0.00     0.115 A 
HETATM   10 CL   UNL     1      45.087 -11.619   6.534  1.00  0.00    -0.077 Cl
HETATM   11  H   UNL     1      44.161 -13.865   4.597  1.00  0.00     0.162 HD
ENDROOT
BRANCH   6  12
HETATM   12  C   UNL     1      42.718 -15.867   3.687  1.00  0.00    -0.035 A 
HETATM   13  C   UNL     1      42.438 -16.570   2.506  1.00  0.00     0.012 A 
HETATM   14  C   UNL     1      42.920 -17.869   2.322  1.00  0.00     0.037 A 
HETATM   15  C   UNL     1      43.698 -18.488   3.302  1.00  0.00     0.068 A 
HETATM   16  C   UNL     1      43.982 -17.798   4.479  1.00  0.00     0.037 A 
HETATM   17  C   UNL     1      43.498 -16.498   4.668  1.00  0.00     0.012 A 
BRANCH  15  18
HETATM   18  O   UNL     1      44.114 -19.752   2.989  1.00  0.00    -0.356 OA
HETATM   19  C   UNL     1      43.482 -20.382   1.882  1.00  0.00     0.210 C 
ENDBRANCH  15  18
ENDBRANCH   6  12
BRANCH   8  20
HETATM   20  C   UNL     1      39.982 -12.221   3.587  1.00  0.00     0.409 C 
HETATM   21  F   UNL     1      41.010 -11.546   3.029  1.00  0.00    -0.169 F 
HETATM   22  F   UNL     1      39.524 -13.081   2.640  1.00  0.00    -0.169 F 
HETATM   23  F   UNL     1      38.987 -11.339   3.817  1.00  0.00    -0.169 F 
ENDBRANCH   8  20
BRANCH   1  24
HETATM   24  C   UNL     1      42.547  -9.662   7.625  1.00  0.00     0.273 C 
HETATM   25  N   UNL     1      42.820 -10.001   8.934  1.00  0.00    -0.356 N 
HETATM   26  H   UNL     1      42.825 -10.998   9.136  1.00  0.00     0.162 HD
HETATM   27  O   UNL     1      42.431  -8.501   7.243  1.00  0.00    -0.266 OA
BRANCH  25  28
HETATM   28  C   UNL     1      42.913  -9.033  10.000  1.00  0.00     0.122 C 
BRANCH  28  29
HETATM   29  C   UNL     1      44.103  -9.316  10.911  1.00  0.00     0.015 C 
HETATM   30  C   UNL     1      45.339  -9.695  10.112  1.00  0.00     0.006 C 
ENDBRANCH  28  29
ENDBRANCH  25  28
ENDBRANCH   1  24
TORSDOF 6
ENDMDL
MODEL 2
REMARK VINA RESULT:      -7.7      3.401      4.380
REMARK  6 active torsions:
REMARK  status: ('A' for Active; 'I' for Inactive)
REMARK    1  A    between atoms: C_2  and  C_3 
REMARK    2  A    between atoms: C_3  and  N_4 
REMARK       I    between atoms: N_4  and  C_5 
REMARK    3  A    between atoms: C_5  and  C_6 
REMARK    4  A    between atoms: C_11  and  C_12 
REMARK    5  A    between atoms: C_15  and  O_16 
REMARK    6  A    between atoms: C_21  and  C_22 
ROOT
HETATM    1  C   UNL     1      43.797 -12.063   7.251  1.00  0.00     0.170 A 
HETATM    2  N   UNL     1      44.095 -13.382   7.125  1.00  0.00    -0.163 NA
HETATM    3  N   UNL     1      43.257 -13.803   6.164  1.00  0.00    -0.238 N 
HETATM    4  C   UNL     1      42.475 -12.820   5.626  1.00  0.00     0.145 A 
HETATM    5  N   UNL     1      41.632 -13.084   4.596  1.00  0.00    -0.365 N 
HETATM    6  C   UNL     1      41.375 -14.455   4.162  1.00  0.00     0.118 C 
HETATM    7  C   UNL     1      42.661 -15.289   4.309  1.00  0.00     0.066 C 
HETATM    8  C   UNL     1      43.232 -15.190   5.735  1.00  0.00     0.221 C 
HETATM    9  C   UNL     1      42.786 -11.676   6.325  1.00  0.00     0.115 A 
HETATM   10 CL   UNL     1      42.109 -10.137   6.101  1.00  0.00    -0.077 Cl
HETATM   11  H   UNL     1      40.924 -12.398   4.328  1.00  0.00     0.162 HD
ENDROOT
BRANCH   6  12
HETATM   12  C   UNL     1      40.888 -14.483   2.726  1.00  0.00    -0.035 A 
HETATM   13  C   UNL     1      41.055 -13.389   1.865  1.00  0.00     0.012 A 
HETATM   14  C   UNL     1      40.635 -13.462   0.534  1.00  0.00     0.037 A 
HETATM   15  C   UNL     1      40.054 -14.627   0.031  1.00  0.00     0.068 A 
HETATM   16  C   UNL     1      39.883 -15.721   0.879  1.00  0.00     0.037 A 
HETATM   17  C   UNL     1      40.299 -15.649   2.213  1.00  0.00     0.012 A 
BRANCH  15  18
HETATM   18  O   UNL     1      39.701 -14.568  -1.289  1.00  0.00    -0.356 OA
HETATM   19  C   UNL     1      38.740 -13.586  -1.654  1.00  0.00     0.210 C 
ENDBRANCH  15  18
ENDBRANCH   6  12
BRANCH   8  20
HETATM   20  C   UNL     1      42.445 -16.020   6.726  1.00  0.00     0.409 C 
HETATM   21  F   UNL     1      43.186 -16.432   7.776  1.00  0.00    -0.169 F 
HETATM   22  F   UNL     1      41.423 -15.284   7.237  1.00  0.00    -0.169 F 
HETATM   23  F   UNL     1      41.885 -17.112   6.162  1.00  0.00    -0.169 F 
ENDBRANCH   8  20
BRANCH   1  24
HETATM   24  C   UNL     1      44.489 -11.230   8.248  1.00  0.00     0.273 C 
HETATM   25  N   UNL     1      43.637 -10.714   9.202  1.00  0.00    -0.356 N 
HETATM   26  H   UNL     1      42.650 -10.921   9.065  1.00  0.00     0.162 HD
HETATM   27  O   UNL     1      45.695 -11.004   8.234  1.00  0.00    -0.266 OA
BRANCH  25  28
HETATM   28  C   UNL     1      44.061  -9.793  10.228  1.00  0.00     0.122 C 
BRANCH  28  29
HETATM   29  C   UNL     1      43.267  -9.986  11.517  1.00  0.00     0.015 C 
HETATM   30  C   UNL     1      43.237  -8.713  12.348  1.00  0.00     0.006 C 
ENDBRANCH  28  29
ENDBRANCH  25  28
ENDBRANCH   1  24
TORSDOF 6
ENDMDL
MODEL 3
REMARK VINA RESULT:      -7.7      4.431      8.252
REMARK  6 active torsions:
REMARK  status: ('A' for Active; 'I' for Inactive)
REMARK    1  A    between atoms: C_2  and  C_3 
REMARK    2  A    between atoms: C_3  and  N_4 
REMARK       I    between atoms: N_4  and  C_5 
REMARK    3  A    between atoms: C_5  and  C_6 
REMARK    4  A    between atoms: C_11  and  C_12 
REMARK    5  A    between atoms: C_15  and  O_16 
REMARK    6  A    between atoms: C_21  and  C_22 
ROOT
HETATM    1  C   UNL     1      40.104 -14.279   0.032  1.00  0.00     0.170 A 
HETATM    2  N   UNL     1      40.187 -15.409   0.782  1.00  0.00    -0.163 NA
HETATM    3  N   UNL     1      41.043 -15.076   1.760  1.00  0.00    -0.238 N 
HETATM    4  C   UNL     1      41.474 -13.780   1.716  1.00  0.00     0.145 A 
HETATM    5  N   UNL     1      42.287 -13.280   2.682  1.00  0.00    -0.365 N 
HETATM    6  C   UNL     1      42.894 -14.152   3.683  1.00  0.00     0.118 C 
HETATM    7  C   UNL     1      41.912 -15.283   4.042  1.00  0.00     0.066 C 
HETATM    8  C   UNL     1      41.434 -16.028   2.783  1.00  0.00     0.221 C 
HETATM    9  C   UNL     1      40.898 -13.237   0.590  1.00  0.00     0.115 A 
HETATM   10 CL   UNL     1      41.092 -11.651   0.018  1.00  0.00    -0.077 Cl
HETATM   11  H   UNL     1      42.750 -12.380   2.543  1.00  0.00     0.162 HD
ENDROOT
BRANCH   6  12
HETATM   12  C   UNL     1      43.270 -13.366   4.925  1.00  0.00    -0.035 A 
HETATM   13  C   UNL     1      43.235 -13.939   6.204  1.00  0.00     0.012 A 
HETATM   14  C   UNL     1      43.630 -13.202   7.323  1.00  0.00     0.037 A 
HETATM   15  C   UNL     1      44.079 -11.887   7.191  1.00  0.00     0.068 A 
HETATM   16  C   UNL     1      44.119 -11.308   5.924  1.00  0.00     0.037 A 
HETATM   17  C   UNL     1      43.720 -12.043   4.801  1.00  0.00     0.012 A 
BRANCH  15  18
HETATM   18  O   UNL     1      44.447 -11.286   8.363  1.00  0.00    -0.356 OA
HETATM   19  C   UNL     1      45.525 -10.361   8.301  1.00  0.00     0.210 C 
ENDBRANCH  15  18
ENDBRANCH   6  12
BRANCH   8  20
HETATM   20  C   UNL     1      42.489 -16.965   2.237  1.00  0.00     0.409 C 
HETATM   21  F   UNL     1      41.994 -18.169   1.881  1.00  0.00    -0.169 F 
HETATM   22  F   UNL     1      43.049 -16.429   1.120  1.00  0.00    -0.169 F 
HETATM   23  F   UNL     1      43.500 -17.176   3.107  1.00  0.00    -0.169 F 
ENDBRANCH   8  20
BRANCH   1  24
HETATM   24  C   UNL     1      39.272 -14.244  -1.181  1.00  0.00     0.273 C 
HETATM   25  N   UNL     1      38.362 -13.207  -1.179  1.00  0.00    -0.356 N 
HETATM   26  H   UNL     1      38.341 -12.645  -0.330  1.00  0.00     0.162 HD
HETATM   27  O   UNL     1      39.363 -15.053  -2.099  1.00  0.00    -0.266 OA
BRANCH  25  28
HETATM   28  C   UNL     1      37.373 -13.018  -2.212  1.00  0.00     0.122 C 
BRANCH  28  29
HETATM   29  C   UNL     1      37.190 -11.542  -2.550  1.00  0.00     0.015 C 
HETATM   30  C   UNL     1      38.501 -10.901  -2.976  1.00  0.00     0.006 C 
ENDBRANCH  28  29
ENDBRANCH  25  28
ENDBRANCH   1  24
TORSDOF 6
ENDMDL
MODEL 4
REMARK VINA RESULT:      -7.5      2.311      7.915
REMARK  6 active torsions:
REMARK  status: ('A' for Active; 'I' for Inactive)
REMARK    1  A    between atoms: C_2  and  C_3 
REMARK    2  A    between atoms: C_3  and  N_4 
REMARK       I    between atoms: N_4  and  C_5 
REMARK    3  A    between atoms: C_5  and  C_6 
REMARK    4  A    between atoms: C_11  and  C_12 
REMARK    5  A    between atoms: C_15  and  O_16 
REMARK    6  A    between atoms: C_21  and  C_22 
ROOT
HETATM    1  C   UNL     1      42.943 -16.410   3.302  1.00  0.00     0.170 A 
HETATM    2  N   UNL     1      43.110 -15.348   2.471  1.00  0.00    -0.163 NA
HETATM    3  N   UNL     1      43.123 -14.295   3.304  1.00  0.00    -0.238 N 
HETATM    4  C   UNL     1      43.030 -14.622   4.628  1.00  0.00     0.145 A 
HETATM    5  N   UNL     1      43.103 -13.667   5.590  1.00  0.00    -0.365 N 
HETATM    6  C   UNL     1      43.075 -12.248   5.249  1.00  0.00     0.118 C 
HETATM    7  C   UNL     1      43.815 -12.027   3.917  1.00  0.00     0.066 C 
HETATM    8  C   UNL     1      43.258 -12.938   2.809  1.00  0.00     0.221 C 
HETATM    9  C   UNL     1      42.890 -15.991   4.662  1.00  0.00     0.115 A 
HETATM   10 CL   UNL     1      42.714 -16.957   6.046  1.00  0.00    -0.077 Cl
HETATM   11  H   UNL     1      42.846 -13.894   6.553  1.00  0.00     0.162 HD
ENDROOT
BRANCH   6  12
HETATM   12  C   UNL     1      43.708 -11.417   6.349  1.00  0.00    -0.035 A 
HETATM   13  C   UNL     1      42.963 -10.507   7.112  1.00  0.00     0.012 A 
HETATM   14  C   UNL     1      43.566  -9.789   8.149  1.00  0.00     0.037 A 
HETATM   15  C   UNL     1      44.916  -9.971   8.453  1.00  0.00     0.068 A 
HETATM   16  C   UNL     1      45.665 -10.873   7.700  1.00  0.00     0.037 A 
HETATM   17  C   UNL     1      45.066 -11.592   6.659  1.00  0.00     0.012 A 
BRANCH  15  18
HETATM   18  O   UNL     1      45.375  -9.215   9.497  1.00  0.00    -0.356 OA
HETATM   19  C   UNL     1      44.685  -9.341  10.734  1.00  0.00     0.210 C 
ENDBRANCH  15  18
ENDBRANCH   6  12
BRANCH   8  20
HETATM   20  C   UNL     1      41.927 -12.449   2.281  1.00  0.00     0.409 C 
HETATM   21  F   UNL     1      41.801 -11.106   2.329  1.00  0.00    -0.169 F 
HETATM   22  F   UNL     1      41.787 -12.806   0.978  1.00  0.00    -0.169 F 
HETATM   23  F   UNL     1      40.877 -12.985   2.940  1.00  0.00    -0.169 F 
ENDBRANCH   8  20
BRANCH   1  24
HETATM   24  C   UNL     1      42.842 -17.775   2.762  1.00  0.00     0.273 C 
HETATM   25  N   UNL     1      43.822 -18.618   3.245  1.00  0.00    -0.356 N 
HETATM   26  H   UNL     1      44.512 -18.183   3.854  1.00  0.00     0.162 HD
HETATM   27  O   UNL     1      41.987 -18.133   1.958  1.00  0.00    -0.266 OA
BRANCH  25  28
HETATM   28  C   UNL     1      43.991 -19.977   2.793  1.00  0.00     0.122 C 
BRANCH  28  29
HETATM   29  C   UNL     1      43.931 -20.965   3.954  1.00  0.00     0.015 C 
HETATM   30  C   UNL     1      44.089 -20.262   5.292  1.00  0.00     0.006 C 
ENDBRANCH  28  29
ENDBRANCH  25  28
ENDBRANCH   1  24
TORSDOF 6
ENDMDL
MODEL 5
REMARK VINA RESULT:      -7.2      3.251      3.824
REMARK  6 active torsions:
REMARK  status: ('A' for Active; 'I' for Inactive)
REMARK    1  A    between atoms: C_2  and  C_3 
REMARK    2  A    between atoms: C_3  and  N_4 
REMARK       I    between atoms: N_4  and  C_5 
REMARK    3  A    between atoms: C_5  and  C_6 
REMARK    4  A    between atoms: C_11  and  C_12 
REMARK    5  A    between atoms: C_15  and  O_16 
REMARK    6  A    between atoms: C_21  and  C_22 
ROOT
HETATM    1  C   UNL     1      41.001 -11.094   3.292  1.00  0.00     0.170 A 
HETATM    2  N   UNL     1      40.058 -11.887   2.721  1.00  0.00    -0.163 NA
HETATM    3  N   UNL     1      40.675 -13.073   2.599  1.00  0.00    -0.238 N 
HETATM    4  C   UNL     1      41.942 -13.106   3.109  1.00  0.00     0.145 A 
HETATM    5  N   UNL     1      42.661 -14.257   3.121  1.00  0.00    -0.365 N 
HETATM    6  C   UNL     1      42.197 -15.445   2.411  1.00  0.00     0.118 C 
HETATM    7  C   UNL     1      40.661 -15.520   2.489  1.00  0.00     0.066 C 
HETATM    8  C   UNL     1      40.010 -14.215   1.998  1.00  0.00     0.221 C 
HETATM    9  C   UNL     1      42.195 -11.826   3.551  1.00  0.00     0.115 A 
HETATM   10 CL   UNL     1      43.628 -11.268   4.267  1.00  0.00    -0.077 Cl
HETATM   11  H   UNL     1      43.662 -14.230   3.328  1.00  0.00     0.162 HD
ENDROOT
BRANCH   6  12
HETATM   12  C   UNL     1      42.818 -16.699   2.996  1.00  0.00    -0.035 A 
HETATM   13  C   UNL     1      42.991 -17.865   2.236  1.00  0.00     0.012 A 
HETATM   14  C   UNL     1      43.607 -18.989   2.791  1.00  0.00     0.037 A 
HETATM   15  C   UNL     1      44.073 -18.972   4.106  1.00  0.00     0.068 A 
HETATM   16  C   UNL     1      43.906 -17.819   4.871  1.00  0.00     0.037 A 
HETATM   17  C   UNL     1      43.286 -16.692   4.319  1.00  0.00     0.012 A 
BRANCH  15  18
HETATM   18  O   UNL     1      44.666 -20.134   4.519  1.00  0.00    -0.356 OA
HETATM   19  C   UNL     1      43.952 -20.918   5.467  1.00  0.00     0.210 C 
ENDBRANCH  15  18
ENDBRANCH   6  12
BRANCH   8  20
HETATM   20  C   UNL     1      40.041 -14.092   0.490  1.00  0.00     0.409 C 
HETATM   21  F   UNL     1      39.082 -13.275   0.007  1.00  0.00    -0.169 F 
HETATM   22  F   UNL     1      41.232 -13.571   0.093  1.00  0.00    -0.169 F 
HETATM   23  F   UNL     1      39.919 -15.284  -0.133  1.00  0.00    -0.169 F 
ENDBRANCH   8  20
BRANCH   1  24
HETATM   24  C   UNL     1      40.722  -9.676   3.567  1.00  0.00     0.273 C 
HETATM   25  N   UNL     1      40.601  -9.403   4.914  1.00  0.00    -0.356 N 
HETATM   26  H   UNL     1      40.659 -10.210   5.531  1.00  0.00     0.162 HD
HETATM   27  O   UNL     1      40.598  -8.820   2.696  1.00  0.00    -0.266 OA
BRANCH  25  28
HETATM   28  C   UNL     1      40.235  -8.106   5.429  1.00  0.00     0.122 C 
BRANCH  28  29
HETATM   29  C   UNL     1      38.843  -8.124   6.053  1.00  0.00     0.015 C 
HETATM   30  C   UNL     1      37.761  -7.917   5.005  1.00  0.00     0.006 C 
ENDBRANCH  28  29
ENDBRANCH  25  28
ENDBRANCH   1  24
TORSDOF 6
ENDMDL
MODEL 6
REMARK VINA RESULT:      -7.2      6.026      9.083
REMARK  6 active torsions:
REMARK  status: ('A' for Active; 'I' for Inactive)
REMARK    1  A    between atoms: C_2  and  C_3 
REMARK    2  A    between atoms: C_3  and  N_4 
REMARK       I    between atoms: N_4  and  C_5 
REMARK    3  A    between atoms: C_5  and  C_6 
REMARK    4  A    between atoms: C_11  and  C_12 
REMARK    5  A    between atoms: C_15  and  O_16 
REMARK    6  A    between atoms: C_21  and  C_22 
ROOT
HETATM    1  C   UNL     1      40.768 -14.494   1.435  1.00  0.00     0.170 A 
HETATM    2  N   UNL     1      40.546 -14.882   0.152  1.00  0.00    -0.163 NA
HETATM    3  N   UNL     1      40.531 -13.726  -0.529  1.00  0.00    -0.238 N 
HETATM    4  C   UNL     1      40.785 -12.619   0.232  1.00  0.00     0.145 A 
HETATM    5  N   UNL     1      40.873 -11.388  -0.333  1.00  0.00    -0.365 N 
HETATM    6  C   UNL     1      40.499 -11.169  -1.727  1.00  0.00     0.118 C 
HETATM    7  C   UNL     1      40.883 -12.405  -2.562  1.00  0.00     0.066 C 
HETATM    8  C   UNL     1      40.292 -13.692  -1.960  1.00  0.00     0.221 C 
HETATM    9  C   UNL     1      40.924 -13.081   1.521  1.00  0.00     0.115 A 
HETATM   10 CL   UNL     1      41.235 -12.147   2.903  1.00  0.00    -0.077 Cl
HETATM   11  H   UNL     1      40.875 -10.555   0.259  1.00  0.00     0.162 HD
ENDROOT
BRANCH   6  12
HETATM   12  C   UNL     1      41.176  -9.928  -2.278  1.00  0.00    -0.035 A 
HETATM   13  C   UNL     1      40.891  -9.434  -3.558  1.00  0.00     0.012 A 
HETATM   14  C   UNL     1      41.499  -8.263  -4.019  1.00  0.00     0.037 A 
HETATM   15  C   UNL     1      42.392  -7.557  -3.213  1.00  0.00     0.068 A 
HETATM   16  C   UNL     1      42.684  -8.040  -1.938  1.00  0.00     0.037 A 
HETATM   17  C   UNL     1      42.079  -9.214  -1.474  1.00  0.00     0.012 A 
BRANCH  15  18
HETATM   18  O   UNL     1      42.905  -6.423  -3.782  1.00  0.00    -0.356 OA
HETATM   19  C   UNL     1      42.820  -6.320  -5.197  1.00  0.00     0.210 C 
ENDBRANCH  15  18
ENDBRANCH   6  12
BRANCH   8  20
HETATM   20  C   UNL     1      38.810 -13.825  -2.237  1.00  0.00     0.409 C 
HETATM   21  F   UNL     1      38.436 -13.248  -3.398  1.00  0.00    -0.169 F 
HETATM   22  F   UNL     1      38.473 -15.138  -2.328  1.00  0.00    -0.169 F 
HETATM   23  F   UNL     1      38.047 -13.302  -1.252  1.00  0.00    -0.169 F 
ENDBRANCH   8  20
BRANCH   1  24
HETATM   24  C   UNL     1      40.822 -15.487   2.520  1.00  0.00     0.273 C 
HETATM   25  N   UNL     1      42.111 -15.781   2.915  1.00  0.00    -0.356 N 
HETATM   26  H   UNL     1      42.848 -15.329   2.378  1.00  0.00     0.162 HD
HETATM   27  O   UNL     1      39.832 -16.012   3.019  1.00  0.00    -0.266 OA
BRANCH  25  28
HETATM   28  C   UNL     1      42.428 -16.792   3.894  1.00  0.00     0.122 C 
BRANCH  28  29
HETATM   29  C   UNL     1      43.507 -17.744   3.387  1.00  0.00     0.015 C 
HETATM   30  C   UNL     1      42.999 -18.602   2.240  1.00  0.00     0.006 C 
ENDBRANCH  28  29
ENDBRANCH  25  28
ENDBRANCH   1  24
TORSDOF 6
ENDMDL
MODEL 7
REMARK VINA RESULT:      -7.2      4.527      9.972
REMARK  6 active torsions:
REMARK  status: ('A' for Active; 'I' for Inactive)
REMARK    1  A    between atoms: C_2  and  C_3 
REMARK    2  A    between atoms: C_3  and  N_4 
REMARK       I    between atoms: N_4  and  C_5 
REMARK    3  A    between atoms: C_5  and  C_6 
REMARK    4  A    between atoms: C_11  and  C_12 
REMARK    5  A    between atoms: C_15  and  O_16 
REMARK    6  A    between atoms: C_21  and  C_22 
ROOT
HETATM    1  C   UNL     1      42.210 -10.279   6.792  1.00  0.00     0.170 A 
HETATM    2  N   UNL     1      43.350 -10.740   7.369  1.00  0.00    -0.163 NA
HETATM    3  N   UNL     1      43.364 -10.135   8.567  1.00  0.00    -0.238 N 
HETATM    4  C   UNL     1      42.271  -9.354   8.818  1.00  0.00     0.145 A 
HETATM    5  N   UNL     1      42.113  -8.737  10.017  1.00  0.00    -0.365 N 
HETATM    6  C   UNL     1      43.191  -8.715  11.002  1.00  0.00     0.118 C 
HETATM    7  C   UNL     1      43.971 -10.041  10.939  1.00  0.00     0.066 C 
HETATM    8  C   UNL     1      44.450 -10.340   9.508  1.00  0.00     0.221 C 
HETATM    9  C   UNL     1      41.508  -9.408   7.673  1.00  0.00     0.115 A 
HETATM   10 CL   UNL     1      40.035  -8.612   7.401  1.00  0.00    -0.077 Cl
HETATM   11  H   UNL     1      41.400  -8.014  10.128  1.00  0.00     0.162 HD
ENDROOT
BRANCH   6  12
HETATM   12  C   UNL     1      42.639  -8.492  12.397  1.00  0.00    -0.035 A 
HETATM   13  C   UNL     1      41.554  -9.229  12.893  1.00  0.00     0.012 A 
HETATM   14  C   UNL     1      41.099  -9.031  14.199  1.00  0.00     0.037 A 
HETATM   15  C   UNL     1      41.719  -8.106  15.040  1.00  0.00     0.068 A 
HETATM   16  C   UNL     1      42.799  -7.368  14.558  1.00  0.00     0.037 A 
HETATM   17  C   UNL     1      43.256  -7.561  13.249  1.00  0.00     0.012 A 
BRANCH  15  18
HETATM   18  O   UNL     1      41.181  -8.021  16.294  1.00  0.00    -0.356 OA
HETATM   19  C   UNL     1      41.790  -7.104  17.194  1.00  0.00     0.210 C 
ENDBRANCH  15  18
ENDBRANCH   6  12
BRANCH   8  20
HETATM   20  C   UNL     1      45.639  -9.491   9.113  1.00  0.00     0.409 C 
HETATM   21  F   UNL     1      45.284  -8.312   8.559  1.00  0.00    -0.169 F 
HETATM   22  F   UNL     1      46.382  -9.196  10.212  1.00  0.00    -0.169 F 
HETATM   23  F   UNL     1      46.465 -10.120   8.250  1.00  0.00    -0.169 F 
ENDBRANCH   8  20
BRANCH   1  24
HETATM   24  C   UNL     1      41.841 -10.690   5.428  1.00  0.00     0.273 C 
HETATM   25  N   UNL     1      42.936 -10.871   4.607  1.00  0.00    -0.356 N 
HETATM   26  H   UNL     1      43.837 -10.644   5.023  1.00  0.00     0.162 HD
HETATM   27  O   UNL     1      40.685 -10.846   5.048  1.00  0.00    -0.266 OA
BRANCH  25  28
HETATM   28  C   UNL     1      42.829 -11.181   3.202  1.00  0.00     0.122 C 
BRANCH  28  29
HETATM   29  C   UNL     1      43.142 -12.648   2.927  1.00  0.00     0.015 C 
HETATM   30  C   UNL     1      41.873 -13.475   2.801  1.00  0.00     0.006 C 
ENDBRANCH  28  29
ENDBRANCH  25  28
ENDBRANCH   1  24
TORSDOF 6
ENDMDL
MODEL 8
REMARK VINA RESULT:      -6.8      7.789     10.653
REMARK  6 active torsions:
REMARK  status: ('A' for Active; 'I' for Inactive)
REMARK    1  A    between atoms: C_2  and  C_3 
REMARK    2  A    between atoms: C_3  and  N_4 
REMARK       I    between atoms: N_4  and  C_5 
REMARK    3  A    between atoms: C_5  and  C_6 
REMARK    4  A    between atoms: C_11  and  C_12 
REMARK    5  A    between atoms: C_15  and  O_16 
REMARK    6  A    between atoms: C_21  and  C_22 
ROOT
HETATM    1  C   UNL     1      38.986  -5.490  13.253  1.00  0.00     0.170 A 
HETATM    2  N   UNL     1      39.913  -5.831  14.186  1.00  0.00    -0.163 NA
HETATM    3  N   UNL     1      40.772  -6.607  13.507  1.00  0.00    -0.238 N 
HETATM    4  C   UNL     1      40.484  -6.740  12.177  1.00  0.00     0.145 A 
HETATM    5  N   UNL     1      41.305  -7.436  11.350  1.00  0.00    -0.365 N 
HETATM    6  C   UNL     1      42.407  -8.235  11.878  1.00  0.00     0.118 C 
HETATM    7  C   UNL     1      43.006  -7.533  13.110  1.00  0.00     0.066 C 
HETATM    8  C   UNL     1      41.921  -7.213  14.154  1.00  0.00     0.221 C 
HETATM    9  C   UNL     1      39.313  -6.042  11.982  1.00  0.00     0.115 A 
HETATM   10 CL   UNL     1      38.469  -5.872  10.521  1.00  0.00    -0.077 Cl
HETATM   11  H   UNL     1      40.989  -7.686  10.411  1.00  0.00     0.162 HD
ENDROOT
BRANCH   6  12
HETATM   12  C   UNL     1      43.473  -8.447  10.820  1.00  0.00    -0.035 A 
HETATM   13  C   UNL     1      44.465  -9.429  10.952  1.00  0.00     0.012 A 
HETATM   14  C   UNL     1      45.407  -9.628   9.940  1.00  0.00     0.037 A 
HETATM   15  C   UNL     1      45.373  -8.864   8.773  1.00  0.00     0.068 A 
HETATM   16  C   UNL     1      44.392  -7.885   8.630  1.00  0.00     0.037 A 
HETATM   17  C   UNL     1      43.449  -7.680   9.644  1.00  0.00     0.012 A 
BRANCH  15  18
HETATM   18  O   UNL     1      46.344  -9.170   7.859  1.00  0.00    -0.356 OA
HETATM   19  C   UNL     1      46.411 -10.521   7.421  1.00  0.00     0.210 C 
ENDBRANCH  15  18
ENDBRANCH   6  12
BRANCH   8  20
HETATM   20  C   UNL     1      41.488  -8.442  14.924  1.00  0.00     0.409 C 
HETATM   21  F   UNL     1      42.412  -9.426  14.912  1.00  0.00    -0.169 F 
HETATM   22  F   UNL     1      41.278  -8.121  16.227  1.00  0.00    -0.169 F 
HETATM   23  F   UNL     1      40.328  -8.961  14.466  1.00  0.00    -0.169 F 
ENDBRANCH   8  20
BRANCH   1  24
HETATM   24  C   UNL     1      37.831  -4.654  13.616  1.00  0.00     0.273 C 
HETATM   25  N   UNL     1      37.756  -3.491  12.876  1.00  0.00    -0.356 N 
HETATM   26  H   UNL     1      38.526  -3.334  12.229  1.00  0.00     0.162 HD
HETATM   27  O   UNL     1      37.020  -4.945  14.489  1.00  0.00    -0.266 OA
BRANCH  25  28
HETATM   28  C   UNL     1      36.769  -2.465  13.111  1.00  0.00     0.122 C 
BRANCH  28  29
HETATM   29  C   UNL     1      35.672  -2.491  12.051  1.00  0.00     0.015 C 
HETATM   30  C   UNL     1      36.125  -3.220  10.797  1.00  0.00     0.006 C 
ENDBRANCH  28  29
ENDBRANCH  25  28
ENDBRANCH   1  24
TORSDOF 6
ENDMDL
MODEL 9
REMARK VINA RESULT:      -6.8     17.387     18.870
REMARK  6 active torsions:
REMARK  status: ('A' for Active; 'I' for Inactive)
REMARK    1  A    between atoms: C_2  and  C_3 
REMARK    2  A    between atoms: C_3  and  N_4 
REMARK       I    between atoms: N_4  and  C_5 
REMARK    3  A    between atoms: C_5  and  C_6 
REMARK    4  A    between atoms: C_11  and  C_12 
REMARK    5  A    between atoms: C_15  and  O_16 
REMARK    6  A    between atoms: C_21  and  C_22 
ROOT
HETATM    1  C   UNL     1      43.728 -29.894   0.722  1.00  0.00     0.170 A 
HETATM    2  N   UNL     1      43.923 -29.723  -0.611  1.00  0.00    -0.163 NA
HETATM    3  N   UNL     1      45.259 -29.736  -0.739  1.00  0.00    -0.238 N 
HETATM    4  C   UNL     1      45.935 -29.961   0.427  1.00  0.00     0.145 A 
HETATM    5  N   UNL     1      47.288 -30.073   0.440  1.00  0.00    -0.365 N 
HETATM    6  C   UNL     1      48.083 -29.755  -0.743  1.00  0.00     0.118 C 
HETATM    7  C   UNL     1      47.309 -30.171  -2.008  1.00  0.00     0.066 C 
HETATM    8  C   UNL     1      45.899 -29.555  -2.029  1.00  0.00     0.221 C 
HETATM    9  C   UNL     1      44.969 -30.048   1.404  1.00  0.00     0.115 A 
HETATM   10 CL   UNL     1      45.226 -30.304   3.061  1.00  0.00    -0.077 Cl
HETATM   11  H   UNL     1      47.792 -30.052   1.328  1.00  0.00     0.162 HD
ENDROOT
BRANCH   6  12
HETATM   12  C   UNL     1      49.428 -30.455  -0.692  1.00  0.00    -0.035 A 
HETATM   13  C   UNL     1      49.793 -31.281   0.380  1.00  0.00     0.012 A 
HETATM   14  C   UNL     1      51.021 -31.948   0.376  1.00  0.00     0.037 A 
HETATM   15  C   UNL     1      51.903 -31.815  -0.697  1.00  0.00     0.068 A 
HETATM   16  C   UNL     1      51.549 -30.996  -1.769  1.00  0.00     0.037 A 
HETATM   17  C   UNL     1      50.322 -30.324  -1.766  1.00  0.00     0.012 A 
BRANCH  15  18
HETATM   18  O   UNL     1      53.063 -32.530  -0.579  1.00  0.00    -0.356 OA
HETATM   19  C   UNL     1      53.886 -32.617  -1.735  1.00  0.00     0.210 C 
ENDBRANCH  15  18
ENDBRANCH   6  12
BRANCH   8  20
HETATM   20  C   UNL     1      45.922 -28.085  -2.389  1.00  0.00     0.409 C 
HETATM   21  F   UNL     1      45.149 -27.331  -1.578  1.00  0.00    -0.169 F 
HETATM   22  F   UNL     1      47.187 -27.602  -2.279  1.00  0.00    -0.169 F 
HETATM   23  F   UNL     1      45.533 -27.853  -3.661  1.00  0.00    -0.169 F 
ENDBRANCH   8  20
BRANCH   1  24
HETATM   24  C   UNL     1      42.369 -29.904   1.286  1.00  0.00     0.273 C 
HETATM   25  N   UNL     1      41.925 -31.173   1.596  1.00  0.00    -0.356 N 
HETATM   26  H   UNL     1      42.557 -31.931   1.346  1.00  0.00     0.162 HD
HETATM   27  O   UNL     1      41.690 -28.896   1.456  1.00  0.00    -0.266 OA
BRANCH  25  28
HETATM   28  C   UNL     1      40.592 -31.451   2.073  1.00  0.00     0.122 C 
BRANCH  28  29
HETATM   29  C   UNL     1      40.598 -31.878   3.537  1.00  0.00     0.015 C 
HETATM   30  C   UNL     1      40.974 -30.724   4.452  1.00  0.00     0.006 C 
ENDBRANCH  28  29
ENDBRANCH  25  28
ENDBRANCH   1  24
TORSDOF 6
ENDMDL
MODEL 10
REMARK VINA RESULT:      -6.6      5.787      7.325
REMARK  6 active torsions:
REMARK  status: ('A' for Active; 'I' for Inactive)
REMARK    1  A    between atoms: C_2  and  C_3 
REMARK    2  A    between atoms: C_3  and  N_4 
REMARK       I    between atoms: N_4  and  C_5 
REMARK    3  A    between atoms: C_5  and  C_6 
REMARK    4  A    between atoms: C_11  and  C_12 
REMARK    5  A    between atoms: C_15  and  O_16 
REMARK    6  A    between atoms: C_21  and  C_22 
ROOT
HETATM    1  C   UNL     1      39.621 -10.370  -1.505  1.00  0.00     0.170 A 
HETATM    2  N   UNL     1      38.858 -11.444  -1.836  1.00  0.00    -0.163 NA
HETATM    3  N   UNL     1      39.484 -12.471  -1.240  1.00  0.00    -0.238 N 
HETATM    4  C   UNL     1      40.574 -12.114  -0.498  1.00  0.00     0.145 A 
HETATM    5  N   UNL     1      41.264 -13.037   0.220  1.00  0.00    -0.365 N 
HETATM    6  C   UNL     1      40.999 -14.464   0.066  1.00  0.00     0.118 C 
HETATM    7  C   UNL     1      39.496 -14.682  -0.186  1.00  0.00     0.066 C 
HETATM    8  C   UNL     1      38.997 -13.833  -1.368  1.00  0.00     0.221 C 
HETATM    9  C   UNL     1      40.705 -10.754  -0.665  1.00  0.00     0.115 A 
HETATM   10 CL   UNL     1      41.903  -9.761   0.013  1.00  0.00    -0.077 Cl
HETATM   11  H   UNL     1      42.176 -12.798   0.614  1.00  0.00     0.162 HD
ENDROOT
BRANCH   6  12
HETATM   12  C   UNL     1      41.444 -15.230   1.298  1.00  0.00    -0.035 A 
HETATM   13  C   UNL     1      42.779 -15.616   1.488  1.00  0.00     0.012 A 
HETATM   14  C   UNL     1      43.166 -16.281   2.655  1.00  0.00     0.037 A 
HETATM   15  C   UNL     1      42.237 -16.565   3.657  1.00  0.00     0.068 A 
HETATM   16  C   UNL     1      40.908 -16.186   3.477  1.00  0.00     0.037 A 
HETATM   17  C   UNL     1      40.516 -15.522   2.309  1.00  0.00     0.012 A 
BRANCH  15  18
HETATM   18  O   UNL     1      42.751 -17.208   4.749  1.00  0.00    -0.356 OA
HETATM   19  C   UNL     1      44.097 -16.910   5.097  1.00  0.00     0.210 C 
ENDBRANCH  15  18
ENDBRANCH   6  12
BRANCH   8  20
HETATM   20  C   UNL     1      39.421 -14.406  -2.703  1.00  0.00     0.409 C 
HETATM   21  F   UNL     1      40.731 -14.216  -2.968  1.00  0.00    -0.169 F 
HETATM   22  F   UNL     1      39.212 -15.748  -2.718  1.00  0.00    -0.169 F 
HETATM   23  F   UNL     1      38.714 -13.898  -3.736  1.00  0.00    -0.169 F 
ENDBRANCH   8  20
BRANCH   1  24
HETATM   24  C   UNL     1      39.281  -9.027  -2.003  1.00  0.00     0.273 C 
HETATM   25  N   UNL     1      38.984  -8.138  -0.990  1.00  0.00    -0.356 N 
HETATM   26  H   UNL     1      38.978  -8.531  -0.051  1.00  0.00     0.162 HD
HETATM   27  O   UNL     1      39.253  -8.723  -3.191  1.00  0.00    -0.266 OA
BRANCH  25  28
HETATM   28  C   UNL     1      38.530  -6.790  -1.228  1.00  0.00     0.122 C 
BRANCH  28  29
HETATM   29  C   UNL     1      39.200  -5.798  -0.282  1.00  0.00     0.015 C 
HETATM   30  C   UNL     1      40.142  -6.498   0.683  1.00  0.00     0.006 C 
ENDBRANCH  28  29
ENDBRANCH  25  28
ENDBRANCH   1  24
TORSDOF 6
ENDMDL
