MODEL 1
REMARK VINA RESULT:      -8.5      0.000      0.000
REMARK  6 active torsions:
REMARK  status: ('A' for Active; 'I' for Inactive)
REMARK    1  A    between atoms: C_2  and  N_3 
REMARK    2  A    between atoms: C_2  and  C_24 
REMARK       I    between atoms: N_3  and  C_4 
REMARK    3  A    between atoms: C_4  and  C_5 
REMARK    4  A    between atoms: C_5  and  N_6 
REMARK    5  A    between atoms: C_10  and  N_11 
REMARK       I    between atoms: N_11  and  C_12 
REMARK       I    between atoms: C_12  and  N_13 
REMARK    6  A    between atoms: N_13  and  C_14 
ROOT
HETATM    1  N   UNL     1      43.979 -11.778   6.355  1.00  0.00    -0.063 N 
HETATM    2  H   UNL     1      43.408 -11.021   6.759  1.00  0.00     0.280 HD
HETATM    3  C   UNL     1      43.836 -11.666   4.855  1.00  0.00     0.237 C 
HETATM    4  C   UNL     1      42.503 -12.200   4.374  1.00  0.00     0.053 C 
HETATM    5  C   UNL     1      42.199 -13.612   4.860  1.00  0.00     0.089 C 
HETATM    6  C   UNL     1      42.320 -13.696   6.379  1.00  0.00     0.053 C 
HETATM    7  C   UNL     1      43.579 -13.091   6.976  1.00  0.00     0.237 C 
ENDROOT
BRANCH   1   8
HETATM    8  C   UNL     1      45.428 -11.455   6.770  1.00  0.00     0.337 C 
BRANCH   8   9
HETATM    9  C   UNL     1      45.511 -10.253   7.709  1.00  0.00     0.244 C 
HETATM   10  N   UNL     1      44.375 -10.001   8.432  1.00  0.00    -0.351 N 
HETATM   11  H   UNL     1      43.510 -10.495   8.239  1.00  0.00     0.163 HD
HETATM   12  O   UNL     1      46.564  -9.629   7.827  1.00  0.00    -0.272 OA
BRANCH  10  13
HETATM   13  C   UNL     1      44.275  -8.907   9.388  1.00  0.00     0.120 C 
HETATM   14  C   UNL     1      43.842  -7.610   8.710  1.00  0.00     0.038 C 
BRANCH  13  15
HETATM   15  C   UNL     1      43.321  -9.325  10.480  1.00  0.00     0.005 A 
HETATM   16  S   UNL     1      41.628  -9.045  10.352  1.00  0.00    -0.104 SA
HETATM   17  C   UNL     1      41.323  -9.758  11.874  1.00  0.00     0.050 A 
HETATM   18  C   UNL     1      42.477 -10.203  12.475  1.00  0.00     0.008 A 
HETATM   19  C   UNL     1      43.629  -9.953  11.674  1.00  0.00     0.017 A 
ENDBRANCH  13  15
ENDBRANCH  10  13
ENDBRANCH   8   9
ENDBRANCH   1   8
BRANCH   5  20
HETATM   20  N   UNL     1      42.892 -14.648   4.093  1.00  0.00    -0.338 N 
HETATM   21  C   UNL     1      42.613 -15.994   4.083  1.00  0.00     0.321 C 
HETATM   22  N   UNL     1      43.634 -16.724   3.527  1.00  0.00    -0.309 N 
HETATM   23  O   UNL     1      41.604 -16.451   4.603  1.00  0.00    -0.247 OA
HETATM   24  H   UNL     1      44.515 -16.244   3.408  1.00  0.00     0.170 HD
HETATM   25  H   UNL     1      43.553 -14.332   3.393  1.00  0.00     0.164 HD
BRANCH  22  26
HETATM   26  C   UNL     1      43.685 -18.132   3.427  1.00  0.00     0.036 A 
HETATM   27  C   UNL     1      43.294 -18.839   2.286  1.00  0.00     0.029 A 
HETATM   28  C   UNL     1      43.340 -20.235   2.266  1.00  0.00     0.002 A 
HETATM   29  C   UNL     1      43.779 -20.936   3.386  1.00  0.00     0.000 A 
HETATM   30  C   UNL     1      44.188 -20.241   4.520  1.00  0.00     0.002 A 
HETATM   31  C   UNL     1      44.153 -18.845   4.537  1.00  0.00     0.029 A 
ENDBRANCH  22  26
ENDBRANCH   5  20
TORSDOF 6
ENDMDL
MODEL 2
REMARK VINA RESULT:      -8.5      2.585      9.897
REMARK  6 active torsions:
REMARK  status: ('A' for Active; 'I' for Inactive)
REMARK    1  A    between atoms: C_2  and  N_3 
REMARK    2  A    between atoms: C_2  and  C_24 
REMARK       I    between atoms: N_3  and  C_4 
REMARK    3  A    between atoms: C_4  and  C_5 
REMARK    4  A    between atoms: C_5  and  N_6 
REMARK    5  A    between atoms: C_10  and  N_11 
REMARK       I    between atoms: N_11  and  C_12 
REMARK       I    between atoms: C_12  and  N_13 
REMARK    6  A    between atoms: N_13  and  C_14 
ROOT
HETATM    1  N   UNL     1      43.169 -12.533   4.838  1.00  0.00    -0.063 N 
HETATM    2  H   UNL     1      43.840 -13.118   4.319  1.00  0.00     0.280 HD
HETATM    3  C   UNL     1      43.853 -11.207   5.075  1.00  0.00     0.237 C 
HETATM    4  C   UNL     1      44.880 -11.292   6.185  1.00  0.00     0.053 C 
HETATM    5  C   UNL     1      44.330 -11.877   7.481  1.00  0.00     0.089 C 
HETATM    6  C   UNL     1      43.670 -13.228   7.225  1.00  0.00     0.053 C 
HETATM    7  C   UNL     1      42.696 -13.277   6.060  1.00  0.00     0.237 C 
ENDROOT
BRANCH   1   8
HETATM    8  C   UNL     1      41.974 -12.344   3.881  1.00  0.00     0.337 C 
BRANCH   8   9
HETATM    9  C   UNL     1      41.160 -13.625   3.707  1.00  0.00     0.244 C 
HETATM   10  N   UNL     1      41.855 -14.690   3.199  1.00  0.00    -0.351 N 
HETATM   11  H   UNL     1      42.796 -14.578   2.836  1.00  0.00     0.163 HD
HETATM   12  O   UNL     1      39.988 -13.670   4.076  1.00  0.00    -0.272 OA
BRANCH  10  13
HETATM   13  C   UNL     1      41.248 -15.996   2.979  1.00  0.00     0.120 C 
HETATM   14  C   UNL     1      40.573 -16.076   1.613  1.00  0.00     0.038 C 
BRANCH  13  15
HETATM   15  C   UNL     1      42.319 -17.045   3.148  1.00  0.00     0.005 A 
HETATM   16  S   UNL     1      43.292 -17.119   4.565  1.00  0.00    -0.104 SA
HETATM   17  C   UNL     1      44.161 -18.470   3.985  1.00  0.00     0.050 A 
HETATM   18  C   UNL     1      43.729 -18.865   2.740  1.00  0.00     0.008 A 
HETATM   19  C   UNL     1      42.668 -18.044   2.257  1.00  0.00     0.017 A 
ENDBRANCH  13  15
ENDBRANCH  10  13
ENDBRANCH   8   9
ENDBRANCH   1   8
BRANCH   5  20
HETATM   20  N   UNL     1      43.560 -10.913   8.267  1.00  0.00    -0.338 N 
HETATM   21  C   UNL     1      43.783 -10.544   9.572  1.00  0.00     0.321 C 
HETATM   22  N   UNL     1      42.707  -9.883  10.109  1.00  0.00    -0.309 N 
HETATM   23  O   UNL     1      44.798 -10.872  10.173  1.00  0.00    -0.247 OA
HETATM   24  H   UNL     1      41.841  -9.941   9.592  1.00  0.00     0.170 HD
HETATM   25  H   UNL     1      42.877 -10.356   7.766  1.00  0.00     0.164 HD
BRANCH  22  26
HETATM   26  C   UNL     1      42.595  -9.430  11.443  1.00  0.00     0.036 A 
HETATM   27  C   UNL     1      41.712  -9.985  12.373  1.00  0.00     0.029 A 
HETATM   28  C   UNL     1      41.628  -9.467  13.669  1.00  0.00     0.002 A 
HETATM   29  C   UNL     1      42.429  -8.391  14.044  1.00  0.00     0.000 A 
HETATM   30  C   UNL     1      43.325  -7.844  13.130  1.00  0.00     0.002 A 
HETATM   31  C   UNL     1      43.416  -8.368  11.839  1.00  0.00     0.029 A 
ENDBRANCH  22  26
ENDBRANCH   5  20
TORSDOF 6
ENDMDL
MODEL 3
REMARK VINA RESULT:      -8.4      2.874     10.364
REMARK  6 active torsions:
REMARK  status: ('A' for Active; 'I' for Inactive)
REMARK    1  A    between atoms: C_2  and  N_3 
REMARK    2  A    between atoms: C_2  and  C_24 
REMARK       I    between atoms: N_3  and  C_4 
REMARK    3  A    between atoms: C_4  and  C_5 
REMARK    4  A    between atoms: C_5  and  N_6 
REMARK    5  A    between atoms: C_10  and  N_11 
REMARK       I    between atoms: N_11  and  C_12 
REMARK       I    between atoms: C_12  and  N_13 
REMARK    6  A    between atoms: N_13  and  C_14 
ROOT
HETATM    1  N   UNL     1      42.676 -12.753   5.856  1.00  0.00    -0.063 N 
HETATM    2  H   UNL     1      42.898 -12.513   4.878  1.00  0.00     0.280 HD
HETATM    3  C   UNL     1      41.819 -11.628   6.385  1.00  0.00     0.237 C 
HETATM    4  C   UNL     1      42.640 -10.396   6.707  1.00  0.00     0.053 C 
HETATM    5  C   UNL     1      43.825 -10.675   7.624  1.00  0.00     0.089 C 
HETATM    6  C   UNL     1      44.694 -11.794   7.056  1.00  0.00     0.053 C 
HETATM    7  C   UNL     1      43.952 -13.040   6.603  1.00  0.00     0.237 C 
ENDROOT
BRANCH   1   8
HETATM    8  C   UNL     1      41.848 -14.051   5.775  1.00  0.00     0.337 C 
BRANCH   8   9
HETATM    9  C   UNL     1      41.768 -14.603   4.352  1.00  0.00     0.244 C 
HETATM   10  N   UNL     1      42.582 -15.675   4.099  1.00  0.00    -0.351 N 
HETATM   11  H   UNL     1      43.282 -15.973   4.771  1.00  0.00     0.163 HD
HETATM   12  O   UNL     1      40.965 -14.132   3.549  1.00  0.00    -0.272 OA
BRANCH  10  13
HETATM   13  C   UNL     1      42.627 -16.342   2.805  1.00  0.00     0.120 C 
HETATM   14  C   UNL     1      43.480 -15.567   1.805  1.00  0.00     0.038 C 
BRANCH  13  15
HETATM   15  C   UNL     1      43.136 -17.747   3.019  1.00  0.00     0.005 A 
HETATM   16  S   UNL     1      43.925 -18.206   4.478  1.00  0.00    -0.104 SA
HETATM   17  C   UNL     1      44.152 -19.809   3.935  1.00  0.00     0.050 A 
HETATM   18  C   UNL     1      43.644 -20.002   2.671  1.00  0.00     0.008 A 
HETATM   19  C   UNL     1      43.058 -18.814   2.143  1.00  0.00     0.017 A 
ENDBRANCH  13  15
ENDBRANCH  10  13
ENDBRANCH   8   9
ENDBRANCH   1   8
BRANCH   5  20
HETATM   20  N   UNL     1      43.449 -10.792   9.034  1.00  0.00    -0.338 N 
HETATM   21  C   UNL     1      43.044  -9.778   9.868  1.00  0.00     0.321 C 
HETATM   22  N   UNL     1      43.082 -10.155  11.187  1.00  0.00    -0.309 N 
HETATM   23  O   UNL     1      42.780  -8.659   9.447  1.00  0.00    -0.247 OA
HETATM   24  H   UNL     1      43.591 -11.002  11.397  1.00  0.00     0.170 HD
HETATM   25  H   UNL     1      43.341 -11.731   9.401  1.00  0.00     0.164 HD
BRANCH  22  26
HETATM   26  C   UNL     1      42.789  -9.326  12.293  1.00  0.00     0.036 A 
HETATM   27  C   UNL     1      43.526  -8.184  12.618  1.00  0.00     0.029 A 
HETATM   28  C   UNL     1      43.202  -7.426  13.746  1.00  0.00     0.002 A 
HETATM   29  C   UNL     1      42.136  -7.804  14.559  1.00  0.00     0.000 A 
HETATM   30  C   UNL     1      41.384  -8.930  14.234  1.00  0.00     0.002 A 
HETATM   31  C   UNL     1      41.701  -9.681  13.100  1.00  0.00     0.029 A 
ENDBRANCH  22  26
ENDBRANCH   5  20
TORSDOF 6
ENDMDL
MODEL 4
REMARK VINA RESULT:      -7.7      3.625      4.877
REMARK  6 active torsions:
REMARK  status: ('A' for Active; 'I' for Inactive)
REMARK    1  A    between atoms: C_2  and  N_3 
REMARK    2  A    between atoms: C_2  and  C_24 
REMARK       I    between atoms: N_3  and  C_4 
REMARK    3  A    between atoms: C_4  and  C_5 
REMARK    4  A    between atoms: C_5  and  N_6 
REMARK    5  A    between atoms: C_10  and  N_11 
REMARK       I    between atoms: N_11  and  C_12 
REMARK       I    between atoms: C_12  and  N_13 
REMARK    6  A    between atoms: N_13  and  C_14 
ROOT
HETATM    1  N   UNL     1      42.228 -13.871   5.907  1.00  0.00    -0.063 N 
HETATM    2  H   UNL     1      42.681 -14.331   6.711  1.00  0.00     0.280 HD
HETATM    3  C   UNL     1      40.756 -14.193   6.007  1.00  0.00     0.237 C 
HETATM    4  C   UNL     1      40.458 -15.611   5.565  1.00  0.00     0.053 C 
HETATM    5  C   UNL     1      41.013 -15.951   4.187  1.00  0.00     0.089 C 
HETATM    6  C   UNL     1      42.506 -15.645   4.117  1.00  0.00     0.053 C 
HETATM    7  C   UNL     1      42.926 -14.281   4.637  1.00  0.00     0.237 C 
ENDROOT
BRANCH   1   8
HETATM    8  C   UNL     1      42.451 -12.361   6.129  1.00  0.00     0.337 C 
BRANCH   8   9
HETATM    9  C   UNL     1      43.608 -12.077   7.085  1.00  0.00     0.244 C 
HETATM   10  N   UNL     1      43.475 -10.940   7.836  1.00  0.00    -0.351 N 
HETATM   11  H   UNL     1      42.731 -10.274   7.654  1.00  0.00     0.163 HD
HETATM   12  O   UNL     1      44.536 -12.877   7.191  1.00  0.00    -0.272 OA
BRANCH  10  13
HETATM   13  C   UNL     1      44.470 -10.518   8.813  1.00  0.00     0.120 C 
HETATM   14  C   UNL     1      45.608  -9.743   8.153  1.00  0.00     0.038 C 
BRANCH  13  15
HETATM   15  C   UNL     1      43.770  -9.707   9.875  1.00  0.00     0.005 A 
HETATM   16  S   UNL     1      42.151  -9.162   9.672  1.00  0.00    -0.104 SA
HETATM   17  C   UNL     1      42.141  -8.395  11.198  1.00  0.00     0.050 A 
HETATM   18  C   UNL     1      43.340  -8.543  11.856  1.00  0.00     0.008 A 
HETATM   19  C   UNL     1      44.279  -9.298  11.095  1.00  0.00     0.017 A 
ENDBRANCH  13  15
ENDBRANCH  10  13
ENDBRANCH   8   9
ENDBRANCH   1   8
BRANCH   5  20
HETATM   20  N   UNL     1      40.190 -15.436   3.091  1.00  0.00    -0.338 N 
HETATM   21  C   UNL     1      40.572 -15.260   1.783  1.00  0.00     0.321 C 
HETATM   22  N   UNL     1      39.690 -14.466   1.094  1.00  0.00    -0.309 N 
HETATM   23  O   UNL     1      41.631 -15.699   1.353  1.00  0.00    -0.247 OA
HETATM   24  H   UNL     1      39.026 -13.946   1.650  1.00  0.00     0.170 HD
HETATM   25  H   UNL     1      39.200 -15.326   3.276  1.00  0.00     0.164 HD
BRANCH  22  26
HETATM   26  C   UNL     1      39.830 -14.044  -0.247  1.00  0.00     0.036 A 
HETATM   27  C   UNL     1      39.314 -14.751  -1.337  1.00  0.00     0.029 A 
HETATM   28  C   UNL     1      39.516 -14.293  -2.641  1.00  0.00     0.002 A 
HETATM   29  C   UNL     1      40.236 -13.122  -2.866  1.00  0.00     0.000 A 
HETATM   30  C   UNL     1      40.738 -12.400  -1.787  1.00  0.00     0.002 A 
HETATM   31  C   UNL     1      40.526 -12.852  -0.482  1.00  0.00     0.029 A 
ENDBRANCH  22  26
ENDBRANCH   5  20
TORSDOF 6
ENDMDL
MODEL 5
REMARK VINA RESULT:      -7.6      3.426     10.407
REMARK  6 active torsions:
REMARK  status: ('A' for Active; 'I' for Inactive)
REMARK    1  A    between atoms: C_2  and  N_3 
REMARK    2  A    between atoms: C_2  and  C_24 
REMARK       I    between atoms: N_3  and  C_4 
REMARK    3  A    between atoms: C_4  and  C_5 
REMARK    4  A    between atoms: C_5  and  N_6 
REMARK    5  A    between atoms: C_10  and  N_11 
REMARK       I    between atoms: N_11  and  C_12 
REMARK       I    between atoms: C_12  and  N_13 
REMARK    6  A    between atoms: N_13  and  C_14 
ROOT
HETATM    1  N   UNL     1      40.497 -11.806   5.902  1.00  0.00    -0.063 N 
HETATM    2  H   UNL     1      40.243 -11.454   4.967  1.00  0.00     0.280 HD
HETATM    3  C   UNL     1      39.414 -11.336   6.844  1.00  0.00     0.237 C 
HETATM    4  C   UNL     1      39.559  -9.867   7.183  1.00  0.00     0.053 C 
HETATM    5  C   UNL     1      40.946  -9.494   7.696  1.00  0.00     0.089 C 
HETATM    6  C   UNL     1      42.023  -9.952   6.716  1.00  0.00     0.053 C 
HETATM    7  C   UNL     1      41.906 -11.385   6.229  1.00  0.00     0.237 C 
ENDROOT
BRANCH   1   8
HETATM    8  C   UNL     1      40.456 -13.342   5.778  1.00  0.00     0.337 C 
BRANCH   8   9
HETATM    9  C   UNL     1      40.782 -13.822   4.364  1.00  0.00     0.244 C 
HETATM   10  N   UNL     1      41.917 -14.580   4.256  1.00  0.00    -0.351 N 
HETATM   11  H   UNL     1      42.557 -14.683   5.038  1.00  0.00     0.163 HD
HETATM   12  O   UNL     1      40.014 -13.581   3.435  1.00  0.00    -0.272 OA
BRANCH  10  13
HETATM   13  C   UNL     1      42.376 -15.138   2.991  1.00  0.00     0.120 C 
HETATM   14  C   UNL     1      43.310 -14.176   2.262  1.00  0.00     0.038 C 
BRANCH  13  15
HETATM   15  C   UNL     1      43.035 -16.465   3.275  1.00  0.00     0.005 A 
HETATM   16  S   UNL     1      43.650 -16.850   4.835  1.00  0.00    -0.104 SA
HETATM   17  C   UNL     1      44.174 -18.394   4.326  1.00  0.00     0.050 A 
HETATM   18  C   UNL     1      43.893 -18.622   2.999  1.00  0.00     0.008 A 
HETATM   19  C   UNL     1      43.237 -17.512   2.392  1.00  0.00     0.017 A 
ENDBRANCH  13  15
ENDBRANCH  10  13
ENDBRANCH   8   9
ENDBRANCH   1   8
BRANCH   5  20
HETATM   20  N   UNL     1      41.154  -9.841   9.102  1.00  0.00    -0.338 N 
HETATM   21  C   UNL     1      41.194  -8.976  10.169  1.00  0.00     0.321 C 
HETATM   22  N   UNL     1      41.725  -9.567  11.288  1.00  0.00    -0.309 N 
HETATM   23  O   UNL     1      40.872  -7.799  10.062  1.00  0.00    -0.247 OA
HETATM   24  H   UNL     1      42.208 -10.443  11.146  1.00  0.00     0.170 HD
HETATM   25  H   UNL     1      41.129 -10.826   9.338  1.00  0.00     0.164 HD
BRANCH  22  26
HETATM   26  C   UNL     1      41.962  -8.931  12.527  1.00  0.00     0.036 A 
HETATM   27  C   UNL     1      41.212  -9.181  13.679  1.00  0.00     0.029 A 
HETATM   28  C   UNL     1      41.479  -8.492  14.865  1.00  0.00     0.002 A 
HETATM   29  C   UNL     1      42.501  -7.547  14.908  1.00  0.00     0.000 A 
HETATM   30  C   UNL     1      43.267  -7.304  13.772  1.00  0.00     0.002 A 
HETATM   31  C   UNL     1      43.007  -8.001  12.589  1.00  0.00     0.029 A 
ENDBRANCH  22  26
ENDBRANCH   5  20
TORSDOF 6
ENDMDL
MODEL 6
REMARK VINA RESULT:      -7.4      3.379     10.287
REMARK  6 active torsions:
REMARK  status: ('A' for Active; 'I' for Inactive)
REMARK    1  A    between atoms: C_2  and  N_3 
REMARK    2  A    between atoms: C_2  and  C_24 
REMARK       I    between atoms: N_3  and  C_4 
REMARK    3  A    between atoms: C_4  and  C_5 
REMARK    4  A    between atoms: C_5  and  N_6 
REMARK    5  A    between atoms: C_10  and  N_11 
REMARK       I    between atoms: N_11  and  C_12 
REMARK       I    between atoms: C_12  and  N_13 
REMARK    6  A    between atoms: N_13  and  C_14 
ROOT
HETATM    1  N   UNL     1      42.788 -12.583   5.796  1.00  0.00    -0.063 N 
HETATM    2  H   UNL     1      43.061 -12.327   4.836  1.00  0.00     0.280 HD
HETATM    3  C   UNL     1      41.901 -11.468   6.298  1.00  0.00     0.237 C 
HETATM    4  C   UNL     1      42.701 -10.240   6.682  1.00  0.00     0.053 C 
HETATM    5  C   UNL     1      43.836 -10.533   7.657  1.00  0.00     0.089 C 
HETATM    6  C   UNL     1      44.736 -11.641   7.118  1.00  0.00     0.053 C 
HETATM    7  C   UNL     1      44.023 -12.880   6.606  1.00  0.00     0.237 C 
ENDROOT
BRANCH   1   8
HETATM    8  C   UNL     1      41.968 -13.881   5.650  1.00  0.00     0.337 C 
BRANCH   8   9
HETATM    9  C   UNL     1      42.211 -14.575   4.311  1.00  0.00     0.244 C 
HETATM   10  N   UNL     1      41.284 -14.302   3.339  1.00  0.00    -0.351 N 
HETATM   11  H   UNL     1      40.432 -13.793   3.554  1.00  0.00     0.163 HD
HETATM   12  O   UNL     1      43.215 -15.263   4.141  1.00  0.00    -0.272 OA
BRANCH  10  13
HETATM   13  C   UNL     1      41.361 -14.860   1.996  1.00  0.00     0.120 C 
HETATM   14  C   UNL     1      40.916 -16.320   1.971  1.00  0.00     0.038 C 
BRANCH  13  15
HETATM   15  C   UNL     1      40.531 -13.995   1.080  1.00  0.00     0.005 A 
HETATM   16  S   UNL     1      39.957 -12.451   1.576  1.00  0.00    -0.104 SA
HETATM   17  C   UNL     1      39.181 -12.180   0.079  1.00  0.00     0.050 A 
HETATM   18  C   UNL     1      39.347 -13.236  -0.787  1.00  0.00     0.008 A 
HETATM   19  C   UNL     1      40.124 -14.283  -0.211  1.00  0.00     0.017 A 
ENDBRANCH  13  15
ENDBRANCH  10  13
ENDBRANCH   8   9
ENDBRANCH   1   8
BRANCH   5  20
HETATM   20  N   UNL     1      43.385 -10.674   9.042  1.00  0.00    -0.338 N 
HETATM   21  C   UNL     1      43.019  -9.664   9.899  1.00  0.00     0.321 C 
HETATM   22  N   UNL     1      42.966 -10.092  11.202  1.00  0.00    -0.309 N 
HETATM   23  O   UNL     1      42.860  -8.513   9.513  1.00  0.00    -0.247 OA
HETATM   24  H   UNL     1      43.399 -10.982  11.399  1.00  0.00     0.170 HD
HETATM   25  H   UNL     1      43.191 -11.615   9.365  1.00  0.00     0.164 HD
BRANCH  22  26
HETATM   26  C   UNL     1      42.684  -9.285  12.327  1.00  0.00     0.036 A 
HETATM   27  C   UNL     1      43.461  -8.186  12.703  1.00  0.00     0.029 A 
HETATM   28  C   UNL     1      43.145  -7.450  13.847  1.00  0.00     0.002 A 
HETATM   29  C   UNL     1      42.046  -7.806  14.625  1.00  0.00     0.000 A 
HETATM   30  C   UNL     1      41.254  -8.888  14.249  1.00  0.00     0.002 A 
HETATM   31  C   UNL     1      41.565  -9.617  13.099  1.00  0.00     0.029 A 
ENDBRANCH  22  26
ENDBRANCH   5  20
TORSDOF 6
ENDMDL
MODEL 7
REMARK VINA RESULT:      -7.2      2.881      8.516
REMARK  6 active torsions:
REMARK  status: ('A' for Active; 'I' for Inactive)
REMARK    1  A    between atoms: C_2  and  N_3 
REMARK    2  A    between atoms: C_2  and  C_24 
REMARK       I    between atoms: N_3  and  C_4 
REMARK    3  A    between atoms: C_4  and  C_5 
REMARK    4  A    between atoms: C_5  and  N_6 
REMARK    5  A    between atoms: C_10  and  N_11 
REMARK       I    between atoms: N_11  and  C_12 
REMARK       I    between atoms: C_12  and  N_13 
REMARK    6  A    between atoms: N_13  and  C_14 
ROOT
HETATM    1  N   UNL     1      40.700 -12.913   2.119  1.00  0.00    -0.063 N 
HETATM    2  H   UNL     1      39.901 -12.701   1.503  1.00  0.00     0.280 HD
HETATM    3  C   UNL     1      40.124 -13.571   3.351  1.00  0.00     0.237 C 
HETATM    4  C   UNL     1      39.474 -12.564   4.277  1.00  0.00     0.053 C 
HETATM    5  C   UNL     1      40.381 -11.394   4.640  1.00  0.00     0.089 C 
HETATM    6  C   UNL     1      40.929 -10.726   3.382  1.00  0.00     0.053 C 
HETATM    7  C   UNL     1      41.511 -11.663   2.337  1.00  0.00     0.237 C 
ENDROOT
BRANCH   1   8
HETATM    8  C   UNL     1      41.556 -13.927   1.334  1.00  0.00     0.337 C 
BRANCH   8   9
HETATM    9  C   UNL     1      41.447 -15.343   1.899  1.00  0.00     0.244 C 
HETATM   10  N   UNL     1      42.471 -15.718   2.727  1.00  0.00    -0.351 N 
HETATM   11  H   UNL     1      43.301 -15.143   2.830  1.00  0.00     0.163 HD
HETATM   12  O   UNL     1      40.458 -16.033   1.657  1.00  0.00    -0.272 OA
BRANCH  10  13
HETATM   13  C   UNL     1      42.528 -17.024   3.370  1.00  0.00     0.120 C 
HETATM   14  C   UNL     1      43.524 -17.948   2.674  1.00  0.00     0.038 C 
BRANCH  13  15
HETATM   15  C   UNL     1      42.865 -16.816   4.826  1.00  0.00     0.005 A 
HETATM   16  S   UNL     1      41.706 -16.205   5.940  1.00  0.00    -0.104 SA
HETATM   17  C   UNL     1      42.812 -16.276   7.240  1.00  0.00     0.050 A 
HETATM   18  C   UNL     1      44.040 -16.753   6.845  1.00  0.00     0.008 A 
HETATM   19  C   UNL     1      44.073 -17.064   5.455  1.00  0.00     0.017 A 
ENDBRANCH  13  15
ENDBRANCH  10  13
ENDBRANCH   8   9
ENDBRANCH   1   8
BRANCH   5  20
HETATM   20  N   UNL     1      41.357 -11.722   5.681  1.00  0.00    -0.338 N 
HETATM   21  C   UNL     1      42.009 -10.841   6.510  1.00  0.00     0.321 C 
HETATM   22  N   UNL     1      43.081 -11.424   7.136  1.00  0.00    -0.309 N 
HETATM   23  O   UNL     1      41.692  -9.660   6.577  1.00  0.00    -0.247 OA
HETATM   24  H   UNL     1      43.389 -12.312   6.765  1.00  0.00     0.170 HD
HETATM   25  H   UNL     1      41.465 -12.703   5.913  1.00  0.00     0.164 HD
BRANCH  22  26
HETATM   26  C   UNL     1      43.991 -10.773   7.999  1.00  0.00     0.036 A 
HETATM   27  C   UNL     1      43.763 -10.592   9.366  1.00  0.00     0.029 A 
HETATM   28  C   UNL     1      44.691  -9.909  10.156  1.00  0.00     0.002 A 
HETATM   29  C   UNL     1      45.857  -9.403   9.585  1.00  0.00     0.000 A 
HETATM   30  C   UNL     1      46.102  -9.595   8.228  1.00  0.00     0.002 A 
HETATM   31  C   UNL     1      45.179 -10.287   7.440  1.00  0.00     0.029 A 
ENDBRANCH  22  26
ENDBRANCH   5  20
TORSDOF 6
ENDMDL
MODEL 8
REMARK VINA RESULT:      -7.1      2.852      3.433
REMARK  6 active torsions:
REMARK  status: ('A' for Active; 'I' for Inactive)
REMARK    1  A    between atoms: C_2  and  N_3 
REMARK    2  A    between atoms: C_2  and  C_24 
REMARK       I    between atoms: N_3  and  C_4 
REMARK    3  A    between atoms: C_4  and  C_5 
REMARK    4  A    between atoms: C_5  and  N_6 
REMARK    5  A    between atoms: C_10  and  N_11 
REMARK       I    between atoms: N_11  and  C_12 
REMARK       I    between atoms: C_12  and  N_13 
REMARK    6  A    between atoms: N_13  and  C_14 
ROOT
HETATM    1  N   UNL     1      40.358 -10.314   5.940  1.00  0.00    -0.063 N 
HETATM    2  H   UNL     1      39.497  -9.749   5.888  1.00  0.00     0.280 HD
HETATM    3  C   UNL     1      41.029 -10.192   4.592  1.00  0.00     0.237 C 
HETATM    4  C   UNL     1      40.344 -11.043   3.542  1.00  0.00     0.053 C 
HETATM    5  C   UNL     1      40.177 -12.501   3.953  1.00  0.00     0.089 C 
HETATM    6  C   UNL     1      39.471 -12.603   5.303  1.00  0.00     0.053 C 
HETATM    7  C   UNL     1      40.016 -11.707   6.401  1.00  0.00     0.237 C 
ENDROOT
BRANCH   1   8
HETATM    8  C   UNL     1      41.222  -9.633   7.020  1.00  0.00     0.337 C 
BRANCH   8   9
HETATM    9  C   UNL     1      40.396  -9.169   8.219  1.00  0.00     0.244 C 
HETATM   10  N   UNL     1      40.889  -9.541   9.442  1.00  0.00    -0.351 N 
HETATM   11  H   UNL     1      41.661 -10.196   9.520  1.00  0.00     0.163 HD
HETATM   12  O   UNL     1      39.409  -8.456   8.054  1.00  0.00    -0.272 OA
BRANCH  10  13
HETATM   13  C   UNL     1      40.245  -9.176  10.696  1.00  0.00     0.120 C 
HETATM   14  C   UNL     1      39.332 -10.289  11.202  1.00  0.00     0.038 C 
BRANCH  13  15
HETATM   15  C   UNL     1      41.323  -8.827  11.693  1.00  0.00     0.005 A 
HETATM   16  S   UNL     1      41.053  -8.942  13.388  1.00  0.00    -0.104 SA
HETATM   17  C   UNL     1      42.637  -8.414  13.748  1.00  0.00     0.050 A 
HETATM   18  C   UNL     1      43.365  -8.153  12.610  1.00  0.00     0.008 A 
HETATM   19  C   UNL     1      42.609  -8.390  11.425  1.00  0.00     0.017 A 
ENDBRANCH  13  15
ENDBRANCH  10  13
ENDBRANCH   8   9
ENDBRANCH   1   8
BRANCH   5  20
HETATM   20  N   UNL     1      41.400 -13.289   3.796  1.00  0.00    -0.338 N 
HETATM   21  C   UNL     1      41.492 -14.653   3.655  1.00  0.00     0.321 C 
HETATM   22  N   UNL     1      42.772 -15.104   3.858  1.00  0.00    -0.309 N 
HETATM   23  O   UNL     1      40.505 -15.353   3.464  1.00  0.00    -0.247 OA
HETATM   24  H   UNL     1      43.414 -14.453   4.287  1.00  0.00     0.170 HD
HETATM   25  H   UNL     1      42.258 -12.774   3.636  1.00  0.00     0.164 HD
BRANCH  22  26
HETATM   26  C   UNL     1      43.185 -16.455   3.848  1.00  0.00     0.036 A 
HETATM   27  C   UNL     1      43.620 -17.137   4.988  1.00  0.00     0.029 A 
HETATM   28  C   UNL     1      44.046 -18.466   4.902  1.00  0.00     0.002 A 
HETATM   29  C   UNL     1      44.039 -19.123   3.674  1.00  0.00     0.000 A 
HETATM   30  C   UNL     1      43.590 -18.458   2.536  1.00  0.00     0.002 A 
HETATM   31  C   UNL     1      43.154 -17.134   2.624  1.00  0.00     0.029 A 
ENDBRANCH  22  26
ENDBRANCH   5  20
TORSDOF 6
ENDMDL
MODEL 9
REMARK VINA RESULT:      -7.1      3.340      9.771
REMARK  6 active torsions:
REMARK  status: ('A' for Active; 'I' for Inactive)
REMARK    1  A    between atoms: C_2  and  N_3 
REMARK    2  A    between atoms: C_2  and  C_24 
REMARK       I    between atoms: N_3  and  C_4 
REMARK    3  A    between atoms: C_4  and  C_5 
REMARK    4  A    between atoms: C_5  and  N_6 
REMARK    5  A    between atoms: C_10  and  N_11 
REMARK       I    between atoms: N_11  and  C_12 
REMARK       I    between atoms: C_12  and  N_13 
REMARK    6  A    between atoms: N_13  and  C_14 
ROOT
HETATM    1  N   UNL     1      41.264 -11.266   4.230  1.00  0.00    -0.063 N 
HETATM    2  H   UNL     1      40.615 -11.072   3.453  1.00  0.00     0.280 HD
HETATM    3  C   UNL     1      40.447 -11.931   5.313  1.00  0.00     0.237 C 
HETATM    4  C   UNL     1      39.592 -10.933   6.067  1.00  0.00     0.053 C 
HETATM    5  C   UNL     1      40.377  -9.744   6.609  1.00  0.00     0.089 C 
HETATM    6  C   UNL     1      41.172  -9.070   5.494  1.00  0.00     0.053 C 
HETATM    7  C   UNL     1      41.985  -9.999   4.609  1.00  0.00     0.237 C 
ENDROOT
BRANCH   1   8
HETATM    8  C   UNL     1      42.289 -12.266   3.658  1.00  0.00     0.337 C 
BRANCH   8   9
HETATM    9  C   UNL     1      42.644 -13.370   4.653  1.00  0.00     0.244 C 
HETATM   10  N   UNL     1      42.199 -14.621   4.315  1.00  0.00    -0.351 N 
HETATM   11  H   UNL     1      41.562 -14.759   3.537  1.00  0.00     0.163 HD
HETATM   12  O   UNL     1      43.339 -13.121   5.635  1.00  0.00    -0.272 OA
BRANCH  10  13
HETATM   13  C   UNL     1      42.456 -15.798   5.134  1.00  0.00     0.120 C 
HETATM   14  C   UNL     1      41.229 -16.188   5.953  1.00  0.00     0.038 C 
BRANCH  13  15
HETATM   15  C   UNL     1      42.911 -16.912   4.224  1.00  0.00     0.005 A 
HETATM   16  S   UNL     1      43.946 -18.167   4.785  1.00  0.00    -0.104 SA
HETATM   17  C   UNL     1      43.962 -18.934   3.259  1.00  0.00     0.050 A 
HETATM   18  C   UNL     1      43.201 -18.257   2.334  1.00  0.00     0.008 A 
HETATM   19  C   UNL     1      42.596 -17.092   2.889  1.00  0.00     0.017 A 
ENDBRANCH  13  15
ENDBRANCH  10  13
ENDBRANCH   8   9
ENDBRANCH   1   8
BRANCH   5  20
HETATM   20  N   UNL     1      41.109 -10.048   7.840  1.00  0.00    -0.338 N 
HETATM   21  C   UNL     1      41.026  -9.380   9.037  1.00  0.00     0.321 C 
HETATM   22  N   UNL     1      42.063  -9.701   9.877  1.00  0.00    -0.309 N 
HETATM   23  O   UNL     1      40.164  -8.536   9.250  1.00  0.00    -0.247 OA
HETATM   24  H   UNL     1      42.845 -10.185   9.458  1.00  0.00     0.170 HD
HETATM   25  H   UNL     1      41.626 -10.920   7.860  1.00  0.00     0.164 HD
BRANCH  22  26
HETATM   26  C   UNL     1      42.300  -9.140  11.151  1.00  0.00     0.036 A 
HETATM   27  C   UNL     1      42.969  -7.929  11.348  1.00  0.00     0.029 A 
HETATM   28  C   UNL     1      43.200  -7.446  12.639  1.00  0.00     0.002 A 
HETATM   29  C   UNL     1      42.761  -8.172  13.744  1.00  0.00     0.000 A 
HETATM   30  C   UNL     1      42.078  -9.370  13.558  1.00  0.00     0.002 A 
HETATM   31  C   UNL     1      41.838  -9.847  12.267  1.00  0.00     0.029 A 
ENDBRANCH  22  26
ENDBRANCH   5  20
TORSDOF 6
ENDMDL
MODEL 10
REMARK VINA RESULT:      -7.0      3.290      4.711
REMARK  6 active torsions:
REMARK  status: ('A' for Active; 'I' for Inactive)
REMARK    1  A    between atoms: C_2  and  N_3 
REMARK    2  A    between atoms: C_2  and  C_24 
REMARK       I    between atoms: N_3  and  C_4 
REMARK    3  A    between atoms: C_4  and  C_5 
REMARK    4  A    between atoms: C_5  and  N_6 
REMARK    5  A    between atoms: C_10  and  N_11 
REMARK       I    between atoms: N_11  and  C_12 
REMARK       I    between atoms: C_12  and  N_13 
REMARK    6  A    between atoms: N_13  and  C_14 
ROOT
HETATM    1  N   UNL     1      40.331 -11.268   3.240  1.00  0.00    -0.063 N 
HETATM    2  H   UNL     1      39.516 -10.711   2.944  1.00  0.00     0.280 HD
HETATM    3  C   UNL     1      41.236 -11.373   2.035  1.00  0.00     0.237 C 
HETATM    4  C   UNL     1      40.716 -12.376   1.025  1.00  0.00     0.053 C 
HETATM    5  C   UNL     1      40.421 -13.747   1.624  1.00  0.00     0.089 C 
HETATM    6  C   UNL     1      39.483 -13.621   2.821  1.00  0.00     0.053 C 
HETATM    7  C   UNL     1      39.858 -12.564   3.845  1.00  0.00     0.237 C 
ENDROOT
BRANCH   1   8
HETATM    8  C   UNL     1      41.015 -10.430   4.338  1.00  0.00     0.337 C 
BRANCH   8   9
HETATM    9  C   UNL     1      42.324 -11.056   4.818  1.00  0.00     0.244 C 
HETATM   10  N   UNL     1      42.183 -12.197   5.563  1.00  0.00    -0.351 N 
HETATM   11  H   UNL     1      41.271 -12.506   5.883  1.00  0.00     0.163 HD
HETATM   12  O   UNL     1      43.403 -10.576   4.477  1.00  0.00    -0.272 OA
BRANCH  10  13
HETATM   13  C   UNL     1      43.320 -12.939   6.091  1.00  0.00     0.120 C 
HETATM   14  C   UNL     1      43.915 -12.253   7.317  1.00  0.00     0.038 C 
BRANCH  13  15
HETATM   15  C   UNL     1      42.862 -14.345   6.392  1.00  0.00     0.005 A 
HETATM   16  S   UNL     1      43.933 -15.517   7.056  1.00  0.00    -0.104 SA
HETATM   17  C   UNL     1      42.718 -16.718   7.079  1.00  0.00     0.050 A 
HETATM   18  C   UNL     1      41.520 -16.249   6.592  1.00  0.00     0.008 A 
HETATM   19  C   UNL     1      41.602 -14.882   6.196  1.00  0.00     0.017 A 
ENDBRANCH  13  15
ENDBRANCH  10  13
ENDBRANCH   8   9
ENDBRANCH   1   8
BRANCH   5  20
HETATM   20  N   UNL     1      41.621 -14.563   1.818  1.00  0.00    -0.338 N 
HETATM   21  C   UNL     1      41.671 -15.918   2.039  1.00  0.00     0.321 C 
HETATM   22  N   UNL     1      42.901 -16.316   2.501  1.00  0.00    -0.309 N 
HETATM   23  O   UNL     1      40.685 -16.632   1.916  1.00  0.00    -0.247 OA
HETATM   24  H   UNL     1      43.517 -15.584   2.825  1.00  0.00     0.170 HD
HETATM   25  H   UNL     1      42.512 -14.115   1.636  1.00  0.00     0.164 HD
BRANCH  22  26
HETATM   26  C   UNL     1      43.257 -17.628   2.883  1.00  0.00     0.036 A 
HETATM   27  C   UNL     1      43.945 -17.929   4.061  1.00  0.00     0.029 A 
HETATM   28  C   UNL     1      44.295 -19.248   4.363  1.00  0.00     0.002 A 
HETATM   29  C   UNL     1      43.956 -20.278   3.488  1.00  0.00     0.000 A 
HETATM   30  C   UNL     1      43.254 -19.991   2.321  1.00  0.00     0.002 A 
HETATM   31  C   UNL     1      42.895 -18.674   2.025  1.00  0.00     0.029 A 
ENDBRANCH  22  26
ENDBRANCH   5  20
TORSDOF 6
ENDMDL
