MODEL 1
REMARK VINA RESULT:      -7.5      0.000      0.000
REMARK  8 active torsions:
REMARK  status: ('A' for Active; 'I' for Inactive)
REMARK    1  A    between atoms: C_7  and  C_8 
REMARK    2  A    between atoms: C_11  and  N_12 
REMARK       I    between atoms: N_12  and  C_13 
REMARK    3  A    between atoms: C_13  and  C_14 
REMARK    4  A    between atoms: C_14  and  N_15 
REMARK    5  A    between atoms: N_15  and  C_18 
REMARK    6  A    between atoms: C_18  and  C_19 
REMARK    7  A    between atoms: C_19  and  C_20 
REMARK    8  A    between atoms: C_20  and  O_21 
ROOT
HETATM    1  C   UNL     1      43.152 -13.860   5.466  1.00  0.00    -0.000 A 
HETATM    2  C   UNL     1      42.409 -12.802   4.927  1.00  0.00     0.016 A 
HETATM    3  C   UNL     1      42.431 -11.527   5.510  1.00  0.00     0.030 A 
HETATM    4  C   UNL     1      43.198 -11.277   6.647  1.00  0.00     0.034 A 
HETATM    5  C   UNL     1      43.925 -12.332   7.208  1.00  0.00     0.030 A 
HETATM    6  C   UNL     1      43.907 -13.604   6.621  1.00  0.00     0.016 A 
ENDROOT
BRANCH   4   7
HETATM    7  N   UNL     1      43.318 -10.007   7.260  1.00  0.00    -0.326 N 
HETATM    8  C   UNL     1      42.302  -9.280   7.840  1.00  0.00     0.247 C 
HETATM    9  O   UNL     1      41.126  -9.612   7.986  1.00  0.00    -0.271 OA
HETATM   10  H   UNL     1      44.247  -9.603   7.212  1.00  0.00     0.169 HD
BRANCH   8  11
HETATM   11  C   UNL     1      42.703  -7.881   8.314  1.00  0.00     0.334 C 
BRANCH  11  12
HETATM   12  N   UNL     1      43.590  -8.008   9.531  1.00  0.00    -0.067 N 
HETATM   13  H   UNL     1      44.276  -8.755   9.345  1.00  0.00     0.277 HD
HETATM   14  H   UNL     1      44.175  -7.156   9.557  1.00  0.00     0.277 HD
BRANCH  12  15
HETATM   15  C   UNL     1      42.893  -8.215  10.828  1.00  0.00     0.235 C 
BRANCH  15  16
HETATM   16  C   UNL     1      43.706  -9.189  11.671  1.00  0.00     0.053 C 
BRANCH  16  17
HETATM   17  C   UNL     1      44.433 -10.203  10.800  1.00  0.00     0.165 C 
BRANCH  17  18
HETATM   18  O   UNL     1      43.496 -11.170  10.359  1.00  0.00    -0.401 OA
HETATM   19  H   UNL     1      43.358 -11.026   9.402  1.00  0.00     0.209 HD
ENDBRANCH  17  18
ENDBRANCH  16  17
ENDBRANCH  15  16
ENDBRANCH  12  15
ENDBRANCH  11  12
ENDBRANCH   8  11
ENDBRANCH   4   7
BRANCH   1  20
HETATM   20  C   UNL     1      43.218 -15.197   4.846  1.00  0.00     0.109 A 
HETATM   21  N   UNL     1      43.698 -16.261   5.460  1.00  0.00    -0.240 NA
HETATM   22  C   UNL     1      43.689 -17.355   4.611  1.00  0.00     0.075 A 
HETATM   23  C   UNL     1      43.156 -17.122   3.344  1.00  0.00     0.036 A 
HETATM   24  C   UNL     1      44.170 -18.643   4.916  1.00  0.00     0.033 A 
HETATM   25  C   UNL     1      43.086 -18.131   2.367  1.00  0.00     0.028 A 
HETATM   26  S   UNL     1      42.656 -15.481   3.244  1.00  0.00    -0.067 SA
HETATM   27  C   UNL     1      43.576 -19.407   2.683  1.00  0.00    -0.061 A 
HETATM   28  C   UNL     1      43.542 -20.509   1.663  1.00  0.00     0.048 C 
HETATM   29  C   UNL     1      44.113 -19.654   3.949  1.00  0.00     0.009 A 
ENDBRANCH   1  20
TORSDOF 8
ENDMDL
MODEL 2
REMARK VINA RESULT:      -7.3      1.379      1.891
REMARK  8 active torsions:
REMARK  status: ('A' for Active; 'I' for Inactive)
REMARK    1  A    between atoms: C_7  and  C_8 
REMARK    2  A    between atoms: C_11  and  N_12 
REMARK       I    between atoms: N_12  and  C_13 
REMARK    3  A    between atoms: C_13  and  C_14 
REMARK    4  A    between atoms: C_14  and  N_15 
REMARK    5  A    between atoms: N_15  and  C_18 
REMARK    6  A    between atoms: C_18  and  C_19 
REMARK    7  A    between atoms: C_19  and  C_20 
REMARK    8  A    between atoms: C_20  and  O_21 
ROOT
HETATM    1  C   UNL     1      43.318 -12.793   6.230  1.00  0.00    -0.000 A 
HETATM    2  C   UNL     1      44.291 -12.433   7.172  1.00  0.00     0.016 A 
HETATM    3  C   UNL     1      44.225 -11.210   7.854  1.00  0.00     0.030 A 
HETATM    4  C   UNL     1      43.183 -10.315   7.613  1.00  0.00     0.034 A 
HETATM    5  C   UNL     1      42.220 -10.653   6.657  1.00  0.00     0.030 A 
HETATM    6  C   UNL     1      42.284 -11.878   5.981  1.00  0.00     0.016 A 
ENDROOT
BRANCH   4   7
HETATM    7  N   UNL     1      43.015  -9.089   8.300  1.00  0.00    -0.326 N 
HETATM    8  C   UNL     1      43.992  -8.151   8.551  1.00  0.00     0.247 C 
HETATM    9  O   UNL     1      45.166  -8.170   8.183  1.00  0.00    -0.271 OA
HETATM   10  H   UNL     1      42.082  -8.938   8.668  1.00  0.00     0.169 HD
BRANCH   8  11
HETATM   11  C   UNL     1      43.546  -6.978   9.427  1.00  0.00     0.334 C 
BRANCH  11  12
HETATM   12  N   UNL     1      42.297  -7.371  10.179  1.00  0.00    -0.067 N 
HETATM   13  H   UNL     1      41.553  -6.702   9.929  1.00  0.00     0.277 HD
HETATM   14  H   UNL     1      41.967  -8.255   9.757  1.00  0.00     0.277 HD
BRANCH  12  15
HETATM   15  C   UNL     1      42.438  -7.508  11.653  1.00  0.00     0.235 C 
BRANCH  15  16
HETATM   16  C   UNL     1      43.523  -8.536  11.949  1.00  0.00     0.053 C 
BRANCH  16  17
HETATM   17  C   UNL     1      42.930  -9.920  12.167  1.00  0.00     0.165 C 
BRANCH  17  18
HETATM   18  O   UNL     1      42.172 -10.270  11.021  1.00  0.00    -0.401 OA
HETATM   19  H   UNL     1      42.288  -9.553  10.366  1.00  0.00     0.209 HD
ENDBRANCH  17  18
ENDBRANCH  16  17
ENDBRANCH  15  16
ENDBRANCH  12  15
ENDBRANCH  11  12
ENDBRANCH   8  11
ENDBRANCH   4   7
BRANCH   1  20
HETATM   20  C   UNL     1      43.305 -14.098   5.542  1.00  0.00     0.109 A 
HETATM   21  N   UNL     1      43.749 -15.212   6.090  1.00  0.00    -0.240 NA
HETATM   22  C   UNL     1      43.668 -16.260   5.188  1.00  0.00     0.075 A 
HETATM   23  C   UNL     1      43.116 -15.939   3.949  1.00  0.00     0.036 A 
HETATM   24  C   UNL     1      44.094 -17.583   5.416  1.00  0.00     0.033 A 
HETATM   25  C   UNL     1      42.974 -16.893   2.926  1.00  0.00     0.028 A 
HETATM   26  S   UNL     1      42.692 -14.273   3.944  1.00  0.00    -0.067 SA
HETATM   27  C   UNL     1      43.411 -18.205   3.165  1.00  0.00    -0.061 A 
HETATM   28  C   UNL     1      43.300 -19.251   2.092  1.00  0.00     0.048 C 
HETATM   29  C   UNL     1      43.967 -18.540   4.402  1.00  0.00     0.009 A 
ENDBRANCH   1  20
TORSDOF 8
ENDMDL
MODEL 3
REMARK VINA RESULT:      -7.2      1.695      2.105
REMARK  8 active torsions:
REMARK  status: ('A' for Active; 'I' for Inactive)
REMARK    1  A    between atoms: C_7  and  C_8 
REMARK    2  A    between atoms: C_11  and  N_12 
REMARK       I    between atoms: N_12  and  C_13 
REMARK    3  A    between atoms: C_13  and  C_14 
REMARK    4  A    between atoms: C_14  and  N_15 
REMARK    5  A    between atoms: N_15  and  C_18 
REMARK    6  A    between atoms: C_18  and  C_19 
REMARK    7  A    between atoms: C_19  and  C_20 
REMARK    8  A    between atoms: C_20  and  O_21 
ROOT
HETATM    1  C   UNL     1      43.138 -13.646   5.670  1.00  0.00    -0.000 A 
HETATM    2  C   UNL     1      44.163 -13.147   6.485  1.00  0.00     0.016 A 
HETATM    3  C   UNL     1      44.037 -11.911   7.136  1.00  0.00     0.030 A 
HETATM    4  C   UNL     1      42.882 -11.143   6.990  1.00  0.00     0.034 A 
HETATM    5  C   UNL     1      41.864 -11.621   6.159  1.00  0.00     0.030 A 
HETATM    6  C   UNL     1      41.988 -12.858   5.515  1.00  0.00     0.016 A 
ENDROOT
BRANCH   4   7
HETATM    7  N   UNL     1      42.656  -9.916   7.657  1.00  0.00    -0.326 N 
HETATM    8  C   UNL     1      42.933  -9.639   8.978  1.00  0.00     0.247 C 
HETATM    9  O   UNL     1      43.473 -10.375   9.804  1.00  0.00    -0.271 OA
HETATM   10  H   UNL     1      42.206  -9.206   7.089  1.00  0.00     0.169 HD
BRANCH   8  11
HETATM   11  C   UNL     1      42.465  -8.263   9.458  1.00  0.00     0.334 C 
BRANCH  11  12
HETATM   12  N   UNL     1      41.066  -8.385  10.015  1.00  0.00    -0.067 N 
HETATM   13  H   UNL     1      40.541  -7.543   9.737  1.00  0.00     0.277 HD
HETATM   14  H   UNL     1      40.602  -9.137   9.478  1.00  0.00     0.277 HD
BRANCH  12  15
HETATM   15  C   UNL     1      40.965  -8.637  11.477  1.00  0.00     0.235 C 
BRANCH  15  16
HETATM   16  C   UNL     1      40.256  -9.968  11.697  1.00  0.00     0.053 C 
BRANCH  16  17
HETATM   17  C   UNL     1      39.981 -10.211  13.174  1.00  0.00     0.165 C 
BRANCH  17  18
HETATM   18  O   UNL     1      39.488 -11.531  13.327  1.00  0.00    -0.401 OA
HETATM   19  H   UNL     1      38.818 -11.509  14.038  1.00  0.00     0.209 HD
ENDBRANCH  17  18
ENDBRANCH  16  17
ENDBRANCH  15  16
ENDBRANCH  12  15
ENDBRANCH  11  12
ENDBRANCH   8  11
ENDBRANCH   4   7
BRANCH   1  20
HETATM   20  C   UNL     1      43.195 -14.972   5.026  1.00  0.00     0.109 A 
HETATM   21  N   UNL     1      43.709 -16.040   5.603  1.00  0.00    -0.240 NA
HETATM   22  C   UNL     1      43.680 -17.120   4.737  1.00  0.00     0.075 A 
HETATM   23  C   UNL     1      43.096 -16.873   3.495  1.00  0.00     0.036 A 
HETATM   24  C   UNL     1      44.185 -18.408   5.003  1.00  0.00     0.033 A 
HETATM   25  C   UNL     1      43.000 -17.867   2.506  1.00  0.00     0.028 A 
HETATM   26  S   UNL     1      42.575 -15.236   3.442  1.00  0.00    -0.067 SA
HETATM   27  C   UNL     1      43.515 -19.142   2.781  1.00  0.00    -0.061 A 
HETATM   28  C   UNL     1      43.455 -20.228   1.745  1.00  0.00     0.048 C 
HETATM   29  C   UNL     1      44.103 -19.404   4.022  1.00  0.00     0.009 A 
ENDBRANCH   1  20
TORSDOF 8
ENDMDL
MODEL 4
REMARK VINA RESULT:      -6.7      1.914      2.517
REMARK  8 active torsions:
REMARK  status: ('A' for Active; 'I' for Inactive)
REMARK    1  A    between atoms: C_7  and  C_8 
REMARK    2  A    between atoms: C_11  and  N_12 
REMARK       I    between atoms: N_12  and  C_13 
REMARK    3  A    between atoms: C_13  and  C_14 
REMARK    4  A    between atoms: C_14  and  N_15 
REMARK    5  A    between atoms: N_15  and  C_18 
REMARK    6  A    between atoms: C_18  and  C_19 
REMARK    7  A    between atoms: C_19  and  C_20 
REMARK    8  A    between atoms: C_20  and  O_21 
ROOT
HETATM    1  C   UNL     1      43.116 -12.570   6.109  1.00  0.00    -0.000 A 
HETATM    2  C   UNL     1      42.128 -11.585   5.974  1.00  0.00     0.016 A 
HETATM    3  C   UNL     1      42.155 -10.418   6.751  1.00  0.00     0.030 A 
HETATM    4  C   UNL     1      43.171 -10.205   7.683  1.00  0.00     0.034 A 
HETATM    5  C   UNL     1      44.147 -11.193   7.844  1.00  0.00     0.030 A 
HETATM    6  C   UNL     1      44.123 -12.355   7.062  1.00  0.00     0.016 A 
ENDROOT
BRANCH   4   7
HETATM    7  N   UNL     1      43.299  -9.031   8.463  1.00  0.00    -0.326 N 
HETATM    8  C   UNL     1      42.678  -8.776   9.665  1.00  0.00     0.247 C 
HETATM    9  O   UNL     1      41.948  -9.529  10.311  1.00  0.00    -0.271 OA
HETATM   10  H   UNL     1      43.878  -8.311   8.046  1.00  0.00     0.169 HD
BRANCH   8  11
HETATM   11  C   UNL     1      42.906  -7.368  10.221  1.00  0.00     0.334 C 
BRANCH  11  12
HETATM   12  N   UNL     1      42.436  -7.323  11.656  1.00  0.00    -0.067 N 
HETATM   13  H   UNL     1      42.206  -6.344  11.883  1.00  0.00     0.277 HD
HETATM   14  H   UNL     1      41.513  -7.789  11.677  1.00  0.00     0.277 HD
BRANCH  12  15
HETATM   15  C   UNL     1      43.353  -7.918  12.663  1.00  0.00     0.235 C 
BRANCH  15  16
HETATM   16  C   UNL     1      42.754  -7.719  14.050  1.00  0.00     0.053 C 
BRANCH  16  17
HETATM   17  C   UNL     1      41.903  -8.911  14.462  1.00  0.00     0.165 C 
BRANCH  17  18
HETATM   18  O   UNL     1      41.245  -9.412  13.311  1.00  0.00    -0.401 OA
HETATM   19  H   UNL     1      41.223 -10.386  13.390  1.00  0.00     0.209 HD
ENDBRANCH  17  18
ENDBRANCH  16  17
ENDBRANCH  15  16
ENDBRANCH  12  15
ENDBRANCH  11  12
ENDBRANCH   8  11
ENDBRANCH   4   7
BRANCH   1  20
HETATM   20  C   UNL     1      43.170 -13.777   5.263  1.00  0.00     0.109 A 
HETATM   21  N   UNL     1      43.075 -13.748   3.948  1.00  0.00    -0.240 NA
HETATM   22  C   UNL     1      43.097 -15.034   3.433  1.00  0.00     0.075 A 
HETATM   23  C   UNL     1      43.252 -16.051   4.374  1.00  0.00     0.036 A 
HETATM   24  C   UNL     1      42.971 -15.383   2.075  1.00  0.00     0.033 A 
HETATM   25  C   UNL     1      43.285 -17.407   4.008  1.00  0.00     0.028 A 
HETATM   26  S   UNL     1      43.375 -15.347   5.938  1.00  0.00    -0.067 SA
HETATM   27  C   UNL     1      43.149 -17.741   2.652  1.00  0.00    -0.061 A 
HETATM   28  C   UNL     1      43.156 -19.179   2.217  1.00  0.00     0.048 C 
HETATM   29  C   UNL     1      42.993 -16.732   1.698  1.00  0.00     0.009 A 
ENDBRANCH   1  20
TORSDOF 8
ENDMDL
MODEL 5
REMARK VINA RESULT:      -6.6      5.390      6.919
REMARK  8 active torsions:
REMARK  status: ('A' for Active; 'I' for Inactive)
REMARK    1  A    between atoms: C_7  and  C_8 
REMARK    2  A    between atoms: C_11  and  N_12 
REMARK       I    between atoms: N_12  and  C_13 
REMARK    3  A    between atoms: C_13  and  C_14 
REMARK    4  A    between atoms: C_14  and  N_15 
REMARK    5  A    between atoms: N_15  and  C_18 
REMARK    6  A    between atoms: C_18  and  C_19 
REMARK    7  A    between atoms: C_19  and  C_20 
REMARK    8  A    between atoms: C_20  and  O_21 
ROOT
HETATM    1  C   UNL     1      42.534 -13.931   2.404  1.00  0.00    -0.000 A 
HETATM    2  C   UNL     1      42.991 -12.763   3.027  1.00  0.00     0.016 A 
HETATM    3  C   UNL     1      42.536 -11.499   2.624  1.00  0.00     0.030 A 
HETATM    4  C   UNL     1      41.612 -11.371   1.588  1.00  0.00     0.034 A 
HETATM    5  C   UNL     1      41.168 -12.530   0.942  1.00  0.00     0.030 A 
HETATM    6  C   UNL     1      41.618 -13.792   1.350  1.00  0.00     0.016 A 
ENDROOT
BRANCH   4   7
HETATM    7  N   UNL     1      41.063 -10.138   1.162  1.00  0.00    -0.326 N 
HETATM    8  C   UNL     1      41.537  -9.340   0.144  1.00  0.00     0.247 C 
HETATM    9  O   UNL     1      42.478  -9.567  -0.616  1.00  0.00    -0.271 OA
HETATM   10  H   UNL     1      40.270  -9.820   1.708  1.00  0.00     0.169 HD
BRANCH   8  11
HETATM   11  C   UNL     1      40.813  -8.000  -0.011  1.00  0.00     0.334 C 
BRANCH  11  12
HETATM   12  N   UNL     1      41.632  -6.918   0.654  1.00  0.00    -0.067 N 
HETATM   13  H   UNL     1      41.111  -6.589   1.480  1.00  0.00     0.277 HD
HETATM   14  H   UNL     1      42.455  -7.388   1.070  1.00  0.00     0.277 HD
BRANCH  12  15
HETATM   15  C   UNL     1      42.050  -5.787  -0.216  1.00  0.00     0.235 C 
BRANCH  15  16
HETATM   16  C   UNL     1      43.337  -6.172  -0.936  1.00  0.00     0.053 C 
BRANCH  16  17
HETATM   17  C   UNL     1      43.129  -6.244  -2.441  1.00  0.00     0.165 C 
BRANCH  17  18
HETATM   18  O   UNL     1      42.937  -7.601  -2.804  1.00  0.00    -0.401 OA
HETATM   19  H   UNL     1      43.095  -8.140  -2.004  1.00  0.00     0.209 HD
ENDBRANCH  17  18
ENDBRANCH  16  17
ENDBRANCH  15  16
ENDBRANCH  12  15
ENDBRANCH  11  12
ENDBRANCH   8  11
ENDBRANCH   4   7
BRANCH   1  20
HETATM   20  C   UNL     1      42.927 -15.284   2.841  1.00  0.00     0.109 A 
HETATM   21  N   UNL     1      42.967 -16.326   2.034  1.00  0.00    -0.240 NA
HETATM   22  C   UNL     1      43.309 -17.469   2.737  1.00  0.00     0.075 A 
HETATM   23  C   UNL     1      43.572 -17.280   4.093  1.00  0.00     0.036 A 
HETATM   24  C   UNL     1      43.403 -18.771   2.206  1.00  0.00     0.033 A 
HETATM   25  C   UNL     1      43.924 -18.344   4.941  1.00  0.00     0.028 A 
HETATM   26  S   UNL     1      43.381 -15.613   4.468  1.00  0.00    -0.067 SA
HETATM   27  C   UNL     1      44.005 -19.636   4.399  1.00  0.00    -0.061 A 
HETATM   28  C   UNL     1      44.355 -20.807   5.272  1.00  0.00     0.048 C 
HETATM   29  C   UNL     1      43.744 -19.841   3.042  1.00  0.00     0.009 A 
ENDBRANCH   1  20
TORSDOF 8
ENDMDL
MODEL 6
REMARK VINA RESULT:      -6.3      1.488      2.062
REMARK  8 active torsions:
REMARK  status: ('A' for Active; 'I' for Inactive)
REMARK    1  A    between atoms: C_7  and  C_8 
REMARK    2  A    between atoms: C_11  and  N_12 
REMARK       I    between atoms: N_12  and  C_13 
REMARK    3  A    between atoms: C_13  and  C_14 
REMARK    4  A    between atoms: C_14  and  N_15 
REMARK    5  A    between atoms: N_15  and  C_18 
REMARK    6  A    between atoms: C_18  and  C_19 
REMARK    7  A    between atoms: C_19  and  C_20 
REMARK    8  A    between atoms: C_20  and  O_21 
ROOT
HETATM    1  C   UNL     1      42.536 -13.936   5.325  1.00  0.00    -0.000 A 
HETATM    2  C   UNL     1      43.490 -13.091   5.909  1.00  0.00     0.016 A 
HETATM    3  C   UNL     1      43.121 -11.863   6.477  1.00  0.00     0.030 A 
HETATM    4  C   UNL     1      41.790 -11.449   6.478  1.00  0.00     0.034 A 
HETATM    5  C   UNL     1      40.834 -12.273   5.876  1.00  0.00     0.030 A 
HETATM    6  C   UNL     1      41.202 -13.502   5.314  1.00  0.00     0.016 A 
ENDROOT
BRANCH   4   7
HETATM    7  N   UNL     1      41.332 -10.254   7.080  1.00  0.00    -0.326 N 
HETATM    8  C   UNL     1      41.331  -8.999   6.512  1.00  0.00     0.247 C 
HETATM    9  O   UNL     1      41.671  -8.689   5.370  1.00  0.00    -0.271 OA
HETATM   10  H   UNL     1      41.019 -10.359   8.039  1.00  0.00     0.169 HD
BRANCH   8  11
HETATM   11  C   UNL     1      40.890  -7.870   7.447  1.00  0.00     0.334 C 
BRANCH  11  12
HETATM   12  N   UNL     1      41.768  -7.878   8.677  1.00  0.00    -0.067 N 
HETATM   13  H   UNL     1      41.385  -7.190   9.343  1.00  0.00     0.277 HD
HETATM   14  H   UNL     1      41.598  -8.781   9.152  1.00  0.00     0.277 HD
BRANCH  12  15
HETATM   15  C   UNL     1      43.220  -7.664   8.444  1.00  0.00     0.235 C 
BRANCH  15  16
HETATM   16  C   UNL     1      43.999  -8.304   9.587  1.00  0.00     0.053 C 
BRANCH  16  17
HETATM   17  C   UNL     1      43.125  -9.259  10.387  1.00  0.00     0.165 C 
BRANCH  17  18
HETATM   18  O   UNL     1      42.920 -10.432   9.617  1.00  0.00    -0.401 OA
HETATM   19  H   UNL     1      42.059 -10.335   9.164  1.00  0.00     0.209 HD
ENDBRANCH  17  18
ENDBRANCH  16  17
ENDBRANCH  15  16
ENDBRANCH  12  15
ENDBRANCH  11  12
ENDBRANCH   8  11
ENDBRANCH   4   7
BRANCH   1  20
HETATM   20  C   UNL     1      42.865 -15.268   4.782  1.00  0.00     0.109 A 
HETATM   21  N   UNL     1      42.534 -15.659   3.567  1.00  0.00    -0.240 NA
HETATM   22  C   UNL     1      42.919 -16.973   3.360  1.00  0.00     0.075 A 
HETATM   23  C   UNL     1      43.589 -17.573   4.425  1.00  0.00     0.036 A 
HETATM   24  C   UNL     1      42.687 -17.729   2.195  1.00  0.00     0.033 A 
HETATM   25  C   UNL     1      44.035 -18.905   4.371  1.00  0.00     0.028 A 
HETATM   26  S   UNL     1      43.729 -16.434   5.706  1.00  0.00    -0.067 SA
HETATM   27  C   UNL     1      43.789 -19.649   3.207  1.00  0.00    -0.061 A 
HETATM   28  C   UNL     1      44.228 -21.082   3.113  1.00  0.00     0.048 C 
HETATM   29  C   UNL     1      43.119 -19.060   2.131  1.00  0.00     0.009 A 
ENDBRANCH   1  20
TORSDOF 8
ENDMDL
MODEL 7
REMARK VINA RESULT:      -6.3      4.140      5.059
REMARK  8 active torsions:
REMARK  status: ('A' for Active; 'I' for Inactive)
REMARK    1  A    between atoms: C_7  and  C_8 
REMARK    2  A    between atoms: C_11  and  N_12 
REMARK       I    between atoms: N_12  and  C_13 
REMARK    3  A    between atoms: C_13  and  C_14 
REMARK    4  A    between atoms: C_14  and  N_15 
REMARK    5  A    between atoms: N_15  and  C_18 
REMARK    6  A    between atoms: C_18  and  C_19 
REMARK    7  A    between atoms: C_19  and  C_20 
REMARK    8  A    between atoms: C_20  and  O_21 
ROOT
HETATM    1  C   UNL     1      41.383 -12.037   3.304  1.00  0.00    -0.000 A 
HETATM    2  C   UNL     1      41.924 -10.758   3.492  1.00  0.00     0.016 A 
HETATM    3  C   UNL     1      42.379 -10.339   4.751  1.00  0.00     0.030 A 
HETATM    4  C   UNL     1      42.306 -11.189   5.854  1.00  0.00     0.034 A 
HETATM    5  C   UNL     1      41.746 -12.459   5.683  1.00  0.00     0.030 A 
HETATM    6  C   UNL     1      41.298 -12.878   4.424  1.00  0.00     0.016 A 
ENDROOT
BRANCH   4   7
HETATM    7  N   UNL     1      42.795 -10.862   7.141  1.00  0.00    -0.326 N 
HETATM    8  C   UNL     1      44.114 -10.847   7.536  1.00  0.00     0.247 C 
HETATM    9  O   UNL     1      45.110 -11.055   6.843  1.00  0.00    -0.271 OA
HETATM   10  H   UNL     1      42.074 -10.667   7.827  1.00  0.00     0.169 HD
BRANCH   8  11
HETATM   11  C   UNL     1      44.336 -10.576   9.026  1.00  0.00     0.334 C 
BRANCH  11  12
HETATM   12  N   UNL     1      43.006 -10.272   9.675  1.00  0.00    -0.067 N 
HETATM   13  H   UNL     1      42.283 -10.294   8.940  1.00  0.00     0.277 HD
HETATM   14  H   UNL     1      42.770 -11.093  10.257  1.00  0.00     0.277 HD
BRANCH  12  15
HETATM   15  C   UNL     1      42.939  -9.019  10.472  1.00  0.00     0.235 C 
BRANCH  15  16
HETATM   16  C   UNL     1      43.474  -9.299  11.871  1.00  0.00     0.053 C 
BRANCH  16  17
HETATM   17  C   UNL     1      42.752 -10.473  12.516  1.00  0.00     0.165 C 
BRANCH  17  18
HETATM   18  O   UNL     1      43.516 -11.646  12.295  1.00  0.00    -0.401 OA
HETATM   19  H   UNL     1      42.931 -12.410  12.467  1.00  0.00     0.209 HD
ENDBRANCH  17  18
ENDBRANCH  16  17
ENDBRANCH  15  16
ENDBRANCH  12  15
ENDBRANCH  11  12
ENDBRANCH   8  11
ENDBRANCH   4   7
BRANCH   1  20
HETATM   20  C   UNL     1      40.961 -12.547   1.986  1.00  0.00     0.109 A 
HETATM   21  N   UNL     1      41.141 -11.887   0.859  1.00  0.00    -0.240 NA
HETATM   22  C   UNL     1      40.589 -12.583  -0.203  1.00  0.00     0.075 A 
HETATM   23  C   UNL     1      40.016 -13.812   0.122  1.00  0.00     0.036 A 
HETATM   24  C   UNL     1      40.556 -12.156  -1.545  1.00  0.00     0.033 A 
HETATM   25  C   UNL     1      39.408 -14.631  -0.844  1.00  0.00     0.028 A 
HETATM   26  S   UNL     1      40.192 -14.077   1.812  1.00  0.00    -0.067 SA
HETATM   27  C   UNL     1      39.375 -14.188  -2.176  1.00  0.00    -0.061 A 
HETATM   28  C   UNL     1      38.716 -15.021  -3.239  1.00  0.00     0.048 C 
HETATM   29  C   UNL     1      39.945 -12.959  -2.516  1.00  0.00     0.009 A 
ENDBRANCH   1  20
TORSDOF 8
ENDMDL
MODEL 8
REMARK VINA RESULT:      -6.2     18.052     19.591
REMARK  8 active torsions:
REMARK  status: ('A' for Active; 'I' for Inactive)
REMARK    1  A    between atoms: C_7  and  C_8 
REMARK    2  A    between atoms: C_11  and  N_12 
REMARK       I    between atoms: N_12  and  C_13 
REMARK    3  A    between atoms: C_13  and  C_14 
REMARK    4  A    between atoms: C_14  and  N_15 
REMARK    5  A    between atoms: N_15  and  C_18 
REMARK    6  A    between atoms: C_18  and  C_19 
REMARK    7  A    between atoms: C_19  and  C_20 
REMARK    8  A    between atoms: C_20  and  O_21 
ROOT
HETATM    1  C   UNL     1      48.985 -29.967   1.801  1.00  0.00    -0.000 A 
HETATM    2  C   UNL     1      50.325 -30.336   1.625  1.00  0.00     0.016 A 
HETATM    3  C   UNL     1      51.171 -30.547   2.725  1.00  0.00     0.030 A 
HETATM    4  C   UNL     1      50.698 -30.395   4.027  1.00  0.00     0.034 A 
HETATM    5  C   UNL     1      49.368 -30.003   4.213  1.00  0.00     0.030 A 
HETATM    6  C   UNL     1      48.523 -29.799   3.115  1.00  0.00     0.016 A 
ENDROOT
BRANCH   4   7
HETATM    7  N   UNL     1      51.470 -30.644   5.186  1.00  0.00    -0.326 N 
HETATM    8  C   UNL     1      51.881 -31.875   5.647  1.00  0.00     0.247 C 
HETATM    9  O   UNL     1      51.707 -32.974   5.119  1.00  0.00    -0.271 OA
HETATM   10  H   UNL     1      51.689 -29.817   5.731  1.00  0.00     0.169 HD
BRANCH   8  11
HETATM   11  C   UNL     1      52.600 -31.849   6.998  1.00  0.00     0.334 C 
BRANCH  11  12
HETATM   12  N   UNL     1      53.786 -30.917   6.905  1.00  0.00    -0.067 N 
HETATM   13  H   UNL     1      53.858 -30.592   5.930  1.00  0.00     0.277 HD
HETATM   14  H   UNL     1      53.525 -30.058   7.418  1.00  0.00     0.277 HD
BRANCH  12  15
HETATM   15  C   UNL     1      55.081 -31.457   7.399  1.00  0.00     0.235 C 
BRANCH  15  16
HETATM   16  C   UNL     1      55.902 -31.930   6.205  1.00  0.00     0.053 C 
BRANCH  16  17
HETATM   17  C   UNL     1      57.044 -30.970   5.903  1.00  0.00     0.165 C 
BRANCH  17  18
HETATM   18  O   UNL     1      56.553 -29.644   6.000  1.00  0.00    -0.401 OA
HETATM   19  H   UNL     1      55.689 -29.619   5.545  1.00  0.00     0.209 HD
ENDBRANCH  17  18
ENDBRANCH  16  17
ENDBRANCH  15  16
ENDBRANCH  12  15
ENDBRANCH  11  12
ENDBRANCH   8  11
ENDBRANCH   4   7
BRANCH   1  20
HETATM   20  C   UNL     1      48.040 -29.807   0.679  1.00  0.00     0.109 A 
HETATM   21  N   UNL     1      48.049 -28.771  -0.136  1.00  0.00    -0.240 NA
HETATM   22  C   UNL     1      47.012 -28.865  -1.049  1.00  0.00     0.075 A 
HETATM   23  C   UNL     1      46.228 -30.014  -0.945  1.00  0.00     0.036 A 
HETATM   24  C   UNL     1      46.691 -27.916  -2.038  1.00  0.00     0.033 A 
HETATM   25  C   UNL     1      45.133 -30.249  -1.795  1.00  0.00     0.028 A 
HETATM   26  S   UNL     1      46.834 -30.986   0.336  1.00  0.00    -0.067 SA
HETATM   27  C   UNL     1      44.821 -29.290  -2.770  1.00  0.00    -0.061 A 
HETATM   28  C   UNL     1      43.646 -29.489  -3.685  1.00  0.00     0.048 C 
HETATM   29  C   UNL     1      45.598 -28.134  -2.885  1.00  0.00     0.009 A 
ENDBRANCH   1  20
TORSDOF 8
ENDMDL
MODEL 9
REMARK VINA RESULT:      -6.2      5.591      7.546
REMARK  8 active torsions:
REMARK  status: ('A' for Active; 'I' for Inactive)
REMARK    1  A    between atoms: C_7  and  C_8 
REMARK    2  A    between atoms: C_11  and  N_12 
REMARK       I    between atoms: N_12  and  C_13 
REMARK    3  A    between atoms: C_13  and  C_14 
REMARK    4  A    between atoms: C_14  and  N_15 
REMARK    5  A    between atoms: N_15  and  C_18 
REMARK    6  A    between atoms: C_18  and  C_19 
REMARK    7  A    between atoms: C_19  and  C_20 
REMARK    8  A    between atoms: C_20  and  O_21 
ROOT
HETATM    1  C   UNL     1      42.108 -14.477   2.066  1.00  0.00    -0.000 A 
HETATM    2  C   UNL     1      41.316 -14.364   0.916  1.00  0.00     0.016 A 
HETATM    3  C   UNL     1      40.919 -13.110   0.427  1.00  0.00     0.030 A 
HETATM    4  C   UNL     1      41.305 -11.938   1.075  1.00  0.00     0.034 A 
HETATM    5  C   UNL     1      42.075 -12.040   2.239  1.00  0.00     0.030 A 
HETATM    6  C   UNL     1      42.476 -13.292   2.722  1.00  0.00     0.016 A 
ENDROOT
BRANCH   4   7
HETATM    7  N   UNL     1      40.994 -10.637   0.614  1.00  0.00    -0.326 N 
HETATM    8  C   UNL     1      39.743 -10.063   0.565  1.00  0.00     0.247 C 
HETATM    9  O   UNL     1      38.680 -10.541   0.961  1.00  0.00    -0.271 OA
HETATM   10  H   UNL     1      41.787 -10.119   0.250  1.00  0.00     0.169 HD
BRANCH   8  11
HETATM   11  C   UNL     1      39.693  -8.685  -0.099  1.00  0.00     0.334 C 
BRANCH  11  12
HETATM   12  N   UNL     1      39.014  -8.812  -1.443  1.00  0.00    -0.067 N 
HETATM   13  H   UNL     1      38.072  -9.200  -1.287  1.00  0.00     0.277 HD
HETATM   14  H   UNL     1      38.818  -7.849  -1.764  1.00  0.00     0.277 HD
BRANCH  12  15
HETATM   15  C   UNL     1      39.756  -9.577  -2.480  1.00  0.00     0.235 C 
BRANCH  15  16
HETATM   16  C   UNL     1      38.770 -10.454  -3.241  1.00  0.00     0.053 C 
BRANCH  16  17
HETATM   17  C   UNL     1      38.635 -11.825  -2.595  1.00  0.00     0.165 C 
BRANCH  17  18
HETATM   18  O   UNL     1      37.676 -11.739  -1.555  1.00  0.00    -0.401 OA
HETATM   19  H   UNL     1      36.798 -11.901  -1.955  1.00  0.00     0.209 HD
ENDBRANCH  17  18
ENDBRANCH  16  17
ENDBRANCH  15  16
ENDBRANCH  12  15
ENDBRANCH  11  12
ENDBRANCH   8  11
ENDBRANCH   4   7
BRANCH   1  20
HETATM   20  C   UNL     1      42.610 -15.767   2.575  1.00  0.00     0.109 A 
HETATM   21  N   UNL     1      42.678 -16.861   1.842  1.00  0.00    -0.240 NA
HETATM   22  C   UNL     1      43.130 -17.926   2.603  1.00  0.00     0.075 A 
HETATM   23  C   UNL     1      43.446 -17.622   3.926  1.00  0.00     0.036 A 
HETATM   24  C   UNL     1      43.282 -19.254   2.159  1.00  0.00     0.033 A 
HETATM   25  C   UNL     1      43.909 -18.598   4.826  1.00  0.00     0.028 A 
HETATM   26  S   UNL     1      43.165 -15.948   4.194  1.00  0.00    -0.067 SA
HETATM   27  C   UNL     1      44.048 -19.918   4.371  1.00  0.00    -0.061 A 
HETATM   28  C   UNL     1      44.517 -20.999   5.304  1.00  0.00     0.048 C 
HETATM   29  C   UNL     1      43.734 -20.237   3.048  1.00  0.00     0.009 A 
ENDBRANCH   1  20
TORSDOF 8
ENDMDL
MODEL 10
REMARK VINA RESULT:      -6.2      2.195      3.221
REMARK  8 active torsions:
REMARK  status: ('A' for Active; 'I' for Inactive)
REMARK    1  A    between atoms: C_7  and  C_8 
REMARK    2  A    between atoms: C_11  and  N_12 
REMARK       I    between atoms: N_12  and  C_13 
REMARK    3  A    between atoms: C_13  and  C_14 
REMARK    4  A    between atoms: C_14  and  N_15 
REMARK    5  A    between atoms: N_15  and  C_18 
REMARK    6  A    between atoms: C_18  and  C_19 
REMARK    7  A    between atoms: C_19  and  C_20 
REMARK    8  A    between atoms: C_20  and  O_21 
ROOT
HETATM    1  C   UNL     1      42.859 -12.041   6.087  1.00  0.00    -0.000 A 
HETATM    2  C   UNL     1      43.864 -11.624   6.970  1.00  0.00     0.016 A 
HETATM    3  C   UNL     1      43.686 -10.505   7.797  1.00  0.00     0.030 A 
HETATM    4  C   UNL     1      42.499  -9.775   7.763  1.00  0.00     0.034 A 
HETATM    5  C   UNL     1      41.499 -10.168   6.867  1.00  0.00     0.030 A 
HETATM    6  C   UNL     1      41.675 -11.290   6.047  1.00  0.00     0.016 A 
ENDROOT
BRANCH   4   7
HETATM    7  N   UNL     1      42.221  -8.671   8.603  1.00  0.00    -0.326 N 
HETATM    8  C   UNL     1      42.362  -7.340   8.279  1.00  0.00     0.247 C 
HETATM    9  O   UNL     1      42.696  -6.860   7.196  1.00  0.00    -0.271 OA
HETATM   10  H   UNL     1      41.934  -8.921   9.544  1.00  0.00     0.169 HD
BRANCH   8  11
HETATM   11  C   UNL     1      42.106  -6.367   9.432  1.00  0.00     0.334 C 
BRANCH  11  12
HETATM   12  N   UNL     1      40.672  -6.507   9.886  1.00  0.00    -0.067 N 
HETATM   13  H   UNL     1      40.201  -5.603   9.729  1.00  0.00     0.277 HD
HETATM   14  H   UNL     1      40.209  -7.131   9.204  1.00  0.00     0.277 HD
BRANCH  12  15
HETATM   15  C   UNL     1      40.471  -6.996  11.275  1.00  0.00     0.235 C 
BRANCH  15  16
HETATM   16  C   UNL     1      39.591  -8.240  11.234  1.00  0.00     0.053 C 
BRANCH  16  17
HETATM   17  C   UNL     1      38.865  -8.362   9.903  1.00  0.00     0.165 C 
BRANCH  17  18
HETATM   18  O   UNL     1      38.467  -9.711   9.730  1.00  0.00    -0.401 OA
HETATM   19  H   UNL     1      37.548  -9.787  10.053  1.00  0.00     0.209 HD
ENDBRANCH  17  18
ENDBRANCH  16  17
ENDBRANCH  15  16
ENDBRANCH  12  15
ENDBRANCH  11  12
ENDBRANCH   8  11
ENDBRANCH   4   7
BRANCH   1  20
HETATM   20  C   UNL     1      42.971 -13.253   5.254  1.00  0.00     0.109 A 
HETATM   21  N   UNL     1      43.055 -13.225   3.938  1.00  0.00    -0.240 NA
HETATM   22  C   UNL     1      43.087 -14.512   3.428  1.00  0.00     0.075 A 
HETATM   23  C   UNL     1      43.066 -15.532   4.379  1.00  0.00     0.036 A 
HETATM   24  C   UNL     1      43.130 -14.861   2.064  1.00  0.00     0.033 A 
HETATM   25  C   UNL     1      43.085 -16.890   4.017  1.00  0.00     0.028 A 
HETATM   26  S   UNL     1      43.009 -14.828   5.946  1.00  0.00    -0.067 SA
HETATM   27  C   UNL     1      43.118 -17.222   2.654  1.00  0.00    -0.061 A 
HETATM   28  C   UNL     1      43.117 -18.660   2.221  1.00  0.00     0.048 C 
HETATM   29  C   UNL     1      43.140 -16.210   1.690  1.00  0.00     0.009 A 
ENDBRANCH   1  20
TORSDOF 8
ENDMDL
