MODEL 1
REMARK VINA RESULT:      -8.8      0.000      0.000
REMARK  8 active torsions:
REMARK  status: ('A' for Active; 'I' for Inactive)
REMARK    1  A    between atoms: C_2  and  C_3 
REMARK    2  A    between atoms: C_3  and  C_4 
REMARK    3  A    between atoms: C_7  and  C_8 
REMARK    4  A    between atoms: C_8  and  N_9 
REMARK    5  A    between atoms: C_8  and  C_26 
REMARK    6  A    between atoms: N_9  and  C_12 
REMARK    7  A    between atoms: C_12  and  C_13 
REMARK       I    between atoms: C_13  and  N_14 
REMARK    8  A    between atoms: N_14  and  C_15 
ROOT
HETATM    1  N   UNL     1      40.786 -13.406   6.437  1.00  0.00    -0.054 N 
HETATM    2  H   UNL     1      40.516 -14.399   6.415  1.00  0.00     0.278 HD
HETATM    3  H   UNL     1      41.006 -13.235   7.427  1.00  0.00     0.278 HD
ENDROOT
BRANCH   1   4
HETATM    4  C   UNL     1      42.022 -13.234   5.613  1.00  0.00     0.259 C 
BRANCH   4   5
HETATM    5  C   UNL     1      42.469 -14.564   5.024  1.00  0.00    -0.023 A 
HETATM    6  C   UNL     1      42.554 -15.692   5.861  1.00  0.00     0.010 A 
HETATM    7  C   UNL     1      43.009 -16.917   5.370  1.00  0.00     0.007 A 
HETATM    8  C   UNL     1      43.399 -17.047   4.034  1.00  0.00    -0.058 A 
HETATM    9  C   UNL     1      43.315 -15.933   3.192  1.00  0.00     0.007 A 
HETATM   10  C   UNL     1      42.861 -14.706   3.681  1.00  0.00     0.010 A 
BRANCH   8  11
HETATM   11  C   UNL     1      43.867 -18.379   3.499  1.00  0.00     0.038 C 
BRANCH  11  12
HETATM   12  C   UNL     1      43.090 -18.791   2.248  1.00  0.00     0.000 C 
HETATM   13  C   UNL     1      43.340 -20.248   1.894  1.00  0.00     0.005 C 
ENDBRANCH  11  12
ENDBRANCH   8  11
ENDBRANCH   4   5
BRANCH   4  14
HETATM   14  C   UNL     1      43.094 -12.401   6.294  1.00  0.00     0.017 A 
HETATM   15  S   UNL     1      42.761 -10.750   6.686  1.00  0.00    -0.104 SA
HETATM   16  C   UNL     1      44.323 -10.506   7.326  1.00  0.00     0.050 A 
HETATM   17  C   UNL     1      45.106 -11.632   7.216  1.00  0.00     0.008 A 
HETATM   18  C   UNL     1      44.408 -12.712   6.601  1.00  0.00     0.017 A 
ENDBRANCH   4  14
ENDBRANCH   1   4
BRANCH   1  19
HETATM   19  C   UNL     1      39.561 -12.599   6.102  1.00  0.00     0.336 C 
BRANCH  19  20
HETATM   20  C   UNL     1      39.650 -12.116   4.653  1.00  0.00     0.248 C 
HETATM   21  N   UNL     1      39.214 -13.033   3.719  1.00  0.00    -0.326 N 
HETATM   22  H   UNL     1      38.803 -13.901   4.045  1.00  0.00     0.169 HD
HETATM   23  O   UNL     1      40.088 -10.985   4.448  1.00  0.00    -0.271 OA
BRANCH  21  24
HETATM   24  C   UNL     1      39.249 -12.892   2.310  1.00  0.00     0.037 A 
HETATM   25  C   UNL     1      40.075 -13.655   1.475  1.00  0.00     0.061 A 
HETATM   26  C   UNL     1      39.984 -13.424   0.120  1.00  0.00     0.065 A 
HETATM   27  C   UNL     1      39.121 -12.475  -0.421  1.00  0.00     0.063 A 
HETATM   28  N   UNL     1      40.661 -14.032  -0.931  1.00  0.00    -0.306 N 
HETATM   29  N   UNL     1      39.267 -12.497  -1.802  1.00  0.00    -0.307 N 
HETATM   30  C   UNL     1      38.302 -11.706   0.365  1.00  0.00     0.034 A 
HETATM   31  C   UNL     1      40.225 -13.466  -2.137  1.00  0.00     0.325 A 
HETATM   32  H   UNL     1      38.785 -11.935  -2.484  1.00  0.00     0.170 HD
HETATM   33  O   UNL     1      40.601 -13.761  -3.256  1.00  0.00    -0.247 OA
HETATM   34  C   UNL     1      38.371 -11.925   1.748  1.00  0.00     0.032 A 
HETATM   35  H   UNL     1      41.352 -14.763  -0.881  1.00  0.00     0.170 HD
ENDBRANCH  21  24
ENDBRANCH  19  20
ENDBRANCH   1  19
TORSDOF 8
ENDMDL
MODEL 2
REMARK VINA RESULT:      -8.7      0.758      1.565
REMARK  8 active torsions:
REMARK  status: ('A' for Active; 'I' for Inactive)
REMARK    1  A    between atoms: C_2  and  C_3 
REMARK    2  A    between atoms: C_3  and  C_4 
REMARK    3  A    between atoms: C_7  and  C_8 
REMARK    4  A    between atoms: C_8  and  N_9 
REMARK    5  A    between atoms: C_8  and  C_26 
REMARK    6  A    between atoms: N_9  and  C_12 
REMARK    7  A    between atoms: C_12  and  C_13 
REMARK       I    between atoms: C_13  and  N_14 
REMARK    8  A    between atoms: N_14  and  C_15 
ROOT
HETATM    1  N   UNL     1      41.080 -13.144   6.490  1.00  0.00    -0.054 N 
HETATM    2  H   UNL     1      40.831 -14.137   6.588  1.00  0.00     0.278 HD
HETATM    3  H   UNL     1      41.229 -12.833   7.459  1.00  0.00     0.278 HD
ENDROOT
BRANCH   1   4
HETATM    4  C   UNL     1      42.366 -13.051   5.733  1.00  0.00     0.259 C 
BRANCH   4   5
HETATM    5  C   UNL     1      42.811 -14.425   5.252  1.00  0.00    -0.023 A 
HETATM    6  C   UNL     1      42.956 -14.656   3.872  1.00  0.00     0.010 A 
HETATM    7  C   UNL     1      43.313 -15.917   3.389  1.00  0.00     0.007 A 
HETATM    8  C   UNL     1      43.524 -16.982   4.269  1.00  0.00    -0.058 A 
HETATM    9  C   UNL     1      43.386 -16.763   5.644  1.00  0.00     0.007 A 
HETATM   10  C   UNL     1      43.029 -15.503   6.129  1.00  0.00     0.010 A 
BRANCH   8  11
HETATM   11  C   UNL     1      43.933 -18.338   3.746  1.00  0.00     0.038 C 
BRANCH  11  12
HETATM   12  C   UNL     1      43.234 -18.669   2.426  1.00  0.00     0.000 C 
HETATM   13  C   UNL     1      43.431 -20.127   2.043  1.00  0.00     0.005 C 
ENDBRANCH  11  12
ENDBRANCH   8  11
ENDBRANCH   4   5
BRANCH   4  14
HETATM   14  C   UNL     1      43.419 -12.204   6.426  1.00  0.00     0.017 A 
HETATM   15  S   UNL     1      42.980 -10.653   7.050  1.00  0.00    -0.104 SA
HETATM   16  C   UNL     1      44.567 -10.334   7.588  1.00  0.00     0.050 A 
HETATM   17  C   UNL     1      45.432 -11.355   7.273  1.00  0.00     0.008 A 
HETATM   18  C   UNL     1      44.779 -12.419   6.584  1.00  0.00     0.017 A 
ENDBRANCH   4  14
ENDBRANCH   1   4
BRANCH   1  19
HETATM   19  C   UNL     1      39.867 -12.423   5.967  1.00  0.00     0.336 C 
BRANCH  19  20
HETATM   20  C   UNL     1      39.939 -12.347   4.440  1.00  0.00     0.248 C 
HETATM   21  N   UNL     1      39.602 -13.519   3.795  1.00  0.00    -0.326 N 
HETATM   22  H   UNL     1      39.264 -14.299   4.348  1.00  0.00     0.169 HD
HETATM   23  O   UNL     1      40.278 -11.280   3.932  1.00  0.00    -0.271 OA
BRANCH  21  24
HETATM   24  C   UNL     1      39.650 -13.764   2.401  1.00  0.00     0.037 A 
HETATM   25  C   UNL     1      39.479 -12.766   1.432  1.00  0.00     0.061 A 
HETATM   26  C   UNL     1      39.577 -13.150   0.113  1.00  0.00     0.065 A 
HETATM   27  C   UNL     1      39.828 -14.465  -0.269  1.00  0.00     0.063 A 
HETATM   28  N   UNL     1      39.468 -12.384  -1.043  1.00  0.00    -0.306 N 
HETATM   29  N   UNL     1      39.871 -14.511  -1.656  1.00  0.00    -0.307 N 
HETATM   30  C   UNL     1      39.995 -15.468   0.651  1.00  0.00     0.034 A 
HETATM   31  C   UNL     1      39.650 -13.218  -2.156  1.00  0.00     0.325 A 
HETATM   32  H   UNL     1      40.036 -15.311  -2.244  1.00  0.00     0.170 HD
HETATM   33  O   UNL     1      39.624 -12.885  -3.326  1.00  0.00    -0.247 OA
HETATM   34  C   UNL     1      39.906 -15.104   2.001  1.00  0.00     0.032 A 
HETATM   35  H   UNL     1      39.293 -11.396  -1.117  1.00  0.00     0.170 HD
ENDBRANCH  21  24
ENDBRANCH  19  20
ENDBRANCH   1  19
TORSDOF 8
ENDMDL
MODEL 3
REMARK VINA RESULT:      -8.6      2.226      2.857
REMARK  8 active torsions:
REMARK  status: ('A' for Active; 'I' for Inactive)
REMARK    1  A    between atoms: C_2  and  C_3 
REMARK    2  A    between atoms: C_3  and  C_4 
REMARK    3  A    between atoms: C_7  and  C_8 
REMARK    4  A    between atoms: C_8  and  N_9 
REMARK    5  A    between atoms: C_8  and  C_26 
REMARK    6  A    between atoms: N_9  and  C_12 
REMARK    7  A    between atoms: C_12  and  C_13 
REMARK       I    between atoms: C_13  and  N_14 
REMARK    8  A    between atoms: N_14  and  C_15 
ROOT
HETATM    1  N   UNL     1      43.175 -12.034   2.931  1.00  0.00    -0.054 N 
HETATM    2  H   UNL     1      44.146 -11.732   3.093  1.00  0.00     0.278 HD
HETATM    3  H   UNL     1      43.222 -12.532   2.032  1.00  0.00     0.278 HD
ENDROOT
BRANCH   1   4
HETATM    4  C   UNL     1      42.789 -12.990   4.012  1.00  0.00     0.259 C 
BRANCH   4   5
HETATM    5  C   UNL     1      42.862 -14.427   3.516  1.00  0.00    -0.023 A 
HETATM    6  C   UNL     1      42.949 -15.474   4.452  1.00  0.00     0.010 A 
HETATM    7  C   UNL     1      43.069 -16.801   4.036  1.00  0.00     0.007 A 
HETATM    8  C   UNL     1      43.117 -17.118   2.675  1.00  0.00    -0.058 A 
HETATM    9  C   UNL     1      43.028 -16.085   1.736  1.00  0.00     0.007 A 
HETATM   10  C   UNL     1      42.908 -14.757   2.150  1.00  0.00     0.010 A 
BRANCH   8  11
HETATM   11  C   UNL     1      43.223 -18.556   2.227  1.00  0.00     0.038 C 
BRANCH  11  12
HETATM   12  C   UNL     1      43.943 -19.419   3.265  1.00  0.00     0.000 C 
HETATM   13  C   UNL     1      43.792 -20.900   2.955  1.00  0.00     0.005 C 
ENDBRANCH  11  12
ENDBRANCH   8  11
ENDBRANCH   4   5
BRANCH   4  14
HETATM   14  C   UNL     1      41.521 -12.594   4.749  1.00  0.00     0.017 A 
HETATM   15  S   UNL     1      41.616 -11.451   6.043  1.00  0.00    -0.104 SA
HETATM   16  C   UNL     1      39.943 -11.552   6.359  1.00  0.00     0.050 A 
HETATM   17  C   UNL     1      39.318 -12.459   5.536  1.00  0.00     0.008 A 
HETATM   18  C   UNL     1      40.227 -13.075   4.627  1.00  0.00     0.017 A 
ENDBRANCH   4  14
ENDBRANCH   1   4
BRANCH   1  19
HETATM   19  C   UNL     1      42.349 -10.795   2.715  1.00  0.00     0.336 C 
BRANCH  19  20
HETATM   20  C   UNL     1      41.610 -10.902   1.379  1.00  0.00     0.248 C 
HETATM   21  N   UNL     1      40.640 -11.882   1.341  1.00  0.00    -0.326 N 
HETATM   22  H   UNL     1      40.432 -12.394   2.192  1.00  0.00     0.169 HD
HETATM   23  O   UNL     1      41.931 -10.127   0.479  1.00  0.00    -0.271 OA
BRANCH  21  24
HETATM   24  C   UNL     1      39.856 -12.257   0.224  1.00  0.00     0.037 A 
HETATM   25  C   UNL     1      40.226 -13.259  -0.683  1.00  0.00     0.061 A 
HETATM   26  C   UNL     1      39.349 -13.532  -1.710  1.00  0.00     0.065 A 
HETATM   27  C   UNL     1      38.144 -12.853  -1.866  1.00  0.00     0.063 A 
HETATM   28  N   UNL     1      39.446 -14.469  -2.732  1.00  0.00    -0.306 N 
HETATM   29  N   UNL     1      37.500 -13.368  -2.983  1.00  0.00    -0.307 N 
HETATM   30  C   UNL     1      37.751 -11.863  -1.002  1.00  0.00     0.034 A 
HETATM   31  C   UNL     1      38.300 -14.380  -3.536  1.00  0.00     0.325 A 
HETATM   32  H   UNL     1      36.609 -13.096  -3.364  1.00  0.00     0.170 HD
HETATM   33  O   UNL     1      38.047 -15.053  -4.517  1.00  0.00    -0.247 OA
HETATM   34  C   UNL     1      38.622 -11.569   0.056  1.00  0.00     0.032 A 
HETATM   35  H   UNL     1      40.191 -15.123  -2.903  1.00  0.00     0.170 HD
ENDBRANCH  21  24
ENDBRANCH  19  20
ENDBRANCH   1  19
TORSDOF 8
ENDMDL
MODEL 4
REMARK VINA RESULT:      -8.6      3.085      7.692
REMARK  8 active torsions:
REMARK  status: ('A' for Active; 'I' for Inactive)
REMARK    1  A    between atoms: C_2  and  C_3 
REMARK    2  A    between atoms: C_3  and  C_4 
REMARK    3  A    between atoms: C_7  and  C_8 
REMARK    4  A    between atoms: C_8  and  N_9 
REMARK    5  A    between atoms: C_8  and  C_26 
REMARK    6  A    between atoms: N_9  and  C_12 
REMARK    7  A    between atoms: C_12  and  C_13 
REMARK       I    between atoms: C_13  and  N_14 
REMARK    8  A    between atoms: N_14  and  C_15 
ROOT
HETATM    1  N   UNL     1      41.537 -12.945   2.888  1.00  0.00    -0.054 N 
HETATM    2  H   UNL     1      41.181 -12.132   2.367  1.00  0.00     0.278 HD
HETATM    3  H   UNL     1      41.159 -12.812   3.835  1.00  0.00     0.278 HD
ENDROOT
BRANCH   1   4
HETATM    4  C   UNL     1      40.955 -14.184   2.288  1.00  0.00     0.259 C 
BRANCH   4   5
HETATM    5  C   UNL     1      41.809 -15.399   2.622  1.00  0.00    -0.023 A 
HETATM    6  C   UNL     1      41.785 -15.917   3.930  1.00  0.00     0.010 A 
HETATM    7  C   UNL     1      42.591 -16.998   4.289  1.00  0.00     0.007 A 
HETATM    8  C   UNL     1      43.450 -17.585   3.356  1.00  0.00    -0.058 A 
HETATM    9  C   UNL     1      43.480 -17.081   2.051  1.00  0.00     0.007 A 
HETATM   10  C   UNL     1      42.674 -15.999   1.690  1.00  0.00     0.010 A 
BRANCH   8  11
HETATM   11  C   UNL     1      44.304 -18.770   3.740  1.00  0.00     0.038 C 
BRANCH  11  12
HETATM   12  C   UNL     1      44.030 -19.222   5.175  1.00  0.00     0.000 C 
HETATM   13  C   UNL     1      44.024 -20.739   5.288  1.00  0.00     0.005 C 
ENDBRANCH  11  12
ENDBRANCH   8  11
ENDBRANCH   4   5
BRANCH   4  14
HETATM   14  C   UNL     1      40.551 -14.022   0.833  1.00  0.00     0.017 A 
HETATM   15  S   UNL     1      40.842 -12.515   0.037  1.00  0.00    -0.104 SA
HETATM   16  C   UNL     1      40.136 -13.058  -1.418  1.00  0.00     0.050 A 
HETATM   17  C   UNL     1      39.648 -14.339  -1.306  1.00  0.00     0.008 A 
HETATM   18  C   UNL     1      39.864 -14.884  -0.007  1.00  0.00     0.017 A 
ENDBRANCH   4  14
ENDBRANCH   1   4
BRANCH   1  19
HETATM   19  C   UNL     1      43.033 -12.804   2.977  1.00  0.00     0.336 C 
BRANCH  19  20
HETATM   20  C   UNL     1      43.384 -11.782   4.061  1.00  0.00     0.248 C 
HETATM   21  N   UNL     1      43.980 -12.323   5.182  1.00  0.00    -0.326 N 
HETATM   22  H   UNL     1      44.211 -13.311   5.181  1.00  0.00     0.169 HD
HETATM   23  O   UNL     1      43.116 -10.601   3.848  1.00  0.00    -0.271 OA
BRANCH  21  24
HETATM   24  C   UNL     1      44.342 -11.635   6.365  1.00  0.00     0.037 A 
HETATM   25  C   UNL     1      43.432 -11.297   7.376  1.00  0.00     0.061 A 
HETATM   26  C   UNL     1      43.935 -10.649   8.482  1.00  0.00     0.065 A 
HETATM   27  C   UNL     1      45.283 -10.327   8.614  1.00  0.00     0.063 A 
HETATM   28  N   UNL     1      43.278 -10.213   9.628  1.00  0.00    -0.306 N 
HETATM   29  N   UNL     1      45.457  -9.691   9.836  1.00  0.00    -0.307 N 
HETATM   30  C   UNL     1      46.201 -10.636   7.644  1.00  0.00     0.034 A 
HETATM   31  C   UNL     1      44.214  -9.613  10.484  1.00  0.00     0.325 A 
HETATM   32  H   UNL     1      46.311  -9.336  10.233  1.00  0.00     0.170 HD
HETATM   33  O   UNL     1      43.992  -9.125  11.575  1.00  0.00    -0.247 OA
HETATM   34  C   UNL     1      45.717 -11.301   6.509  1.00  0.00     0.032 A 
HETATM   35  H   UNL     1      42.300 -10.295   9.850  1.00  0.00     0.170 HD
ENDBRANCH  21  24
ENDBRANCH  19  20
ENDBRANCH   1  19
TORSDOF 8
ENDMDL
MODEL 5
REMARK VINA RESULT:      -8.5      3.424      6.311
REMARK  8 active torsions:
REMARK  status: ('A' for Active; 'I' for Inactive)
REMARK    1  A    between atoms: C_2  and  C_3 
REMARK    2  A    between atoms: C_3  and  C_4 
REMARK    3  A    between atoms: C_7  and  C_8 
REMARK    4  A    between atoms: C_8  and  N_9 
REMARK    5  A    between atoms: C_8  and  C_26 
REMARK    6  A    between atoms: N_9  and  C_12 
REMARK    7  A    between atoms: C_12  and  C_13 
REMARK       I    between atoms: C_13  and  N_14 
REMARK    8  A    between atoms: N_14  and  C_15 
ROOT
HETATM    1  N   UNL     1      42.716 -16.522   5.030  1.00  0.00    -0.054 N 
HETATM    2  H   UNL     1      41.727 -16.239   5.007  1.00  0.00     0.278 HD
HETATM    3  H   UNL     1      42.709 -17.389   5.583  1.00  0.00     0.278 HD
ENDROOT
BRANCH   1   4
HETATM    4  C   UNL     1      43.155 -16.823   3.633  1.00  0.00     0.259 C 
BRANCH   4   5
HETATM    5  C   UNL     1      42.289 -16.085   2.623  1.00  0.00    -0.023 A 
HETATM    6  C   UNL     1      42.823 -14.977   1.938  1.00  0.00     0.010 A 
HETATM    7  C   UNL     1      42.045 -14.244   1.042  1.00  0.00     0.007 A 
HETATM    8  C   UNL     1      40.710 -14.589   0.812  1.00  0.00    -0.058 A 
HETATM    9  C   UNL     1      40.169 -15.690   1.484  1.00  0.00     0.007 A 
HETATM   10  C   UNL     1      40.946 -16.426   2.381  1.00  0.00     0.010 A 
BRANCH   8  11
HETATM   11  C   UNL     1      39.877 -13.808  -0.177  1.00  0.00     0.038 C 
BRANCH  11  12
HETATM   12  C   UNL     1      39.372 -14.696  -1.316  1.00  0.00     0.000 C 
HETATM   13  C   UNL     1      39.807 -14.161  -2.671  1.00  0.00     0.005 C 
ENDBRANCH  11  12
ENDBRANCH   8  11
ENDBRANCH   4   5
BRANCH   4  14
HETATM   14  C   UNL     1      43.385 -18.302   3.374  1.00  0.00     0.017 A 
HETATM   15  S   UNL     1      44.064 -19.284   4.625  1.00  0.00    -0.104 SA
HETATM   16  C   UNL     1      44.053 -20.678   3.643  1.00  0.00     0.050 A 
HETATM   17  C   UNL     1      43.585 -20.413   2.378  1.00  0.00     0.008 A 
HETATM   18  C   UNL     1      43.224 -19.043   2.215  1.00  0.00     0.017 A 
ENDBRANCH   4  14
ENDBRANCH   1   4
BRANCH   1  19
HETATM   19  C   UNL     1      43.462 -15.487   5.828  1.00  0.00     0.336 C 
BRANCH  19  20
HETATM   20  C   UNL     1      42.820 -14.115   5.609  1.00  0.00     0.248 C 
HETATM   21  N   UNL     1      41.449 -14.146   5.451  1.00  0.00    -0.326 N 
HETATM   22  H   UNL     1      40.967 -15.031   5.566  1.00  0.00     0.169 HD
HETATM   23  O   UNL     1      43.556 -13.130   5.595  1.00  0.00    -0.271 OA
BRANCH  21  24
HETATM   24  C   UNL     1      40.604 -13.048   5.161  1.00  0.00     0.037 A 
HETATM   25  C   UNL     1      40.333 -12.016   6.069  1.00  0.00     0.061 A 
HETATM   26  C   UNL     1      39.510 -11.000   5.637  1.00  0.00     0.065 A 
HETATM   27  C   UNL     1      38.954 -10.977   4.361  1.00  0.00     0.063 A 
HETATM   28  N   UNL     1      39.086  -9.858   6.307  1.00  0.00    -0.306 N 
HETATM   29  N   UNL     1      38.188  -9.825   4.245  1.00  0.00    -0.307 N 
HETATM   30  C   UNL     1      39.192 -11.971   3.447  1.00  0.00     0.034 A 
HETATM   31  C   UNL     1      38.260  -9.113   5.452  1.00  0.00     0.325 A 
HETATM   32  H   UNL     1      37.658  -9.512   3.448  1.00  0.00     0.170 HD
HETATM   33  O   UNL     1      37.718  -8.055   5.706  1.00  0.00    -0.247 OA
HETATM   34  C   UNL     1      40.031 -13.016   3.859  1.00  0.00     0.032 A 
HETATM   35  H   UNL     1      39.311  -9.571   7.245  1.00  0.00     0.170 HD
ENDBRANCH  21  24
ENDBRANCH  19  20
ENDBRANCH   1  19
TORSDOF 8
ENDMDL
MODEL 6
REMARK VINA RESULT:      -8.4      4.175      7.573
REMARK  8 active torsions:
REMARK  status: ('A' for Active; 'I' for Inactive)
REMARK    1  A    between atoms: C_2  and  C_3 
REMARK    2  A    between atoms: C_3  and  C_4 
REMARK    3  A    between atoms: C_7  and  C_8 
REMARK    4  A    between atoms: C_8  and  N_9 
REMARK    5  A    between atoms: C_8  and  C_26 
REMARK    6  A    between atoms: N_9  and  C_12 
REMARK    7  A    between atoms: C_12  and  C_13 
REMARK       I    between atoms: C_13  and  N_14 
REMARK    8  A    between atoms: N_14  and  C_15 
ROOT
HETATM    1  N   UNL     1      43.217 -17.335   5.743  1.00  0.00    -0.054 N 
HETATM    2  H   UNL     1      42.277 -16.957   5.921  1.00  0.00     0.278 HD
HETATM    3  H   UNL     1      43.139 -18.323   6.020  1.00  0.00     0.278 HD
ENDROOT
BRANCH   1   4
HETATM    4  C   UNL     1      43.492 -17.249   4.276  1.00  0.00     0.259 C 
BRANCH   4   5
HETATM    5  C   UNL     1      42.623 -16.182   3.625  1.00  0.00    -0.023 A 
HETATM    6  C   UNL     1      43.207 -15.282   2.714  1.00  0.00     0.010 A 
HETATM    7  C   UNL     1      42.455 -14.258   2.135  1.00  0.00     0.007 A 
HETATM    8  C   UNL     1      41.104 -14.099   2.457  1.00  0.00    -0.058 A 
HETATM    9  C   UNL     1      40.512 -14.990   3.358  1.00  0.00     0.007 A 
HETATM   10  C   UNL     1      41.263 -16.015   3.939  1.00  0.00     0.010 A 
BRANCH   8  11
HETATM   11  C   UNL     1      40.287 -13.005   1.811  1.00  0.00     0.038 C 
BRANCH  11  12
HETATM   12  C   UNL     1      39.031 -12.683   2.623  1.00  0.00     0.000 C 
HETATM   13  C   UNL     1      39.218 -11.428   3.460  1.00  0.00     0.005 C 
ENDBRANCH  11  12
ENDBRANCH   8  11
ENDBRANCH   4   5
BRANCH   4  14
HETATM   14  C   UNL     1      43.533 -18.601   3.585  1.00  0.00     0.017 A 
HETATM   15  S   UNL     1      44.166 -19.966   4.436  1.00  0.00    -0.104 SA
HETATM   16  C   UNL     1      43.936 -21.003   3.101  1.00  0.00     0.050 A 
HETATM   17  C   UNL     1      43.429 -20.334   2.012  1.00  0.00     0.008 A 
HETATM   18  C   UNL     1      43.220 -18.950   2.281  1.00  0.00     0.017 A 
ENDBRANCH   4  14
ENDBRANCH   1   4
BRANCH   1  19
HETATM   19  C   UNL     1      44.162 -16.671   6.708  1.00  0.00     0.336 C 
BRANCH  19  20
HETATM   20  C   UNL     1      43.557 -15.348   7.182  1.00  0.00     0.248 C 
HETATM   21  N   UNL     1      43.816 -14.274   6.356  1.00  0.00    -0.326 N 
HETATM   22  H   UNL     1      44.303 -14.440   5.481  1.00  0.00     0.169 HD
HETATM   23  O   UNL     1      42.908 -15.353   8.227  1.00  0.00    -0.271 OA
BRANCH  21  24
HETATM   24  C   UNL     1      43.451 -12.924   6.579  1.00  0.00     0.037 A 
HETATM   25  C   UNL     1      44.231 -12.020   7.312  1.00  0.00     0.061 A 
HETATM   26  C   UNL     1      43.758 -10.731   7.425  1.00  0.00     0.065 A 
HETATM   27  C   UNL     1      42.559 -10.320   6.849  1.00  0.00     0.063 A 
HETATM   28  N   UNL     1      44.319  -9.635   8.071  1.00  0.00    -0.306 N 
HETATM   29  N   UNL     1      42.380  -8.974   7.142  1.00  0.00    -0.307 N 
HETATM   30  C   UNL     1      41.768 -11.177   6.129  1.00  0.00     0.034 A 
HETATM   31  C   UNL     1      43.472  -8.530   7.903  1.00  0.00     0.325 A 
HETATM   32  H   UNL     1      41.616  -8.378   6.870  1.00  0.00     0.170 HD
HETATM   33  O   UNL     1      43.652  -7.406   8.332  1.00  0.00    -0.247 OA
HETATM   34  C   UNL     1      42.227 -12.494   5.995  1.00  0.00     0.032 A 
HETATM   35  H   UNL     1      45.186  -9.595   8.581  1.00  0.00     0.170 HD
ENDBRANCH  21  24
ENDBRANCH  19  20
ENDBRANCH   1  19
TORSDOF 8
ENDMDL
MODEL 7
REMARK VINA RESULT:      -8.4      2.827      7.025
REMARK  8 active torsions:
REMARK  status: ('A' for Active; 'I' for Inactive)
REMARK    1  A    between atoms: C_2  and  C_3 
REMARK    2  A    between atoms: C_3  and  C_4 
REMARK    3  A    between atoms: C_7  and  C_8 
REMARK    4  A    between atoms: C_8  and  N_9 
REMARK    5  A    between atoms: C_8  and  C_26 
REMARK    6  A    between atoms: N_9  and  C_12 
REMARK    7  A    between atoms: C_12  and  C_13 
REMARK       I    between atoms: C_13  and  N_14 
REMARK    8  A    between atoms: N_14  and  C_15 
ROOT
HETATM    1  N   UNL     1      40.051 -12.993   2.252  1.00  0.00    -0.054 N 
HETATM    2  H   UNL     1      41.005 -12.800   2.585  1.00  0.00     0.278 HD
HETATM    3  H   UNL     1      39.839 -12.191   1.642  1.00  0.00     0.278 HD
ENDROOT
BRANCH   1   4
HETATM    4  C   UNL     1      40.076 -14.246   1.437  1.00  0.00     0.259 C 
BRANCH   4   5
HETATM    5  C   UNL     1      41.136 -15.207   1.957  1.00  0.00    -0.023 A 
HETATM    6  C   UNL     1      42.336 -15.361   1.238  1.00  0.00     0.010 A 
HETATM    7  C   UNL     1      43.311 -16.269   1.654  1.00  0.00     0.007 A 
HETATM    8  C   UNL     1      43.111 -17.055   2.793  1.00  0.00    -0.058 A 
HETATM    9  C   UNL     1      41.924 -16.907   3.518  1.00  0.00     0.007 A 
HETATM   10  C   UNL     1      40.946 -15.999   3.103  1.00  0.00     0.010 A 
BRANCH   8  11
HETATM   11  C   UNL     1      44.177 -18.019   3.255  1.00  0.00     0.038 C 
BRANCH  11  12
HETATM   12  C   UNL     1      43.640 -19.448   3.358  1.00  0.00     0.000 C 
HETATM   13  C   UNL     1      43.280 -20.006   1.991  1.00  0.00     0.005 C 
ENDBRANCH  11  12
ENDBRANCH   8  11
ENDBRANCH   4   5
BRANCH   4  14
HETATM   14  C   UNL     1      40.066 -13.997  -0.061  1.00  0.00     0.017 A 
HETATM   15  S   UNL     1      40.692 -12.508  -0.675  1.00  0.00    -0.104 SA
HETATM   16  C   UNL     1      40.322 -12.927  -2.287  1.00  0.00     0.050 A 
HETATM   17  C   UNL     1      39.700 -14.151  -2.370  1.00  0.00     0.008 A 
HETATM   18  C   UNL     1      39.530 -14.754  -1.090  1.00  0.00     0.017 A 
ENDBRANCH   4  14
ENDBRANCH   1   4
BRANCH   1  19
HETATM   19  C   UNL     1      39.132 -12.908   3.441  1.00  0.00     0.336 C 
BRANCH  19  20
HETATM   20  C   UNL     1      39.950 -12.584   4.693  1.00  0.00     0.248 C 
HETATM   21  N   UNL     1      41.237 -12.157   4.439  1.00  0.00    -0.326 N 
HETATM   22  H   UNL     1      41.520 -12.014   3.475  1.00  0.00     0.169 HD
HETATM   23  O   UNL     1      39.408 -12.725   5.788  1.00  0.00    -0.271 OA
BRANCH  21  24
HETATM   24  C   UNL     1      42.238 -11.862   5.396  1.00  0.00     0.037 A 
HETATM   25  C   UNL     1      42.360 -10.620   6.033  1.00  0.00     0.061 A 
HETATM   26  C   UNL     1      43.369 -10.487   6.961  1.00  0.00     0.065 A 
HETATM   27  C   UNL     1      44.246 -11.524   7.268  1.00  0.00     0.063 A 
HETATM   28  N   UNL     1      43.713  -9.391   7.745  1.00  0.00    -0.306 N 
HETATM   29  N   UNL     1      45.129 -11.068   8.238  1.00  0.00    -0.307 N 
HETATM   30  C   UNL     1      44.160 -12.751   6.663  1.00  0.00     0.034 A 
HETATM   31  C   UNL     1      44.809  -9.737   8.549  1.00  0.00     0.325 A 
HETATM   32  H   UNL     1      45.882 -11.573   8.675  1.00  0.00     0.170 HD
HETATM   33  O   UNL     1      45.369  -9.024   9.359  1.00  0.00    -0.247 OA
HETATM   34  C   UNL     1      43.139 -12.915   5.717  1.00  0.00     0.032 A 
HETATM   35  H   UNL     1      43.275  -8.485   7.769  1.00  0.00     0.170 HD
ENDBRANCH  21  24
ENDBRANCH  19  20
ENDBRANCH   1  19
TORSDOF 8
ENDMDL
MODEL 8
REMARK VINA RESULT:      -8.3      2.969      7.195
REMARK  8 active torsions:
REMARK  status: ('A' for Active; 'I' for Inactive)
REMARK    1  A    between atoms: C_2  and  C_3 
REMARK    2  A    between atoms: C_3  and  C_4 
REMARK    3  A    between atoms: C_7  and  C_8 
REMARK    4  A    between atoms: C_8  and  N_9 
REMARK    5  A    between atoms: C_8  and  C_26 
REMARK    6  A    between atoms: N_9  and  C_12 
REMARK    7  A    between atoms: C_12  and  C_13 
REMARK       I    between atoms: C_13  and  N_14 
REMARK    8  A    between atoms: N_14  and  C_15 
ROOT
HETATM    1  N   UNL     1      41.082 -12.334  -0.217  1.00  0.00    -0.054 N 
HETATM    2  H   UNL     1      42.006 -12.690   0.065  1.00  0.00     0.278 HD
HETATM    3  H   UNL     1      41.171 -12.207  -1.234  1.00  0.00     0.278 HD
ENDROOT
BRANCH   1   4
HETATM    4  C   UNL     1      40.061 -13.387   0.069  1.00  0.00     0.259 C 
BRANCH   4   5
HETATM    5  C   UNL     1      40.632 -14.461   0.983  1.00  0.00    -0.023 A 
HETATM    6  C   UNL     1      39.844 -14.955   2.039  1.00  0.00     0.010 A 
HETATM    7  C   UNL     1      40.350 -15.903   2.930  1.00  0.00     0.007 A 
HETATM    8  C   UNL     1      41.658 -16.376   2.798  1.00  0.00    -0.058 A 
HETATM    9  C   UNL     1      42.450 -15.895   1.750  1.00  0.00     0.007 A 
HETATM   10  C   UNL     1      41.946 -14.946   0.857  1.00  0.00     0.010 A 
BRANCH   8  11
HETATM   11  C   UNL     1      42.195 -17.419   3.749  1.00  0.00     0.038 C 
BRANCH  11  12
HETATM   12  C   UNL     1      43.698 -17.251   3.982  1.00  0.00     0.000 C 
HETATM   13  C   UNL     1      44.420 -18.588   3.932  1.00  0.00     0.005 C 
ENDBRANCH  11  12
ENDBRANCH   8  11
ENDBRANCH   4   5
BRANCH   4  14
HETATM   14  C   UNL     1      39.328 -13.874  -1.170  1.00  0.00     0.017 A 
HETATM   15  S   UNL     1      38.282 -12.787  -2.015  1.00  0.00    -0.104 SA
HETATM   16  C   UNL     1      37.840 -13.977  -3.155  1.00  0.00     0.050 A 
HETATM   17  C   UNL     1      38.433 -15.189  -2.890  1.00  0.00     0.008 A 
HETATM   18  C   UNL     1      39.268 -15.137  -1.736  1.00  0.00     0.017 A 
ENDBRANCH   4  14
ENDBRANCH   1   4
BRANCH   1  19
HETATM   19  C   UNL     1      40.920 -10.968   0.394  1.00  0.00     0.336 C 
BRANCH  19  20
HETATM   20  C   UNL     1      41.057 -11.071   1.915  1.00  0.00     0.248 C 
HETATM   21  N   UNL     1      42.284 -11.532   2.347  1.00  0.00    -0.326 N 
HETATM   22  H   UNL     1      43.013 -11.689   1.659  1.00  0.00     0.169 HD
HETATM   23  O   UNL     1      40.092 -10.743   2.604  1.00  0.00    -0.271 OA
BRANCH  21  24
HETATM   24  C   UNL     1      42.667 -11.798   3.683  1.00  0.00     0.037 A 
HETATM   25  C   UNL     1      43.059 -10.804   4.591  1.00  0.00     0.061 A 
HETATM   26  C   UNL     1      43.382 -11.212   5.866  1.00  0.00     0.065 A 
HETATM   27  C   UNL     1      43.334 -12.546   6.262  1.00  0.00     0.063 A 
HETATM   28  N   UNL     1      43.784 -10.456   6.962  1.00  0.00    -0.306 N 
HETATM   29  N   UNL     1      43.708 -12.613   7.597  1.00  0.00    -0.307 N 
HETATM   30  C   UNL     1      42.960 -13.545   5.401  1.00  0.00     0.034 A 
HETATM   31  C   UNL     1      43.991 -11.316   8.051  1.00  0.00     0.325 A 
HETATM   32  H   UNL     1      43.773 -13.431   8.181  1.00  0.00     0.170 HD
HETATM   33  O   UNL     1      44.344 -10.997   9.171  1.00  0.00    -0.247 OA
HETATM   34  C   UNL     1      42.622 -13.158   4.097  1.00  0.00     0.032 A 
HETATM   35  H   UNL     1      43.914  -9.459   7.012  1.00  0.00     0.170 HD
ENDBRANCH  21  24
ENDBRANCH  19  20
ENDBRANCH   1  19
TORSDOF 8
ENDMDL
MODEL 9
REMARK VINA RESULT:      -8.0      4.603      8.545
REMARK  8 active torsions:
REMARK  status: ('A' for Active; 'I' for Inactive)
REMARK    1  A    between atoms: C_2  and  C_3 
REMARK    2  A    between atoms: C_3  and  C_4 
REMARK    3  A    between atoms: C_7  and  C_8 
REMARK    4  A    between atoms: C_8  and  N_9 
REMARK    5  A    between atoms: C_8  and  C_26 
REMARK    6  A    between atoms: N_9  and  C_12 
REMARK    7  A    between atoms: C_12  and  C_13 
REMARK       I    between atoms: C_13  and  N_14 
REMARK    8  A    between atoms: N_14  and  C_15 
ROOT
HETATM    1  N   UNL     1      43.384 -13.092   7.259  1.00  0.00    -0.054 N 
HETATM    2  H   UNL     1      42.810 -12.776   8.053  1.00  0.00     0.278 HD
HETATM    3  H   UNL     1      43.857 -13.931   7.619  1.00  0.00     0.278 HD
ENDROOT
BRANCH   1   4
HETATM    4  C   UNL     1      42.472 -13.475   6.138  1.00  0.00     0.259 C 
BRANCH   4   5
HETATM    5  C   UNL     1      42.821 -14.857   5.605  1.00  0.00    -0.023 A 
HETATM    6  C   UNL     1      43.971 -15.508   6.087  1.00  0.00     0.010 A 
HETATM    7  C   UNL     1      44.353 -16.754   5.587  1.00  0.00     0.007 A 
HETATM    8  C   UNL     1      43.604 -17.378   4.585  1.00  0.00    -0.058 A 
HETATM    9  C   UNL     1      42.458 -16.741   4.100  1.00  0.00     0.007 A 
HETATM   10  C   UNL     1      42.074 -15.494   4.599  1.00  0.00     0.010 A 
BRANCH   8  11
HETATM   11  C   UNL     1      44.007 -18.737   4.062  1.00  0.00     0.038 C 
BRANCH  11  12
HETATM   12  C   UNL     1      43.661 -18.897   2.580  1.00  0.00     0.000 C 
HETATM   13  C   UNL     1      43.380 -20.349   2.230  1.00  0.00     0.005 C 
ENDBRANCH  11  12
ENDBRANCH   8  11
ENDBRANCH   4   5
BRANCH   4  14
HETATM   14  C   UNL     1      42.287 -12.378   5.104  1.00  0.00     0.017 A 
HETATM   15  S   UNL     1      43.267 -12.384   3.679  1.00  0.00    -0.104 SA
HETATM   16  C   UNL     1      42.560 -10.947   3.093  1.00  0.00     0.050 A 
HETATM   17  C   UNL     1      41.627 -10.438   3.966  1.00  0.00     0.008 A 
HETATM   18  C   UNL     1      41.488 -11.246   5.132  1.00  0.00     0.017 A 
ENDBRANCH   4  14
ENDBRANCH   1   4
BRANCH   1  19
HETATM   19  C   UNL     1      44.440 -12.046   7.023  1.00  0.00     0.336 C 
BRANCH  19  20
HETATM   20  C   UNL     1      44.545 -11.142   8.253  1.00  0.00     0.248 C 
HETATM   21  N   UNL     1      43.337 -10.650   8.704  1.00  0.00    -0.326 N 
HETATM   22  H   UNL     1      42.485 -10.972   8.258  1.00  0.00     0.169 HD
HETATM   23  O   UNL     1      45.663 -10.937   8.723  1.00  0.00    -0.271 OA
BRANCH  21  24
HETATM   24  C   UNL     1      43.137  -9.737   9.767  1.00  0.00     0.037 A 
HETATM   25  C   UNL     1      42.922 -10.128  11.095  1.00  0.00     0.061 A 
HETATM   26  C   UNL     1      42.767  -9.126  12.027  1.00  0.00     0.065 A 
HETATM   27  C   UNL     1      42.812  -7.776  11.690  1.00  0.00     0.063 A 
HETATM   28  N   UNL     1      42.559  -9.217  13.399  1.00  0.00    -0.306 N 
HETATM   29  N   UNL     1      42.629  -7.036  12.851  1.00  0.00    -0.307 N 
HETATM   30  C   UNL     1      43.015  -7.356  10.401  1.00  0.00     0.034 A 
HETATM   31  C   UNL     1      42.471  -7.921  13.929  1.00  0.00     0.325 A 
HETATM   32  H   UNL     1      42.612  -6.034  12.949  1.00  0.00     0.170 HD
HETATM   33  O   UNL     1      42.296  -7.623  15.095  1.00  0.00    -0.247 OA
HETATM   34  C   UNL     1      43.181  -8.356   9.433  1.00  0.00     0.032 A 
HETATM   35  H   UNL     1      42.482 -10.049  13.960  1.00  0.00     0.170 HD
ENDBRANCH  21  24
ENDBRANCH  19  20
ENDBRANCH   1  19
TORSDOF 8
ENDMDL
MODEL 10
REMARK VINA RESULT:      -8.0      3.424      8.087
REMARK  8 active torsions:
REMARK  status: ('A' for Active; 'I' for Inactive)
REMARK    1  A    between atoms: C_2  and  C_3 
REMARK    2  A    between atoms: C_3  and  C_4 
REMARK    3  A    between atoms: C_7  and  C_8 
REMARK    4  A    between atoms: C_8  and  N_9 
REMARK    5  A    between atoms: C_8  and  C_26 
REMARK    6  A    between atoms: N_9  and  C_12 
REMARK    7  A    between atoms: C_12  and  C_13 
REMARK       I    between atoms: C_13  and  N_14 
REMARK    8  A    between atoms: N_14  and  C_15 
ROOT
HETATM    1  N   UNL     1      41.037 -12.648   3.505  1.00  0.00    -0.054 N 
HETATM    2  H   UNL     1      41.483 -11.722   3.553  1.00  0.00     0.278 HD
HETATM    3  H   UNL     1      41.017 -12.858   2.498  1.00  0.00     0.278 HD
ENDROOT
BRANCH   1   4
HETATM    4  C   UNL     1      41.917 -13.634   4.204  1.00  0.00     0.259 C 
BRANCH   4   5
HETATM    5  C   UNL     1      42.940 -12.922   5.077  1.00  0.00    -0.023 A 
HETATM    6  C   UNL     1      43.775 -11.947   4.500  1.00  0.00     0.010 A 
HETATM    7  C   UNL     1      44.760 -11.307   5.256  1.00  0.00     0.007 A 
HETATM    8  C   UNL     1      44.944 -11.631   6.603  1.00  0.00    -0.058 A 
HETATM    9  C   UNL     1      44.118 -12.596   7.187  1.00  0.00     0.007 A 
HETATM   10  C   UNL     1      43.132 -13.238   6.433  1.00  0.00     0.010 A 
BRANCH   8  11
HETATM   11  C   UNL     1      45.994 -10.921   7.424  1.00  0.00     0.038 C 
BRANCH  11  12
HETATM   12  C   UNL     1      45.436  -9.661   8.088  1.00  0.00     0.000 C 
HETATM   13  C   UNL     1      45.415  -9.794   9.602  1.00  0.00     0.005 C 
ENDBRANCH  11  12
ENDBRANCH   8  11
ENDBRANCH   4   5
BRANCH   4  14
HETATM   14  C   UNL     1      42.450 -14.726   3.292  1.00  0.00     0.017 A 
HETATM   15  S   UNL     1      42.466 -16.362   3.850  1.00  0.00    -0.104 SA
HETATM   16  C   UNL     1      43.180 -16.929   2.408  1.00  0.00     0.050 A 
HETATM   17  C   UNL     1      43.444 -15.905   1.528  1.00  0.00     0.008 A 
HETATM   18  C   UNL     1      43.047 -14.637   2.045  1.00  0.00     0.017 A 
ENDBRANCH   4  14
ENDBRANCH   1   4
BRANCH   1  19
HETATM   19  C   UNL     1      39.611 -12.486   3.958  1.00  0.00     0.336 C 
BRANCH  19  20
HETATM   20  C   UNL     1      39.589 -12.092   5.437  1.00  0.00     0.248 C 
HETATM   21  N   UNL     1      40.080 -10.830   5.698  1.00  0.00    -0.326 N 
HETATM   22  H   UNL     1      40.339 -10.238   4.916  1.00  0.00     0.169 HD
HETATM   23  O   UNL     1      39.145 -12.908   6.244  1.00  0.00    -0.271 OA
BRANCH  21  24
HETATM   24  C   UNL     1      40.250 -10.232   6.970  1.00  0.00     0.037 A 
HETATM   25  C   UNL     1      39.203 -10.032   7.879  1.00  0.00     0.061 A 
HETATM   26  C   UNL     1      39.525  -9.460   9.090  1.00  0.00     0.065 A 
HETATM   27  C   UNL     1      40.824  -9.083   9.420  1.00  0.00     0.063 A 
HETATM   28  N   UNL     1      38.706  -9.159  10.174  1.00  0.00    -0.306 N 
HETATM   29  N   UNL     1      40.806  -8.550  10.702  1.00  0.00    -0.307 N 
HETATM   30  C   UNL     1      41.872  -9.259   8.554  1.00  0.00     0.034 A 
HETATM   31  C   UNL     1      39.490  -8.592  11.189  1.00  0.00     0.325 A 
HETATM   32  H   UNL     1      41.582  -8.189  11.233  1.00  0.00     0.170 HD
HETATM   33  O   UNL     1      39.105  -8.214  12.278  1.00  0.00    -0.247 OA
HETATM   34  C   UNL     1      41.574  -9.844   7.316  1.00  0.00     0.032 A 
HETATM   35  H   UNL     1      37.715  -9.311  10.261  1.00  0.00     0.170 HD
ENDBRANCH  21  24
ENDBRANCH  19  20
ENDBRANCH   1  19
TORSDOF 8
ENDMDL
