MODEL 1
REMARK VINA RESULT:      -8.2      0.000      0.000
REMARK  5 active torsions:
REMARK  status: ('A' for Active; 'I' for Inactive)
REMARK    1  A    between atoms: C_2  and  O_3 
REMARK    2  A    between atoms: C_2  and  C_4 
REMARK    3  A    between atoms: C_4  and  N_5 
REMARK       I    between atoms: N_5  and  C_6 
REMARK    4  A    between atoms: C_6  and  C_7 
REMARK    5  A    between atoms: C_15  and  C_16 
ROOT
HETATM    1  C   UNL     1      43.186 -12.990   6.062  1.00  0.00     0.046 A 
HETATM    2  C   UNL     1      42.002 -12.356   5.626  1.00  0.00     0.008 A 
HETATM    3  C   UNL     1      41.232 -13.070   4.690  1.00  0.00     0.068 A 
HETATM    4  C   UNL     1      40.048 -12.510   4.228  1.00  0.00     0.032 A 
HETATM    5  C   UNL     1      39.598 -11.263   4.664  1.00  0.00     0.002 A 
HETATM    6  C   UNL     1      40.346 -10.550   5.589  1.00  0.00     0.001 A 
HETATM    7  C   UNL     1      41.537 -11.091   6.070  1.00  0.00     0.015 A 
HETATM    8  N   UNL     1      41.585 -14.280   4.222  1.00  0.00    -0.248 NA
HETATM    9  C   UNL     1      42.739 -14.859   4.632  1.00  0.00     0.068 A 
HETATM   10  C   UNL     1      43.560 -14.239   5.558  1.00  0.00     0.050 A 
ENDROOT
BRANCH   1  11
HETATM   11  C   UNL     1      44.094 -12.354   7.049  1.00  0.00     0.252 C 
HETATM   12  N   UNL     1      45.149 -11.654   6.507  1.00  0.00    -0.354 N 
HETATM   13  H   UNL     1      45.334 -11.709   5.514  1.00  0.00     0.162 HD
HETATM   14  O   UNL     1      43.893 -12.465   8.251  1.00  0.00    -0.268 OA
BRANCH  12  15
HETATM   15  C   UNL     1      46.119 -10.971   7.344  1.00  0.00     0.154 C 
BRANCH  15  16
HETATM   16  C   UNL     1      45.668  -9.584   7.829  1.00  0.00     0.132 C 
HETATM   17  C   UNL     1      45.505  -9.525   9.343  1.00  0.00     0.041 C 
BRANCH  16  18
HETATM   18  O   UNL     1      46.660  -8.627   7.449  1.00  0.00    -0.394 OA
HETATM   19  H   UNL     1      46.306  -7.746   7.665  1.00  0.00     0.210 HD
ENDBRANCH  16  18
ENDBRANCH  15  16
ENDBRANCH  12  15
ENDBRANCH   1  11
BRANCH   9  20
HETATM   20  C   UNL     1      43.036 -16.182   4.040  1.00  0.00    -0.007 A 
HETATM   21  C   UNL     1      43.884 -17.114   4.668  1.00  0.00     0.015 A 
HETATM   22  C   UNL     1      44.146 -18.366   4.095  1.00  0.00     0.024 A 
HETATM   23  C   UNL     1      43.565 -18.705   2.877  1.00  0.00     0.034 A 
HETATM   24 CL   UNL     1      43.885 -20.242   2.175  1.00  0.00    -0.084 Cl
HETATM   25  C   UNL     1      42.732 -17.804   2.225  1.00  0.00     0.024 A 
HETATM   26  C   UNL     1      42.474 -16.555   2.802  1.00  0.00     0.015 A 
ENDBRANCH   9  20
TORSDOF 5
ENDMDL
MODEL 2
REMARK VINA RESULT:      -8.2      4.218      6.241
REMARK  5 active torsions:
REMARK  status: ('A' for Active; 'I' for Inactive)
REMARK    1  A    between atoms: C_2  and  O_3 
REMARK    2  A    between atoms: C_2  and  C_4 
REMARK    3  A    between atoms: C_4  and  N_5 
REMARK       I    between atoms: N_5  and  C_6 
REMARK    4  A    between atoms: C_6  and  C_7 
REMARK    5  A    between atoms: C_15  and  C_16 
ROOT
HETATM    1  C   UNL     1      41.577 -13.644   2.000  1.00  0.00     0.046 A 
HETATM    2  C   UNL     1      42.069 -12.742   2.970  1.00  0.00     0.008 A 
HETATM    3  C   UNL     1      42.890 -13.300   3.965  1.00  0.00     0.068 A 
HETATM    4  C   UNL     1      43.418 -12.467   4.944  1.00  0.00     0.032 A 
HETATM    5  C   UNL     1      43.160 -11.096   4.969  1.00  0.00     0.002 A 
HETATM    6  C   UNL     1      42.354 -10.533   3.990  1.00  0.00     0.001 A 
HETATM    7  C   UNL     1      41.814 -11.346   2.996  1.00  0.00     0.015 A 
HETATM    8  N   UNL     1      43.198 -14.607   4.014  1.00  0.00    -0.248 NA
HETATM    9  C   UNL     1      42.694 -15.461   3.091  1.00  0.00     0.068 A 
HETATM   10  C   UNL     1      41.883 -15.007   2.065  1.00  0.00     0.050 A 
ENDROOT
BRANCH   1  11
HETATM   11  C   UNL     1      40.701 -13.194   0.889  1.00  0.00     0.252 C 
HETATM   12  N   UNL     1      41.351 -12.928  -0.296  1.00  0.00    -0.354 N 
HETATM   13  H   UNL     1      42.363 -12.921  -0.326  1.00  0.00     0.162 HD
HETATM   14  O   UNL     1      39.495 -13.074   1.048  1.00  0.00    -0.268 OA
BRANCH  12  15
HETATM   15  C   UNL     1      40.630 -12.487  -1.476  1.00  0.00     0.154 C 
BRANCH  15  16
HETATM   16  C   UNL     1      40.331 -13.604  -2.489  1.00  0.00     0.132 C 
HETATM   17  C   UNL     1      38.975 -13.429  -3.160  1.00  0.00     0.041 C 
BRANCH  16  18
HETATM   18  O   UNL     1      41.339 -13.577  -3.503  1.00  0.00    -0.394 OA
HETATM   19  H   UNL     1      41.389 -12.662  -3.832  1.00  0.00     0.210 HD
ENDBRANCH  16  18
ENDBRANCH  15  16
ENDBRANCH  12  15
ENDBRANCH   1  11
BRANCH   9  20
HETATM   20  C   UNL     1      43.084 -16.879   3.249  1.00  0.00    -0.007 A 
HETATM   21  C   UNL     1      43.707 -17.363   4.416  1.00  0.00     0.015 A 
HETATM   22  C   UNL     1      44.059 -18.712   4.550  1.00  0.00     0.024 A 
HETATM   23  C   UNL     1      43.799 -19.603   3.513  1.00  0.00     0.034 A 
HETATM   24 CL   UNL     1      44.231 -21.259   3.679  1.00  0.00    -0.084 Cl
HETATM   25  C   UNL     1      43.196 -19.156   2.344  1.00  0.00     0.024 A 
HETATM   26  C   UNL     1      42.846 -17.807   2.215  1.00  0.00     0.015 A 
ENDBRANCH   9  20
TORSDOF 5
ENDMDL
MODEL 3
REMARK VINA RESULT:      -8.1      2.329      3.059
REMARK  5 active torsions:
REMARK  status: ('A' for Active; 'I' for Inactive)
REMARK    1  A    between atoms: C_2  and  O_3 
REMARK    2  A    between atoms: C_2  and  C_4 
REMARK    3  A    between atoms: C_4  and  N_5 
REMARK       I    between atoms: N_5  and  C_6 
REMARK    4  A    between atoms: C_6  and  C_7 
REMARK    5  A    between atoms: C_15  and  C_16 
ROOT
HETATM    1  C   UNL     1      42.986 -13.061   3.429  1.00  0.00     0.046 A 
HETATM    2  C   UNL     1      42.204 -12.710   2.307  1.00  0.00     0.008 A 
HETATM    3  C   UNL     1      41.768 -13.779   1.503  1.00  0.00     0.068 A 
HETATM    4  C   UNL     1      40.984 -13.506   0.390  1.00  0.00     0.032 A 
HETATM    5  C   UNL     1      40.614 -12.205   0.044  1.00  0.00     0.002 A 
HETATM    6  C   UNL     1      41.034 -11.142   0.830  1.00  0.00     0.001 A 
HETATM    7  C   UNL     1      41.820 -11.390   1.954  1.00  0.00     0.015 A 
HETATM    8  N   UNL     1      42.070 -15.062   1.765  1.00  0.00    -0.248 NA
HETATM    9  C   UNL     1      42.845 -15.377   2.831  1.00  0.00     0.068 A 
HETATM   10  C   UNL     1      43.315 -14.395   3.687  1.00  0.00     0.050 A 
ENDROOT
BRANCH   1  11
HETATM   11  C   UNL     1      43.511 -12.036   4.365  1.00  0.00     0.252 C 
HETATM   12  N   UNL     1      42.891 -11.996   5.595  1.00  0.00    -0.354 N 
HETATM   13  H   UNL     1      42.058 -12.546   5.757  1.00  0.00     0.162 HD
HETATM   14  O   UNL     1      44.426 -11.293   4.037  1.00  0.00    -0.268 OA
BRANCH  12  15
HETATM   15  C   UNL     1      43.298 -11.053   6.621  1.00  0.00     0.154 C 
BRANCH  15  16
HETATM   16  C   UNL     1      44.350 -11.599   7.600  1.00  0.00     0.132 C 
HETATM   17  C   UNL     1      45.678 -10.860   7.494  1.00  0.00     0.041 C 
BRANCH  16  18
HETATM   18  O   UNL     1      43.854 -11.440   8.932  1.00  0.00    -0.394 OA
HETATM   19  H   UNL     1      43.553 -12.316   9.231  1.00  0.00     0.210 HD
ENDBRANCH  16  18
ENDBRANCH  15  16
ENDBRANCH  12  15
ENDBRANCH   1  11
BRANCH   9  20
HETATM   20  C   UNL     1      43.127 -16.817   3.015  1.00  0.00    -0.007 A 
HETATM   21  C   UNL     1      42.810 -17.778   2.036  1.00  0.00     0.015 A 
HETATM   22  C   UNL     1      43.095 -19.136   2.226  1.00  0.00     0.024 A 
HETATM   23  C   UNL     1      43.700 -19.559   3.405  1.00  0.00     0.034 A 
HETATM   24 CL   UNL     1      44.051 -21.226   3.637  1.00  0.00    -0.084 Cl
HETATM   25  C   UNL     1      44.016 -18.639   4.396  1.00  0.00     0.024 A 
HETATM   26  C   UNL     1      43.730 -17.282   4.201  1.00  0.00     0.015 A 
ENDBRANCH   9  20
TORSDOF 5
ENDMDL
MODEL 4
REMARK VINA RESULT:      -8.1      3.953      7.433
REMARK  5 active torsions:
REMARK  status: ('A' for Active; 'I' for Inactive)
REMARK    1  A    between atoms: C_2  and  O_3 
REMARK    2  A    between atoms: C_2  and  C_4 
REMARK    3  A    between atoms: C_4  and  N_5 
REMARK       I    between atoms: N_5  and  C_6 
REMARK    4  A    between atoms: C_6  and  C_7 
REMARK    5  A    between atoms: C_15  and  C_16 
ROOT
HETATM    1  C   UNL     1      42.845 -15.859   4.800  1.00  0.00     0.046 A 
HETATM    2  C   UNL     1      41.979 -15.542   3.730  1.00  0.00     0.008 A 
HETATM    3  C   UNL     1      41.714 -14.175   3.538  1.00  0.00     0.068 A 
HETATM    4  C   UNL     1      40.879 -13.793   2.496  1.00  0.00     0.032 A 
HETATM    5  C   UNL     1      40.297 -14.723   1.633  1.00  0.00     0.002 A 
HETATM    6  C   UNL     1      40.554 -16.074   1.809  1.00  0.00     0.001 A 
HETATM    7  C   UNL     1      41.390 -16.483   2.846  1.00  0.00     0.015 A 
HETATM    8  N   UNL     1      42.237 -13.211   4.316  1.00  0.00    -0.248 NA
HETATM    9  C   UNL     1      43.044 -13.536   5.354  1.00  0.00     0.068 A 
HETATM   10  C   UNL     1      43.372 -14.855   5.619  1.00  0.00     0.050 A 
ENDROOT
BRANCH   1  11
HETATM   11  C   UNL     1      43.215 -17.261   5.116  1.00  0.00     0.252 C 
HETATM   12  N   UNL     1      43.920 -17.915   4.130  1.00  0.00    -0.354 N 
HETATM   13  H   UNL     1      44.036 -17.484   3.222  1.00  0.00     0.162 HD
HETATM   14  O   UNL     1      42.899 -17.770   6.183  1.00  0.00    -0.268 OA
BRANCH  12  15
HETATM   15  C   UNL     1      44.360 -19.289   4.295  1.00  0.00     0.154 C 
BRANCH  15  16
HETATM   16  C   UNL     1      43.526 -20.318   3.514  1.00  0.00     0.132 C 
HETATM   17  C   UNL     1      43.309 -19.906   2.063  1.00  0.00     0.041 C 
BRANCH  16  18
HETATM   18  O   UNL     1      44.222 -21.567   3.525  1.00  0.00    -0.394 OA
HETATM   19  H   UNL     1      45.015 -21.457   2.971  1.00  0.00     0.210 HD
ENDBRANCH  16  18
ENDBRANCH  15  16
ENDBRANCH  12  15
ENDBRANCH   1  11
BRANCH   9  20
HETATM   20  C   UNL     1      43.550 -12.398   6.153  1.00  0.00    -0.007 A 
HETATM   21  C   UNL     1      44.874 -12.342   6.630  1.00  0.00     0.015 A 
HETATM   22  C   UNL     1      45.335 -11.251   7.376  1.00  0.00     0.024 A 
HETATM   23  C   UNL     1      44.476 -10.195   7.664  1.00  0.00     0.034 A 
HETATM   24 CL   UNL     1      45.044  -8.854   8.580  1.00  0.00    -0.084 Cl
HETATM   25  C   UNL     1      43.160 -10.224   7.219  1.00  0.00     0.024 A 
HETATM   26  C   UNL     1      42.704 -11.317   6.472  1.00  0.00     0.015 A 
ENDBRANCH   9  20
TORSDOF 5
ENDMDL
MODEL 5
REMARK VINA RESULT:      -8.1      3.648      5.662
REMARK  5 active torsions:
REMARK  status: ('A' for Active; 'I' for Inactive)
REMARK    1  A    between atoms: C_2  and  O_3 
REMARK    2  A    between atoms: C_2  and  C_4 
REMARK    3  A    between atoms: C_4  and  N_5 
REMARK       I    between atoms: N_5  and  C_6 
REMARK    4  A    between atoms: C_6  and  C_7 
REMARK    5  A    between atoms: C_15  and  C_16 
ROOT
HETATM    1  C   UNL     1      42.100 -14.155   3.784  1.00  0.00     0.046 A 
HETATM    2  C   UNL     1      42.612 -15.467   3.685  1.00  0.00     0.008 A 
HETATM    3  C   UNL     1      42.257 -16.178   2.525  1.00  0.00     0.068 A 
HETATM    4  C   UNL     1      42.737 -17.471   2.356  1.00  0.00     0.032 A 
HETATM    5  C   UNL     1      43.559 -18.085   3.302  1.00  0.00     0.002 A 
HETATM    6  C   UNL     1      43.920 -17.394   4.449  1.00  0.00     0.001 A 
HETATM    7  C   UNL     1      43.453 -16.094   4.640  1.00  0.00     0.015 A 
HETATM    8  N   UNL     1      41.476 -15.663   1.559  1.00  0.00    -0.248 NA
HETATM    9  C   UNL     1      40.972 -14.412   1.686  1.00  0.00     0.068 A 
HETATM   10  C   UNL     1      41.272 -13.629   2.788  1.00  0.00     0.050 A 
ENDROOT
BRANCH   1  11
HETATM   11  C   UNL     1      42.395 -13.289   4.953  1.00  0.00     0.252 C 
HETATM   12  N   UNL     1      43.368 -12.336   4.742  1.00  0.00    -0.354 N 
HETATM   13  H   UNL     1      43.910 -12.349   3.888  1.00  0.00     0.162 HD
HETATM   14  O   UNL     1      41.804 -13.437   6.013  1.00  0.00    -0.268 OA
BRANCH  12  15
HETATM   15  C   UNL     1      43.763 -11.408   5.787  1.00  0.00     0.154 C 
BRANCH  15  16
HETATM   16  C   UNL     1      44.654 -12.025   6.876  1.00  0.00     0.132 C 
HETATM   17  C   UNL     1      45.756 -11.076   7.329  1.00  0.00     0.041 C 
BRANCH  16  18
HETATM   18  O   UNL     1      43.837 -12.335   8.008  1.00  0.00    -0.394 OA
HETATM   19  H   UNL     1      44.186 -13.156   8.397  1.00  0.00     0.210 HD
ENDBRANCH  16  18
ENDBRANCH  15  16
ENDBRANCH  12  15
ENDBRANCH   1  11
BRANCH   9  20
HETATM   20  C   UNL     1      40.113 -13.952   0.574  1.00  0.00    -0.007 A 
HETATM   21  C   UNL     1      39.858 -14.748  -0.560  1.00  0.00     0.015 A 
HETATM   22  C   UNL     1      39.033 -14.297  -1.598  1.00  0.00     0.024 A 
HETATM   23  C   UNL     1      38.450 -13.035  -1.523  1.00  0.00     0.034 A 
HETATM   24 CL   UNL     1      37.436 -12.483  -2.797  1.00  0.00    -0.084 Cl
HETATM   25  C   UNL     1      38.690 -12.220  -0.424  1.00  0.00     0.024 A 
HETATM   26  C   UNL     1      39.515 -12.676   0.611  1.00  0.00     0.015 A 
ENDBRANCH   9  20
TORSDOF 5
ENDMDL
MODEL 6
REMARK VINA RESULT:      -8.0      4.133      6.522
REMARK  5 active torsions:
REMARK  status: ('A' for Active; 'I' for Inactive)
REMARK    1  A    between atoms: C_2  and  O_3 
REMARK    2  A    between atoms: C_2  and  C_4 
REMARK    3  A    between atoms: C_4  and  N_5 
REMARK       I    between atoms: N_5  and  C_6 
REMARK    4  A    between atoms: C_6  and  C_7 
REMARK    5  A    between atoms: C_15  and  C_16 
ROOT
HETATM    1  C   UNL     1      40.801 -13.863   2.052  1.00  0.00     0.046 A 
HETATM    2  C   UNL     1      40.317 -13.135   3.161  1.00  0.00     0.008 A 
HETATM    3  C   UNL     1      40.626 -13.665   4.426  1.00  0.00     0.068 A 
HETATM    4  C   UNL     1      40.191 -12.993   5.561  1.00  0.00     0.032 A 
HETATM    5  C   UNL     1      39.458 -11.807   5.484  1.00  0.00     0.002 A 
HETATM    6  C   UNL     1      39.150 -11.271   4.242  1.00  0.00     0.001 A 
HETATM    7  C   UNL     1      39.577 -11.926   3.089  1.00  0.00     0.015 A 
HETATM    8  N   UNL     1      41.333 -14.797   4.593  1.00  0.00    -0.248 NA
HETATM    9  C   UNL     1      41.765 -15.496   3.516  1.00  0.00     0.068 A 
HETATM   10  C   UNL     1      41.519 -15.050   2.229  1.00  0.00     0.050 A 
ENDROOT
BRANCH   1  11
HETATM   11  C   UNL     1      40.553 -13.418   0.658  1.00  0.00     0.252 C 
HETATM   12  N   UNL     1      39.384 -13.883   0.096  1.00  0.00    -0.354 N 
HETATM   13  H   UNL     1      38.834 -14.581   0.580  1.00  0.00     0.162 HD
HETATM   14  O   UNL     1      41.350 -12.695   0.076  1.00  0.00    -0.268 OA
BRANCH  12  15
HETATM   15  C   UNL     1      38.998 -13.529  -1.258  1.00  0.00     0.154 C 
BRANCH  15  16
HETATM   16  C   UNL     1      39.514 -14.495  -2.336  1.00  0.00     0.132 C 
HETATM   17  C   UNL     1      38.502 -14.709  -3.454  1.00  0.00     0.041 C 
BRANCH  16  18
HETATM   18  O   UNL     1      40.703 -13.943  -2.908  1.00  0.00    -0.394 OA
HETATM   19  H   UNL     1      40.854 -13.083  -2.479  1.00  0.00     0.210 HD
ENDBRANCH  16  18
ENDBRANCH  15  16
ENDBRANCH  12  15
ENDBRANCH   1  11
BRANCH   9  20
HETATM   20  C   UNL     1      42.518 -16.733   3.817  1.00  0.00    -0.007 A 
HETATM   21  C   UNL     1      42.953 -17.614   2.807  1.00  0.00     0.015 A 
HETATM   22  C   UNL     1      43.673 -18.776   3.113  1.00  0.00     0.024 A 
HETATM   23  C   UNL     1      43.967 -19.081   4.438  1.00  0.00     0.034 A 
HETATM   24 CL   UNL     1      44.853 -20.507   4.812  1.00  0.00    -0.084 Cl
HETATM   25  C   UNL     1      43.543 -18.239   5.459  1.00  0.00     0.024 A 
HETATM   26  C   UNL     1      42.825 -17.079   5.148  1.00  0.00     0.015 A 
ENDBRANCH   9  20
TORSDOF 5
ENDMDL
MODEL 7
REMARK VINA RESULT:      -7.5      3.160      5.473
REMARK  5 active torsions:
REMARK  status: ('A' for Active; 'I' for Inactive)
REMARK    1  A    between atoms: C_2  and  O_3 
REMARK    2  A    between atoms: C_2  and  C_4 
REMARK    3  A    between atoms: C_4  and  N_5 
REMARK       I    between atoms: N_5  and  C_6 
REMARK    4  A    between atoms: C_6  and  C_7 
REMARK    5  A    between atoms: C_15  and  C_16 
ROOT
HETATM    1  C   UNL     1      41.494 -13.581   3.779  1.00  0.00     0.046 A 
HETATM    2  C   UNL     1      42.183 -12.982   4.857  1.00  0.00     0.008 A 
HETATM    3  C   UNL     1      43.151 -13.783   5.488  1.00  0.00     0.068 A 
HETATM    4  C   UNL     1      43.875 -13.252   6.547  1.00  0.00     0.032 A 
HETATM    5  C   UNL     1      43.673 -11.948   7.004  1.00  0.00     0.002 A 
HETATM    6  C   UNL     1      42.723 -11.146   6.388  1.00  0.00     0.001 A 
HETATM    7  C   UNL     1      41.985 -11.655   5.321  1.00  0.00     0.015 A 
HETATM    8  N   UNL     1      43.417 -15.045   5.110  1.00  0.00    -0.248 NA
HETATM    9  C   UNL     1      42.726 -15.612   4.091  1.00  0.00     0.068 A 
HETATM   10  C   UNL     1      41.760 -14.901   3.401  1.00  0.00     0.050 A 
ENDROOT
BRANCH   1  11
HETATM   11  C   UNL     1      40.448 -12.852   3.020  1.00  0.00     0.252 C 
HETATM   12  N   UNL     1      40.796 -12.505   1.732  1.00  0.00    -0.354 N 
HETATM   13  H   UNL     1      41.748 -12.635   1.415  1.00  0.00     0.162 HD
HETATM   14  O   UNL     1      39.368 -12.589   3.529  1.00  0.00    -0.268 OA
BRANCH  12  15
HETATM   15  C   UNL     1      39.877 -11.795   0.861  1.00  0.00     0.154 C 
BRANCH  15  16
HETATM   16  C   UNL     1      39.432 -12.594  -0.374  1.00  0.00     0.132 C 
HETATM   17  C   UNL     1      39.895 -14.045  -0.322  1.00  0.00     0.041 C 
BRANCH  16  18
HETATM   18  O   UNL     1      38.003 -12.582  -0.431  1.00  0.00    -0.394 OA
HETATM   19  H   UNL     1      37.752 -12.008  -1.176  1.00  0.00     0.210 HD
ENDBRANCH  16  18
ENDBRANCH  15  16
ENDBRANCH  12  15
ENDBRANCH   1  11
BRANCH   9  20
HETATM   20  C   UNL     1      43.090 -17.009   3.771  1.00  0.00    -0.007 A 
HETATM   21  C   UNL     1      42.778 -17.603   2.532  1.00  0.00     0.015 A 
HETATM   22  C   UNL     1      43.140 -18.926   2.245  1.00  0.00     0.024 A 
HETATM   23  C   UNL     1      43.817 -19.681   3.198  1.00  0.00     0.034 A 
HETATM   24 CL   UNL     1      44.262 -21.305   2.844  1.00  0.00    -0.084 Cl
HETATM   25  C   UNL     1      44.129 -19.130   4.434  1.00  0.00     0.024 A 
HETATM   26  C   UNL     1      43.766 -17.808   4.715  1.00  0.00     0.015 A 
ENDBRANCH   9  20
TORSDOF 5
ENDMDL
MODEL 8
REMARK VINA RESULT:      -7.4     16.614     17.544
REMARK  5 active torsions:
REMARK  status: ('A' for Active; 'I' for Inactive)
REMARK    1  A    between atoms: C_2  and  O_3 
REMARK    2  A    between atoms: C_2  and  C_4 
REMARK    3  A    between atoms: C_4  and  N_5 
REMARK       I    between atoms: N_5  and  C_6 
REMARK    4  A    between atoms: C_6  and  C_7 
REMARK    5  A    between atoms: C_15  and  C_16 
ROOT
HETATM    1  C   UNL     1      46.058 -29.069   1.211  1.00  0.00     0.046 A 
HETATM    2  C   UNL     1      45.886 -28.774  -0.159  1.00  0.00     0.008 A 
HETATM    3  C   UNL     1      44.627 -29.087  -0.701  1.00  0.00     0.068 A 
HETATM    4  C   UNL     1      44.385 -28.812  -2.041  1.00  0.00     0.032 A 
HETATM    5  C   UNL     1      45.352 -28.234  -2.865  1.00  0.00     0.002 A 
HETATM    6  C   UNL     1      46.597 -27.917  -2.342  1.00  0.00     0.001 A 
HETATM    7  C   UNL     1      46.864 -28.181  -1.000  1.00  0.00     0.015 A 
HETATM    8  N   UNL     1      43.635 -29.638   0.020  1.00  0.00    -0.248 NA
HETATM    9  C   UNL     1      43.829 -29.939   1.327  1.00  0.00     0.068 A 
HETATM   10  C   UNL     1      45.031 -29.660   1.954  1.00  0.00     0.050 A 
ENDROOT
BRANCH   1  11
HETATM   11  C   UNL     1      47.334 -28.789   1.915  1.00  0.00     0.252 C 
HETATM   12  N   UNL     1      48.162 -29.878   2.081  1.00  0.00    -0.354 N 
HETATM   13  H   UNL     1      47.828 -30.805   1.848  1.00  0.00     0.162 HD
HETATM   14  O   UNL     1      47.601 -27.663   2.311  1.00  0.00    -0.268 OA
BRANCH  12  15
HETATM   15  C   UNL     1      49.448 -29.762   2.744  1.00  0.00     0.154 C 
BRANCH  15  16
HETATM   16  C   UNL     1      50.634 -30.285   1.918  1.00  0.00     0.132 C 
HETATM   17  C   UNL     1      50.567 -31.791   1.698  1.00  0.00     0.041 C 
BRANCH  16  18
HETATM   18  O   UNL     1      50.613 -29.645   0.639  1.00  0.00    -0.394 OA
HETATM   19  H   UNL     1      51.470 -29.197   0.529  1.00  0.00     0.210 HD
ENDBRANCH  16  18
ENDBRANCH  15  16
ENDBRANCH  12  15
ENDBRANCH   1  11
BRANCH   9  20
HETATM   20  C   UNL     1      42.677 -30.557   2.019  1.00  0.00    -0.007 A 
HETATM   21  C   UNL     1      41.895 -31.567   1.426  1.00  0.00     0.015 A 
HETATM   22  C   UNL     1      40.814 -32.146   2.103  1.00  0.00     0.024 A 
HETATM   23  C   UNL     1      40.492 -31.719   3.388  1.00  0.00     0.034 A 
HETATM   24 CL   UNL     1      39.165 -32.431   4.219  1.00  0.00    -0.084 Cl
HETATM   25  C   UNL     1      41.235 -30.717   3.997  1.00  0.00     0.024 A 
HETATM   26  C   UNL     1      42.315 -30.142   3.317  1.00  0.00     0.015 A 
ENDBRANCH   9  20
TORSDOF 5
ENDMDL
MODEL 9
REMARK VINA RESULT:      -7.3     11.307     14.852
REMARK  5 active torsions:
REMARK  status: ('A' for Active; 'I' for Inactive)
REMARK    1  A    between atoms: C_2  and  O_3 
REMARK    2  A    between atoms: C_2  and  C_4 
REMARK    3  A    between atoms: C_4  and  N_5 
REMARK       I    between atoms: N_5  and  C_6 
REMARK    4  A    between atoms: C_6  and  C_7 
REMARK    5  A    between atoms: C_15  and  C_16 
ROOT
HETATM    1  C   UNL     1      40.637  -7.581  18.724  1.00  0.00     0.046 A 
HETATM    2  C   UNL     1      40.843  -6.216  19.021  1.00  0.00     0.008 A 
HETATM    3  C   UNL     1      41.428  -5.447  17.999  1.00  0.00     0.068 A 
HETATM    4  C   UNL     1      41.649  -4.094  18.219  1.00  0.00     0.032 A 
HETATM    5  C   UNL     1      41.308  -3.473  19.422  1.00  0.00     0.002 A 
HETATM    6  C   UNL     1      40.726  -4.219  20.437  1.00  0.00     0.001 A 
HETATM    7  C   UNL     1      40.493  -5.579  20.239  1.00  0.00     0.015 A 
HETATM    8  N   UNL     1      41.782  -5.960  16.807  1.00  0.00    -0.248 NA
HETATM    9  C   UNL     1      41.600  -7.278  16.552  1.00  0.00     0.068 A 
HETATM   10  C   UNL     1      41.023  -8.115  17.491  1.00  0.00     0.050 A 
ENDROOT
BRANCH   1  11
HETATM   11  C   UNL     1      40.025  -8.509  19.708  1.00  0.00     0.252 C 
HETATM   12  N   UNL     1      40.915  -9.123  20.562  1.00  0.00    -0.354 N 
HETATM   13  H   UNL     1      41.910  -9.027  20.409  1.00  0.00     0.162 HD
HETATM   14  O   UNL     1      38.817  -8.697  19.730  1.00  0.00    -0.268 OA
BRANCH  12  15
HETATM   15  C   UNL     1      40.469 -10.052  21.585  1.00  0.00     0.154 C 
BRANCH  15  16
HETATM   16  C   UNL     1      40.217  -9.408  22.958  1.00  0.00     0.132 C 
HETATM   17  C   UNL     1      41.203  -8.288  23.261  1.00  0.00     0.041 C 
BRANCH  16  18
HETATM   18  O   UNL     1      38.898  -8.856  22.964  1.00  0.00    -0.394 OA
HETATM   19  H   UNL     1      38.992  -7.889  22.907  1.00  0.00     0.210 HD
ENDBRANCH  16  18
ENDBRANCH  15  16
ENDBRANCH  12  15
ENDBRANCH   1  11
BRANCH   9  20
HETATM   20  C   UNL     1      42.040  -7.738  15.216  1.00  0.00    -0.007 A 
HETATM   21  C   UNL     1      43.065  -7.093  14.497  1.00  0.00     0.015 A 
HETATM   22  C   UNL     1      43.472  -7.551  13.238  1.00  0.00     0.024 A 
HETATM   23  C   UNL     1      42.855  -8.662  12.671  1.00  0.00     0.034 A 
HETATM   24 CL   UNL     1      43.357  -9.223  11.125  1.00  0.00    -0.084 Cl
HETATM   25  C   UNL     1      41.833  -9.313  13.348  1.00  0.00     0.024 A 
HETATM   26  C   UNL     1      41.430  -8.853  14.607  1.00  0.00     0.015 A 
ENDBRANCH   9  20
TORSDOF 5
ENDMDL
MODEL 10
REMARK VINA RESULT:      -7.3      3.461      4.677
REMARK  5 active torsions:
REMARK  status: ('A' for Active; 'I' for Inactive)
REMARK    1  A    between atoms: C_2  and  O_3 
REMARK    2  A    between atoms: C_2  and  C_4 
REMARK    3  A    between atoms: C_4  and  N_5 
REMARK       I    between atoms: N_5  and  C_6 
REMARK    4  A    between atoms: C_6  and  C_7 
REMARK    5  A    between atoms: C_15  and  C_16 
ROOT
HETATM    1  C   UNL     1      40.749 -13.230   2.909  1.00  0.00     0.046 A 
HETATM    2  C   UNL     1      40.249 -13.327   1.592  1.00  0.00     0.008 A 
HETATM    3  C   UNL     1      40.498 -14.541   0.928  1.00  0.00     0.068 A 
HETATM    4  C   UNL     1      40.024 -14.709  -0.367  1.00  0.00     0.032 A 
HETATM    5  C   UNL     1      39.308 -13.710  -1.028  1.00  0.00     0.002 A 
HETATM    6  C   UNL     1      39.052 -12.509  -0.384  1.00  0.00     0.001 A 
HETATM    7  C   UNL     1      39.515 -12.317   0.917  1.00  0.00     0.015 A 
HETATM    8  N   UNL     1      41.173 -15.559   1.491  1.00  0.00    -0.248 NA
HETATM    9  C   UNL     1      41.668 -15.437   2.747  1.00  0.00     0.068 A 
HETATM   10  C   UNL     1      41.467 -14.283   3.485  1.00  0.00     0.050 A 
ENDROOT
BRANCH   1  11
HETATM   11  C   UNL     1      40.557 -12.008   3.729  1.00  0.00     0.252 C 
HETATM   12  N   UNL     1      39.440 -12.015   4.535  1.00  0.00    -0.354 N 
HETATM   13  H   UNL     1      38.756 -12.756   4.444  1.00  0.00     0.162 HD
HETATM   14  O   UNL     1      41.348 -11.078   3.667  1.00  0.00    -0.268 OA
BRANCH  12  15
HETATM   15  C   UNL     1      39.120 -10.895   5.402  1.00  0.00     0.154 C 
BRANCH  15  16
HETATM   16  C   UNL     1      39.841 -10.919   6.758  1.00  0.00     0.132 C 
HETATM   17  C   UNL     1      40.224  -9.524   7.235  1.00  0.00     0.041 C 
BRANCH  16  18
HETATM   18  O   UNL     1      38.963 -11.497   7.728  1.00  0.00    -0.394 OA
HETATM   19  H   UNL     1      39.485 -11.638   8.538  1.00  0.00     0.210 HD
ENDBRANCH  16  18
ENDBRANCH  15  16
ENDBRANCH  12  15
ENDBRANCH   1  11
BRANCH   9  20
HETATM   20  C   UNL     1      42.407 -16.611   3.260  1.00  0.00    -0.007 A 
HETATM   21  C   UNL     1      42.871 -17.637   2.416  1.00  0.00     0.015 A 
HETATM   22  C   UNL     1      43.577 -18.736   2.922  1.00  0.00     0.024 A 
HETATM   23  C   UNL     1      43.828 -18.830   4.287  1.00  0.00     0.034 A 
HETATM   24 CL   UNL     1      44.696 -20.178   4.908  1.00  0.00    -0.084 Cl
HETATM   25  C   UNL     1      43.374 -17.840   5.150  1.00  0.00     0.024 A 
HETATM   26  C   UNL     1      42.669 -16.744   4.639  1.00  0.00     0.015 A 
ENDBRANCH   9  20
TORSDOF 5
ENDMDL
