MODEL 1
REMARK VINA RESULT:      -7.9      0.000      0.000
REMARK  4 active torsions:
REMARK  status: ('A' for Active; 'I' for Inactive)
REMARK    1  A    between atoms: C_6  and  C_7 
REMARK    2  A    between atoms: C_10  and  N_11 
REMARK       I    between atoms: N_11  and  C_12 
REMARK       I    between atoms: C_12  and  N_13 
REMARK    3  A    between atoms: N_13  and  C_14 
REMARK    4  A    between atoms: C_14  and  C_15 
ROOT
HETATM    1  N   UNL     1      40.793 -14.790   3.950  1.00  0.00    -0.305 N 
HETATM    2  C   UNL     1      41.999 -15.438   3.853  1.00  0.00     0.322 C 
HETATM    3  N   UNL     1      42.338 -16.232   4.948  1.00  0.00    -0.334 N 
HETATM    4  C   UNL     1      41.531 -16.389   6.151  1.00  0.00     0.155 C 
HETATM    5  O   UNL     1      42.741 -15.344   2.878  1.00  0.00    -0.247 OA
HETATM    6  H   UNL     1      40.172 -15.066   4.689  1.00  0.00     0.171 HD
ENDROOT
BRANCH   1   7
HETATM    7  C   UNL     1      40.262 -13.877   3.048  1.00  0.00     0.092 A 
HETATM    8  C   UNL     1      39.960 -12.586   3.444  1.00  0.00     0.053 A 
HETATM    9  C   UNL     1      40.095 -11.876   4.738  1.00  0.00     0.072 C 
HETATM   10  N   UNL     1      39.444 -11.968   2.344  1.00  0.00    -0.280 N 
HETATM   11  H   UNL     1      39.104 -11.015   2.259  1.00  0.00     0.189 HD
HETATM   12  N   UNL     1      39.400 -12.744   1.260  1.00  0.00    -0.171 NA
HETATM   13  C   UNL     1      39.933 -13.920   1.655  1.00  0.00     0.147 A 
BRANCH  13  14
HETATM   14  C   UNL     1      40.135 -15.023   0.652  1.00  0.00     0.409 C 
HETATM   15  F   UNL     1      39.728 -16.240   1.132  1.00  0.00    -0.207 F 
HETATM   16  F   UNL     1      39.379 -14.819  -0.467  1.00  0.00    -0.207 F 
ENDBRANCH  13  14
ENDBRANCH   1   7
BRANCH   3  17
HETATM   17  C   UNL     1      43.710 -16.739   5.016  1.00  0.00     0.165 C 
BRANCH  17  18
HETATM   18  C   UNL     1      43.790 -18.214   4.694  1.00  0.00    -0.039 A 
HETATM   19  C   UNL     1      43.746 -18.660   3.364  1.00  0.00     0.032 A 
HETATM   20  C   UNL     1      43.796 -20.025   3.079  1.00  0.00     0.034 A 
HETATM   21 CL   UNL     1      43.731 -20.555   1.443  1.00  0.00    -0.084 Cl
HETATM   22  C   UNL     1      43.892 -20.961   4.107  1.00  0.00     0.024 A 
HETATM   23  C   UNL     1      43.937 -20.528   5.432  1.00  0.00     0.002 A 
HETATM   24  C   UNL     1      43.885 -19.163   5.724  1.00  0.00     0.009 A 
ENDBRANCH  17  18
ENDBRANCH   3  17
TORSDOF 4
ENDMDL
MODEL 2
REMARK VINA RESULT:      -7.7      1.908      2.377
REMARK  4 active torsions:
REMARK  status: ('A' for Active; 'I' for Inactive)
REMARK    1  A    between atoms: C_6  and  C_7 
REMARK    2  A    between atoms: C_10  and  N_11 
REMARK       I    between atoms: N_11  and  C_12 
REMARK       I    between atoms: C_12  and  N_13 
REMARK    3  A    between atoms: N_13  and  C_14 
REMARK    4  A    between atoms: C_14  and  C_15 
ROOT
HETATM    1  N   UNL     1      41.136 -14.013   2.137  1.00  0.00    -0.305 N 
HETATM    2  C   UNL     1      42.278 -14.738   2.369  1.00  0.00     0.322 C 
HETATM    3  N   UNL     1      42.204 -15.644   3.426  1.00  0.00    -0.334 N 
HETATM    4  C   UNL     1      41.039 -15.841   4.281  1.00  0.00     0.155 C 
HETATM    5  O   UNL     1      43.303 -14.618   1.702  1.00  0.00    -0.247 OA
HETATM    6  H   UNL     1      40.296 -14.302   2.603  1.00  0.00     0.171 HD
ENDROOT
BRANCH   1   7
HETATM    7  C   UNL     1      40.971 -12.990   1.212  1.00  0.00     0.092 A 
HETATM    8  C   UNL     1      41.487 -11.728   1.452  1.00  0.00     0.053 A 
HETATM    9  C   UNL     1      42.263 -11.161   2.580  1.00  0.00     0.072 C 
HETATM   10  N   UNL     1      41.135 -10.969   0.377  1.00  0.00    -0.280 N 
HETATM   11  H   UNL     1      41.334  -9.987   0.207  1.00  0.00     0.189 HD
HETATM   12  N   UNL     1      40.448 -11.634  -0.552  1.00  0.00    -0.171 NA
HETATM   13  C   UNL     1      40.362 -12.897  -0.080  1.00  0.00     0.147 A 
BRANCH  13  14
HETATM   14  C   UNL     1      39.723 -13.967  -0.923  1.00  0.00     0.409 C 
HETATM   15  F   UNL     1      40.444 -14.230  -2.058  1.00  0.00    -0.207 F 
HETATM   16  F   UNL     1      39.673 -15.158  -0.258  1.00  0.00    -0.207 F 
ENDBRANCH  13  14
ENDBRANCH   1   7
BRANCH   3  17
HETATM   17  C   UNL     1      43.454 -16.256   3.881  1.00  0.00     0.165 C 
BRANCH  17  18
HETATM   18  C   UNL     1      43.504 -17.738   3.585  1.00  0.00    -0.039 A 
HETATM   19  C   UNL     1      43.946 -18.647   4.559  1.00  0.00     0.032 A 
HETATM   20  C   UNL     1      44.013 -20.011   4.268  1.00  0.00     0.034 A 
HETATM   21 CL   UNL     1      44.567 -21.111   5.470  1.00  0.00    -0.084 Cl
HETATM   22  C   UNL     1      43.641 -20.486   3.012  1.00  0.00     0.024 A 
HETATM   23  C   UNL     1      43.199 -19.591   2.038  1.00  0.00     0.002 A 
HETATM   24  C   UNL     1      43.132 -18.225   2.323  1.00  0.00     0.009 A 
ENDBRANCH  17  18
ENDBRANCH   3  17
TORSDOF 4
ENDMDL
MODEL 3
REMARK VINA RESULT:      -7.6      3.149      6.931
REMARK  4 active torsions:
REMARK  status: ('A' for Active; 'I' for Inactive)
REMARK    1  A    between atoms: C_6  and  C_7 
REMARK    2  A    between atoms: C_10  and  N_11 
REMARK       I    between atoms: N_11  and  C_12 
REMARK       I    between atoms: C_12  and  N_13 
REMARK    3  A    between atoms: N_13  and  C_14 
REMARK    4  A    between atoms: C_14  and  C_15 
ROOT
HETATM    1  N   UNL     1      43.401 -16.587   3.188  1.00  0.00    -0.305 N 
HETATM    2  C   UNL     1      42.175 -16.088   2.826  1.00  0.00     0.322 C 
HETATM    3  N   UNL     1      42.182 -14.778   2.351  1.00  0.00    -0.334 N 
HETATM    4  C   UNL     1      43.365 -13.932   2.243  1.00  0.00     0.155 C 
HETATM    5  O   UNL     1      41.132 -16.734   2.903  1.00  0.00    -0.247 OA
HETATM    6  H   UNL     1      44.216 -16.065   2.922  1.00  0.00     0.171 HD
ENDROOT
BRANCH   1   7
HETATM    7  C   UNL     1      43.661 -17.822   3.770  1.00  0.00     0.092 A 
HETATM    8  C   UNL     1      43.929 -17.924   5.123  1.00  0.00     0.053 A 
HETATM    9  C   UNL     1      44.000 -16.918   6.210  1.00  0.00     0.072 C 
HETATM   10  N   UNL     1      44.157 -19.246   5.361  1.00  0.00    -0.280 N 
HETATM   11  H   UNL     1      44.393 -19.695   6.241  1.00  0.00     0.189 HD
HETATM   12  N   UNL     1      44.045 -20.016   4.279  1.00  0.00    -0.171 NA
HETATM   13  C   UNL     1      43.703 -19.168   3.285  1.00  0.00     0.147 A 
BRANCH  13  14
HETATM   14  C   UNL     1      43.394 -19.709   1.915  1.00  0.00     0.409 C 
HETATM   15  F   UNL     1      44.251 -20.714   1.551  1.00  0.00    -0.207 F 
HETATM   16  F   UNL     1      42.153 -20.278   1.875  1.00  0.00    -0.207 F 
ENDBRANCH  13  14
ENDBRANCH   1   7
BRANCH   3  17
HETATM   17  C   UNL     1      40.889 -14.109   2.193  1.00  0.00     0.165 C 
BRANCH  17  18
HETATM   18  C   UNL     1      40.588 -13.783   0.748  1.00  0.00    -0.039 A 
HETATM   19  C   UNL     1      39.908 -14.701  -0.066  1.00  0.00     0.032 A 
HETATM   20  C   UNL     1      39.656 -14.400  -1.406  1.00  0.00     0.034 A 
HETATM   21 CL   UNL     1      38.830 -15.543  -2.393  1.00  0.00    -0.084 Cl
HETATM   22  C   UNL     1      40.074 -13.188  -1.951  1.00  0.00     0.024 A 
HETATM   23  C   UNL     1      40.750 -12.268  -1.149  1.00  0.00     0.002 A 
HETATM   24  C   UNL     1      41.007 -12.564   0.191  1.00  0.00     0.009 A 
ENDBRANCH  17  18
ENDBRANCH   3  17
TORSDOF 4
ENDMDL
MODEL 4
REMARK VINA RESULT:      -7.5      2.315      3.174
REMARK  4 active torsions:
REMARK  status: ('A' for Active; 'I' for Inactive)
REMARK    1  A    between atoms: C_6  and  C_7 
REMARK    2  A    between atoms: C_10  and  N_11 
REMARK       I    between atoms: N_11  and  C_12 
REMARK       I    between atoms: C_12  and  N_13 
REMARK    3  A    between atoms: N_13  and  C_14 
REMARK    4  A    between atoms: C_14  and  C_15 
ROOT
HETATM    1  N   UNL     1      41.400 -13.448   0.395  1.00  0.00    -0.305 N 
HETATM    2  C   UNL     1      40.975 -14.130   1.509  1.00  0.00     0.322 C 
HETATM    3  N   UNL     1      41.977 -14.784   2.224  1.00  0.00    -0.334 N 
HETATM    4  C   UNL     1      43.389 -14.806   1.861  1.00  0.00     0.155 C 
HETATM    5  O   UNL     1      39.802 -14.170   1.870  1.00  0.00    -0.247 OA
HETATM    6  H   UNL     1      42.388 -13.313   0.278  1.00  0.00     0.171 HD
ENDROOT
BRANCH   1   7
HETATM    7  C   UNL     1      40.604 -12.792  -0.535  1.00  0.00     0.092 A 
HETATM    8  C   UNL     1      40.618 -11.411  -0.630  1.00  0.00     0.053 A 
HETATM    9  C   UNL     1      41.371 -10.364   0.101  1.00  0.00     0.072 C 
HETATM   10  N   UNL     1      39.724 -11.094  -1.608  1.00  0.00    -0.280 N 
HETATM   11  H   UNL     1      39.463 -10.173  -1.947  1.00  0.00     0.189 HD
HETATM   12  N   UNL     1      39.140 -12.153  -2.169  1.00  0.00    -0.171 NA
HETATM   13  C   UNL     1      39.692 -13.220  -1.551  1.00  0.00     0.147 A 
BRANCH  13  14
HETATM   14  C   UNL     1      39.335 -14.610  -2.003  1.00  0.00     0.409 C 
HETATM   15  F   UNL     1      39.176 -15.471  -0.949  1.00  0.00    -0.207 F 
HETATM   16  F   UNL     1      38.134 -14.629  -2.651  1.00  0.00    -0.207 F 
ENDBRANCH  13  14
ENDBRANCH   1   7
BRANCH   3  17
HETATM   17  C   UNL     1      41.560 -15.728   3.262  1.00  0.00     0.165 C 
BRANCH  17  18
HETATM   18  C   UNL     1      42.556 -16.851   3.447  1.00  0.00    -0.039 A 
HETATM   19  C   UNL     1      42.592 -17.930   2.551  1.00  0.00     0.032 A 
HETATM   20  C   UNL     1      43.500 -18.973   2.745  1.00  0.00     0.034 A 
HETATM   21 CL   UNL     1      43.525 -20.294   1.642  1.00  0.00    -0.084 Cl
HETATM   22  C   UNL     1      44.379 -18.956   3.826  1.00  0.00     0.024 A 
HETATM   23  C   UNL     1      44.351 -17.887   4.721  1.00  0.00     0.002 A 
HETATM   24  C   UNL     1      43.444 -16.841   4.534  1.00  0.00     0.009 A 
ENDBRANCH  17  18
ENDBRANCH   3  17
TORSDOF 4
ENDMDL
MODEL 5
REMARK VINA RESULT:      -7.4      3.726      4.581
REMARK  4 active torsions:
REMARK  status: ('A' for Active; 'I' for Inactive)
REMARK    1  A    between atoms: C_6  and  C_7 
REMARK    2  A    between atoms: C_10  and  N_11 
REMARK       I    between atoms: N_11  and  C_12 
REMARK       I    between atoms: C_12  and  N_13 
REMARK    3  A    between atoms: N_13  and  C_14 
REMARK    4  A    between atoms: C_14  and  C_15 
ROOT
HETATM    1  N   UNL     1      42.947 -12.537   4.203  1.00  0.00    -0.305 N 
HETATM    2  C   UNL     1      42.361 -13.776   4.278  1.00  0.00     0.322 C 
HETATM    3  N   UNL     1      42.613 -14.620   3.197  1.00  0.00    -0.334 N 
HETATM    4  C   UNL     1      43.408 -14.268   2.027  1.00  0.00     0.155 C 
HETATM    5  O   UNL     1      41.666 -14.140   5.223  1.00  0.00    -0.247 OA
HETATM    6  H   UNL     1      43.642 -12.390   3.494  1.00  0.00     0.171 HD
ENDROOT
BRANCH   1   7
HETATM    7  C   UNL     1      42.787 -11.484   5.094  1.00  0.00     0.092 A 
HETATM    8  C   UNL     1      41.904 -10.454   4.822  1.00  0.00     0.053 A 
HETATM    9  C   UNL     1      40.987 -10.193   3.687  1.00  0.00     0.072 C 
HETATM   10  N   UNL     1      42.004  -9.588   5.870  1.00  0.00    -0.280 N 
HETATM   11  H   UNL     1      41.510  -8.712   6.011  1.00  0.00     0.189 HD
HETATM   12  N   UNL     1      42.866  -9.975   6.809  1.00  0.00    -0.171 NA
HETATM   13  C   UNL     1      43.340 -11.163   6.376  1.00  0.00     0.147 A 
BRANCH  13  14
HETATM   14  C   UNL     1      44.281 -11.954   7.243  1.00  0.00     0.409 C 
HETATM   15  F   UNL     1      44.021 -13.298   7.198  1.00  0.00    -0.207 F 
HETATM   16  F   UNL     1      45.571 -11.834   6.813  1.00  0.00    -0.207 F 
ENDBRANCH  13  14
ENDBRANCH   1   7
BRANCH   3  17
HETATM   17  C   UNL     1      41.818 -15.845   3.097  1.00  0.00     0.165 C 
BRANCH  17  18
HETATM   18  C   UNL     1      42.636 -17.082   3.393  1.00  0.00    -0.039 A 
HETATM   19  C   UNL     1      42.762 -18.103   2.439  1.00  0.00     0.032 A 
HETATM   20  C   UNL     1      43.500 -19.251   2.732  1.00  0.00     0.034 A 
HETATM   21 CL   UNL     1      43.635 -20.499   1.554  1.00  0.00    -0.084 Cl
HETATM   22  C   UNL     1      44.120 -19.398   3.971  1.00  0.00     0.024 A 
HETATM   23  C   UNL     1      44.002 -18.388   4.926  1.00  0.00     0.002 A 
HETATM   24  C   UNL     1      43.263 -17.238   4.640  1.00  0.00     0.009 A 
ENDBRANCH  17  18
ENDBRANCH   3  17
TORSDOF 4
ENDMDL
MODEL 6
REMARK VINA RESULT:      -7.2      3.294      4.185
REMARK  4 active torsions:
REMARK  status: ('A' for Active; 'I' for Inactive)
REMARK    1  A    between atoms: C_6  and  C_7 
REMARK    2  A    between atoms: C_10  and  N_11 
REMARK       I    between atoms: N_11  and  C_12 
REMARK       I    between atoms: C_12  and  N_13 
REMARK    3  A    between atoms: N_13  and  C_14 
REMARK    4  A    between atoms: C_14  and  C_15 
ROOT
HETATM    1  N   UNL     1      42.411 -12.543   4.750  1.00  0.00    -0.305 N 
HETATM    2  C   UNL     1      41.959 -13.833   4.621  1.00  0.00     0.322 C 
HETATM    3  N   UNL     1      42.401 -14.509   3.485  1.00  0.00    -0.334 N 
HETATM    4  C   UNL     1      43.262 -13.940   2.454  1.00  0.00     0.155 C 
HETATM    5  O   UNL     1      41.221 -14.376   5.440  1.00  0.00    -0.247 OA
HETATM    6  H   UNL     1      43.151 -12.244   4.141  1.00  0.00     0.171 HD
ENDROOT
BRANCH   1   7
HETATM    7  C   UNL     1      42.054 -11.629   5.732  1.00  0.00     0.092 A 
HETATM    8  C   UNL     1      42.952 -11.265   6.721  1.00  0.00     0.053 A 
HETATM    9  C   UNL     1      44.354 -11.660   6.996  1.00  0.00     0.072 C 
HETATM   10  N   UNL     1      42.289 -10.385   7.523  1.00  0.00    -0.280 N 
HETATM   11  H   UNL     1      42.630  -9.914   8.356  1.00  0.00     0.189 HD
HETATM   12  N   UNL     1      41.041 -10.131   7.130  1.00  0.00    -0.171 NA
HETATM   13  C   UNL     1      40.878 -10.859   6.004  1.00  0.00     0.147 A 
BRANCH  13  14
HETATM   14  C   UNL     1      39.599 -10.744   5.220  1.00  0.00     0.409 C 
HETATM   15  F   UNL     1      39.179 -11.955   4.736  1.00  0.00    -0.207 F 
HETATM   16  F   UNL     1      38.572 -10.308   6.007  1.00  0.00    -0.207 F 
ENDBRANCH  13  14
ENDBRANCH   1   7
BRANCH   3  17
HETATM   17  C   UNL     1      41.758 -15.783   3.162  1.00  0.00     0.165 C 
BRANCH  17  18
HETATM   18  C   UNL     1      42.669 -16.963   3.414  1.00  0.00    -0.039 A 
HETATM   19  C   UNL     1      42.758 -18.010   2.484  1.00  0.00     0.032 A 
HETATM   20  C   UNL     1      43.584 -19.106   2.738  1.00  0.00     0.034 A 
HETATM   21 CL   UNL     1      43.673 -20.387   1.591  1.00  0.00    -0.084 Cl
HETATM   22  C   UNL     1      44.330 -19.175   3.913  1.00  0.00     0.024 A 
HETATM   23  C   UNL     1      44.249 -18.139   4.842  1.00  0.00     0.002 A 
HETATM   24  C   UNL     1      43.423 -17.040   4.596  1.00  0.00     0.009 A 
ENDBRANCH  17  18
ENDBRANCH   3  17
TORSDOF 4
ENDMDL
MODEL 7
REMARK VINA RESULT:      -6.8      3.422      6.878
REMARK  4 active torsions:
REMARK  status: ('A' for Active; 'I' for Inactive)
REMARK    1  A    between atoms: C_6  and  C_7 
REMARK    2  A    between atoms: C_10  and  N_11 
REMARK       I    between atoms: N_11  and  C_12 
REMARK       I    between atoms: C_12  and  N_13 
REMARK    3  A    between atoms: N_13  and  C_14 
REMARK    4  A    between atoms: C_14  and  C_15 
ROOT
HETATM    1  N   UNL     1      41.913 -14.861   3.867  1.00  0.00    -0.305 N 
HETATM    2  C   UNL     1      42.149 -13.941   2.876  1.00  0.00     0.322 C 
HETATM    3  N   UNL     1      41.042 -13.186   2.489  1.00  0.00    -0.334 N 
HETATM    4  C   UNL     1      39.699 -13.327   3.036  1.00  0.00     0.155 C 
HETATM    5  O   UNL     1      43.249 -13.775   2.355  1.00  0.00    -0.247 OA
HETATM    6  H   UNL     1      41.041 -14.803   4.361  1.00  0.00     0.171 HD
ENDROOT
BRANCH   1   7
HETATM    7  C   UNL     1      42.811 -15.793   4.371  1.00  0.00     0.092 A 
HETATM    8  C   UNL     1      43.344 -15.649   5.639  1.00  0.00     0.053 A 
HETATM    9  C   UNL     1      43.151 -14.630   6.698  1.00  0.00     0.072 C 
HETATM   10  N   UNL     1      44.191 -16.702   5.812  1.00  0.00    -0.280 N 
HETATM   11  H   UNL     1      44.766 -16.922   6.620  1.00  0.00     0.189 HD
HETATM   12  N   UNL     1      44.242 -17.530   4.768  1.00  0.00    -0.171 NA
HETATM   13  C   UNL     1      43.371 -17.013   3.874  1.00  0.00     0.147 A 
BRANCH  13  14
HETATM   14  C   UNL     1      43.093 -17.749   2.591  1.00  0.00     0.409 C 
HETATM   15  F   UNL     1      43.252 -16.949   1.491  1.00  0.00    -0.207 F 
HETATM   16  F   UNL     1      43.976 -18.775   2.407  1.00  0.00    -0.207 F 
ENDBRANCH  13  14
ENDBRANCH   1   7
BRANCH   3  17
HETATM   17  C   UNL     1      41.166 -12.378   1.274  1.00  0.00     0.165 C 
BRANCH  17  18
HETATM   18  C   UNL     1      40.238 -12.850   0.177  1.00  0.00    -0.039 A 
HETATM   19  C   UNL     1      39.262 -11.993  -0.352  1.00  0.00     0.032 A 
HETATM   20  C   UNL     1      38.394 -12.446  -1.347  1.00  0.00     0.034 A 
HETATM   21 CL   UNL     1      37.195 -11.384  -1.978  1.00  0.00    -0.084 Cl
HETATM   22  C   UNL     1      38.487 -13.750  -1.828  1.00  0.00     0.024 A 
HETATM   23  C   UNL     1      39.455 -14.609  -1.309  1.00  0.00     0.002 A 
HETATM   24  C   UNL     1      40.325 -14.163  -0.311  1.00  0.00     0.009 A 
ENDBRANCH  17  18
ENDBRANCH   3  17
TORSDOF 4
ENDMDL
MODEL 8
REMARK VINA RESULT:      -6.8     14.536     16.227
REMARK  4 active torsions:
REMARK  status: ('A' for Active; 'I' for Inactive)
REMARK    1  A    between atoms: C_6  and  C_7 
REMARK    2  A    between atoms: C_10  and  N_11 
REMARK       I    between atoms: N_11  and  C_12 
REMARK       I    between atoms: C_12  and  N_13 
REMARK    3  A    between atoms: N_13  and  C_14 
REMARK    4  A    between atoms: C_14  and  C_15 
ROOT
HETATM    1  N   UNL     1      47.319 -30.164   1.019  1.00  0.00    -0.305 N 
HETATM    2  C   UNL     1      46.469 -29.260   0.431  1.00  0.00     0.322 C 
HETATM    3  N   UNL     1      45.129 -29.645   0.387  1.00  0.00    -0.334 N 
HETATM    4  C   UNL     1      44.603 -30.909   0.887  1.00  0.00     0.155 C 
HETATM    5  O   UNL     1      46.839 -28.182  -0.027  1.00  0.00    -0.247 OA
HETATM    6  H   UNL     1      46.911 -30.928   1.527  1.00  0.00     0.171 HD
ENDROOT
BRANCH   1   7
HETATM    7  C   UNL     1      48.701 -30.070   1.112  1.00  0.00     0.092 A 
HETATM    8  C   UNL     1      49.321 -29.949   2.343  1.00  0.00     0.053 A 
HETATM    9  C   UNL     1      48.797 -29.902   3.729  1.00  0.00     0.072 C 
HETATM   10  N   UNL     1      50.656 -29.858   2.083  1.00  0.00    -0.280 N 
HETATM   11  H   UNL     1      51.420 -29.752   2.744  1.00  0.00     0.189 HD
HETATM   12  N   UNL     1      50.959 -29.926   0.787  1.00  0.00    -0.171 NA
HETATM   13  C   UNL     1      49.773 -30.094   0.163  1.00  0.00     0.147 A 
BRANCH  13  14
HETATM   14  C   UNL     1      49.736 -30.308  -1.326  1.00  0.00     0.409 C 
HETATM   15  F   UNL     1      48.991 -29.354  -1.968  1.00  0.00    -0.207 F 
HETATM   16  F   UNL     1      50.983 -30.202  -1.873  1.00  0.00    -0.207 F 
ENDBRANCH  13  14
ENDBRANCH   1   7
BRANCH   3  17
HETATM   17  C   UNL     1      44.225 -28.850  -0.446  1.00  0.00     0.165 C 
BRANCH  17  18
HETATM   18  C   UNL     1      44.428 -29.113  -1.921  1.00  0.00    -0.039 A 
HETATM   19  C   UNL     1      44.174 -30.382  -2.463  1.00  0.00     0.032 A 
HETATM   20  C   UNL     1      44.388 -30.621  -3.822  1.00  0.00     0.034 A 
HETATM   21 CL   UNL     1      44.081 -32.187  -4.468  1.00  0.00    -0.084 Cl
HETATM   22  C   UNL     1      44.853 -29.606  -4.655  1.00  0.00     0.024 A 
HETATM   23  C   UNL     1      45.108 -28.341  -4.126  1.00  0.00     0.002 A 
HETATM   24  C   UNL     1      44.898 -28.096  -2.767  1.00  0.00     0.009 A 
ENDBRANCH  17  18
ENDBRANCH   3  17
TORSDOF 4
ENDMDL
MODEL 9
REMARK VINA RESULT:      -6.8      2.757      6.758
REMARK  4 active torsions:
REMARK  status: ('A' for Active; 'I' for Inactive)
REMARK    1  A    between atoms: C_6  and  C_7 
REMARK    2  A    between atoms: C_10  and  N_11 
REMARK       I    between atoms: N_11  and  C_12 
REMARK       I    between atoms: C_12  and  N_13 
REMARK    3  A    between atoms: N_13  and  C_14 
REMARK    4  A    between atoms: C_14  and  C_15 
ROOT
HETATM    1  N   UNL     1      42.682 -15.540   4.218  1.00  0.00    -0.305 N 
HETATM    2  C   UNL     1      41.391 -15.173   3.929  1.00  0.00     0.322 C 
HETATM    3  N   UNL     1      41.210 -13.824   3.627  1.00  0.00    -0.334 N 
HETATM    4  C   UNL     1      42.263 -12.817   3.625  1.00  0.00     0.155 C 
HETATM    5  O   UNL     1      40.449 -15.961   3.925  1.00  0.00    -0.247 OA
HETATM    6  H   UNL     1      43.412 -14.881   4.019  1.00  0.00     0.171 HD
ENDROOT
BRANCH   1   7
HETATM    7  C   UNL     1      43.120 -16.791   4.634  1.00  0.00     0.092 A 
HETATM    8  C   UNL     1      43.176 -17.111   5.979  1.00  0.00     0.053 A 
HETATM    9  C   UNL     1      42.831 -16.351   7.204  1.00  0.00     0.072 C 
HETATM   10  N   UNL     1      43.661 -18.382   6.042  1.00  0.00    -0.280 N 
HETATM   11  H   UNL     1      43.845 -18.945   6.867  1.00  0.00     0.189 HD
HETATM   12  N   UNL     1      43.912 -18.924   4.850  1.00  0.00    -0.171 NA
HETATM   13  C   UNL     1      43.552 -17.977   3.957  1.00  0.00     0.147 A 
BRANCH  13  14
HETATM   14  C   UNL     1      43.609 -18.279   2.484  1.00  0.00     0.409 C 
HETATM   15  F   UNL     1      42.796 -19.327   2.140  1.00  0.00    -0.207 F 
HETATM   16  F   UNL     1      43.153 -17.226   1.744  1.00  0.00    -0.207 F 
ENDBRANCH  13  14
ENDBRANCH   1   7
BRANCH   3  17
HETATM   17  C   UNL     1      39.835 -13.325   3.562  1.00  0.00     0.165 C 
BRANCH  17  18
HETATM   18  C   UNL     1      39.440 -12.921   2.160  1.00  0.00    -0.039 A 
HETATM   19  C   UNL     1      39.907 -13.642   1.049  1.00  0.00     0.032 A 
HETATM   20  C   UNL     1      39.556 -13.246  -0.242  1.00  0.00     0.034 A 
HETATM   21 CL   UNL     1      40.145 -14.134  -1.594  1.00  0.00    -0.084 Cl
HETATM   22  C   UNL     1      38.739 -12.136  -0.446  1.00  0.00     0.024 A 
HETATM   23  C   UNL     1      38.269 -11.414   0.651  1.00  0.00     0.002 A 
HETATM   24  C   UNL     1      38.618 -11.804   1.946  1.00  0.00     0.009 A 
ENDBRANCH  17  18
ENDBRANCH   3  17
TORSDOF 4
ENDMDL
MODEL 10
REMARK VINA RESULT:      -6.7      3.553      4.344
REMARK  4 active torsions:
REMARK  status: ('A' for Active; 'I' for Inactive)
REMARK    1  A    between atoms: C_6  and  C_7 
REMARK    2  A    between atoms: C_10  and  N_11 
REMARK       I    between atoms: N_11  and  C_12 
REMARK       I    between atoms: C_12  and  N_13 
REMARK    3  A    between atoms: N_13  and  C_14 
REMARK    4  A    between atoms: C_14  and  C_15 
ROOT
HETATM    1  N   UNL     1      42.065 -12.471   6.169  1.00  0.00    -0.305 N 
HETATM    2  C   UNL     1      41.401 -13.668   6.063  1.00  0.00     0.322 C 
HETATM    3  N   UNL     1      41.948 -14.719   6.797  1.00  0.00    -0.334 N 
HETATM    4  C   UNL     1      43.148 -14.632   7.620  1.00  0.00     0.155 C 
HETATM    5  O   UNL     1      40.392 -13.823   5.379  1.00  0.00    -0.247 OA
HETATM    6  H   UNL     1      42.762 -12.385   6.887  1.00  0.00     0.171 HD
ENDROOT
BRANCH   1   7
HETATM    7  C   UNL     1      41.786 -11.298   5.479  1.00  0.00     0.092 A 
HETATM    8  C   UNL     1      42.543 -10.926   4.383  1.00  0.00     0.053 A 
HETATM    9  C   UNL     1      43.695 -11.559   3.698  1.00  0.00     0.072 C 
HETATM   10  N   UNL     1      42.029  -9.736   3.960  1.00  0.00    -0.280 N 
HETATM   11  H   UNL     1      42.337  -9.159   3.183  1.00  0.00     0.189 HD
HETATM   12  N   UNL     1      40.991  -9.311   4.679  1.00  0.00    -0.171 NA
HETATM   13  C   UNL     1      40.793 -10.274   5.605  1.00  0.00     0.147 A 
BRANCH  13  14
HETATM   14  C   UNL     1      39.624 -10.176   6.547  1.00  0.00     0.409 C 
HETATM   15  F   UNL     1      38.768 -11.238   6.421  1.00  0.00    -0.207 F 
HETATM   16  F   UNL     1      40.033 -10.211   7.850  1.00  0.00    -0.207 F 
ENDBRANCH  13  14
ENDBRANCH   1   7
BRANCH   3  17
HETATM   17  C   UNL     1      41.443 -16.067   6.528  1.00  0.00     0.165 C 
BRANCH  17  18
HETATM   18  C   UNL     1      42.350 -16.841   5.598  1.00  0.00    -0.039 A 
HETATM   19  C   UNL     1      42.413 -16.525   4.233  1.00  0.00     0.032 A 
HETATM   20  C   UNL     1      43.235 -17.262   3.379  1.00  0.00     0.034 A 
HETATM   21 CL   UNL     1      43.293 -16.868   1.704  1.00  0.00    -0.084 Cl
HETATM   22  C   UNL     1      44.003 -18.316   3.870  1.00  0.00     0.024 A 
HETATM   23  C   UNL     1      43.948 -18.637   5.226  1.00  0.00     0.002 A 
HETATM   24  C   UNL     1      43.125 -17.905   6.085  1.00  0.00     0.009 A 
ENDBRANCH  17  18
ENDBRANCH   3  17
TORSDOF 4
ENDMDL
