MODEL 1
REMARK VINA RESULT:      -8.6      0.000      0.000
REMARK  4 active torsions:
REMARK  status: ('A' for Active; 'I' for Inactive)
REMARK    1  A    between atoms: C_5  and  C_6 
REMARK    2  A    between atoms: C_16  and  C_17 
REMARK       I    between atoms: C_17  and  N_18 
REMARK    3  A    between atoms: N_18  and  C_19 
REMARK    4  A    between atoms: C_20  and  O_21 
ROOT
HETATM    1  C   UNL     1      42.808 -12.324   2.838  1.00  0.00     0.202 C 
HETATM    2  N   UNL     1      43.235 -11.783   4.136  1.00  0.00    -0.083 N 
HETATM    3  C   UNL     1      42.371 -11.347   5.095  1.00  0.00     0.726 A 
HETATM    4  N   UNL     1      43.040 -10.999   6.165  1.00  0.00    -0.046 NA
HETATM    5  C   UNL     1      44.348 -11.209   5.787  1.00  0.00     0.162 A 
HETATM    6  C   UNL     1      45.476 -10.972   6.709  1.00  0.00     0.096 C 
HETATM    7  N   UNL     1      44.522 -11.651   4.530  1.00  0.00    -0.141 NA
HETATM    8  N   UNL     1      41.058 -11.304   4.814  1.00  0.00    -0.192 N 
HETATM    9  C   UNL     1      40.557 -11.469   3.523  1.00  0.00     0.037 C 
HETATM   10  C   UNL     1      39.088 -11.138   3.377  1.00  0.00     0.070 C 
HETATM   11  C   UNL     1      41.367 -11.912   2.518  1.00  0.00     0.062 C 
HETATM   12  H   UNL     1      40.440 -10.882   5.500  1.00  0.00     0.184 HD
ENDROOT
BRANCH  11  13
HETATM   13  C   UNL     1      40.876 -11.947   1.094  1.00  0.00     0.256 C 
HETATM   14  N   UNL     1      40.134 -13.042   0.710  1.00  0.00    -0.321 N 
HETATM   15  H   UNL     1      40.033 -13.851   1.311  1.00  0.00     0.169 HD
HETATM   16  O   UNL     1      41.203 -11.053   0.317  1.00  0.00    -0.267 OA
BRANCH  14  17
HETATM   17  C   UNL     1      39.516 -13.234  -0.556  1.00  0.00     0.068 A 
HETATM   18  C   UNL     1      38.316 -12.541  -0.808  1.00  0.00     0.095 A 
HETATM   19  C   UNL     1      37.686 -12.661  -2.053  1.00  0.00     0.039 A 
HETATM   20  C   UNL     1      38.231 -13.484  -3.040  1.00  0.00     0.003 A 
HETATM   21  C   UNL     1      39.409 -14.182  -2.790  1.00  0.00     0.002 A 
HETATM   22  C   UNL     1      40.049 -14.056  -1.555  1.00  0.00     0.032 A 
BRANCH  18  23
HETATM   23  O   UNL     1      37.834 -11.768   0.226  1.00  0.00    -0.354 OA
HETATM   24  C   UNL     1      37.589 -10.402  -0.101  1.00  0.00     0.210 C 
ENDBRANCH  18  23
ENDBRANCH  14  17
ENDBRANCH  11  13
BRANCH   1  25
HETATM   25  C   UNL     1      43.042 -13.841   2.856  1.00  0.00    -0.028 A 
HETATM   26  C   UNL     1      43.410 -14.562   1.707  1.00  0.00     0.010 A 
HETATM   27  C   UNL     1      43.498 -15.956   1.731  1.00  0.00     0.007 A 
HETATM   28  C   UNL     1      43.214 -16.668   2.900  1.00  0.00    -0.062 A 
HETATM   29  C   UNL     1      43.212 -18.168   2.888  1.00  0.00     0.048 C 
HETATM   30  C   UNL     1      42.847 -15.962   4.048  1.00  0.00     0.007 A 
HETATM   31  C   UNL     1      42.772 -14.567   4.030  1.00  0.00     0.010 A 
ENDBRANCH   1  25
TORSDOF 4
ENDMDL
MODEL 2
REMARK VINA RESULT:      -8.6      3.111      6.425
REMARK  4 active torsions:
REMARK  status: ('A' for Active; 'I' for Inactive)
REMARK    1  A    between atoms: C_5  and  C_6 
REMARK    2  A    between atoms: C_16  and  C_17 
REMARK       I    between atoms: C_17  and  N_18 
REMARK    3  A    between atoms: N_18  and  C_19 
REMARK    4  A    between atoms: C_20  and  O_21 
ROOT
HETATM    1  C   UNL     1      42.511 -12.910   2.155  1.00  0.00     0.202 C 
HETATM    2  N   UNL     1      41.635 -11.867   1.606  1.00  0.00    -0.083 N 
HETATM    3  C   UNL     1      40.297 -12.032   1.403  1.00  0.00     0.726 A 
HETATM    4  N   UNL     1      39.774 -10.909   0.981  1.00  0.00    -0.046 NA
HETATM    5  C   UNL     1      40.867 -10.075   0.903  1.00  0.00     0.162 A 
HETATM    6  C   UNL     1      40.746  -8.663   0.489  1.00  0.00     0.096 C 
HETATM    7  N   UNL     1      42.044 -10.632   1.236  1.00  0.00    -0.141 NA
HETATM    8  N   UNL     1      39.754 -13.243   1.612  1.00  0.00    -0.192 N 
HETATM    9  C   UNL     1      40.522 -14.390   1.811  1.00  0.00     0.037 C 
HETATM   10  C   UNL     1      39.734 -15.681   1.776  1.00  0.00     0.070 C 
HETATM   11  C   UNL     1      41.866 -14.294   2.029  1.00  0.00     0.062 C 
HETATM   12  H   UNL     1      38.780 -13.376   1.359  1.00  0.00     0.184 HD
ENDROOT
BRANCH  11  13
HETATM   13  C   UNL     1      42.724 -15.531   2.090  1.00  0.00     0.256 C 
HETATM   14  N   UNL     1      42.387 -16.486   3.023  1.00  0.00    -0.321 N 
HETATM   15  H   UNL     1      41.679 -16.313   3.726  1.00  0.00     0.169 HD
HETATM   16  O   UNL     1      43.718 -15.616   1.372  1.00  0.00    -0.267 OA
BRANCH  14  17
HETATM   17  C   UNL     1      43.014 -17.750   3.193  1.00  0.00     0.068 A 
HETATM   18  C   UNL     1      43.690 -17.984   4.407  1.00  0.00     0.095 A 
HETATM   19  C   UNL     1      44.292 -19.227   4.645  1.00  0.00     0.039 A 
HETATM   20  C   UNL     1      44.243 -20.228   3.674  1.00  0.00     0.003 A 
HETATM   21  C   UNL     1      43.589 -19.996   2.468  1.00  0.00     0.002 A 
HETATM   22  C   UNL     1      42.976 -18.764   2.230  1.00  0.00     0.032 A 
BRANCH  18  23
HETATM   23  O   UNL     1      43.710 -16.938   5.302  1.00  0.00    -0.354 OA
HETATM   24  C   UNL     1      43.076 -17.196   6.552  1.00  0.00     0.210 C 
ENDBRANCH  18  23
ENDBRANCH  14  17
ENDBRANCH  11  13
BRANCH   1  25
HETATM   25  C   UNL     1      42.877 -12.513   3.592  1.00  0.00    -0.028 A 
HETATM   26  C   UNL     1      43.978 -11.691   3.892  1.00  0.00     0.010 A 
HETATM   27  C   UNL     1      44.352 -11.447   5.216  1.00  0.00     0.007 A 
HETATM   28  C   UNL     1      43.645 -12.023   6.275  1.00  0.00    -0.062 A 
HETATM   29  C   UNL     1      44.117 -11.837   7.687  1.00  0.00     0.048 C 
HETATM   30  C   UNL     1      42.550 -12.843   5.989  1.00  0.00     0.007 A 
HETATM   31  C   UNL     1      42.164 -13.076   4.666  1.00  0.00     0.010 A 
ENDBRANCH   1  25
TORSDOF 4
ENDMDL
MODEL 3
REMARK VINA RESULT:      -8.4      2.685      6.439
REMARK  4 active torsions:
REMARK  status: ('A' for Active; 'I' for Inactive)
REMARK    1  A    between atoms: C_5  and  C_6 
REMARK    2  A    between atoms: C_16  and  C_17 
REMARK       I    between atoms: C_17  and  N_18 
REMARK    3  A    between atoms: N_18  and  C_19 
REMARK    4  A    between atoms: C_20  and  O_21 
ROOT
HETATM    1  C   UNL     1      40.225 -13.488   3.107  1.00  0.00     0.202 C 
HETATM    2  N   UNL     1      39.932 -12.129   3.583  1.00  0.00    -0.083 N 
HETATM    3  C   UNL     1      40.815 -11.368   4.289  1.00  0.00     0.726 A 
HETATM    4  N   UNL     1      40.303 -10.183   4.502  1.00  0.00    -0.046 NA
HETATM    5  C   UNL     1      39.056 -10.283   3.926  1.00  0.00     0.162 A 
HETATM    6  C   UNL     1      38.113  -9.148   3.901  1.00  0.00     0.096 C 
HETATM    7  N   UNL     1      38.764 -11.478   3.385  1.00  0.00    -0.141 NA
HETATM    8  N   UNL     1      41.982 -11.914   4.669  1.00  0.00    -0.192 N 
HETATM    9  C   UNL     1      42.243 -13.282   4.573  1.00  0.00     0.037 C 
HETATM   10  C   UNL     1      43.504 -13.727   5.280  1.00  0.00     0.070 C 
HETATM   11  C   UNL     1      41.403 -14.098   3.873  1.00  0.00     0.062 C 
HETATM   12  H   UNL     1      42.584 -11.370   5.280  1.00  0.00     0.184 HD
ENDROOT
BRANCH  11  13
HETATM   13  C   UNL     1      41.591 -15.593   3.894  1.00  0.00     0.256 C 
HETATM   14  N   UNL     1      42.702 -16.097   3.254  1.00  0.00    -0.321 N 
HETATM   15  H   UNL     1      43.296 -15.509   2.681  1.00  0.00     0.169 HD
HETATM   16  O   UNL     1      40.733 -16.306   4.407  1.00  0.00    -0.267 OA
BRANCH  14  17
HETATM   17  C   UNL     1      43.104 -17.459   3.220  1.00  0.00     0.068 A 
HETATM   18  C   UNL     1      43.841 -17.950   4.316  1.00  0.00     0.095 A 
HETATM   19  C   UNL     1      44.228 -19.295   4.354  1.00  0.00     0.039 A 
HETATM   20  C   UNL     1      43.905 -20.149   3.298  1.00  0.00     0.003 A 
HETATM   21  C   UNL     1      43.190 -19.665   2.207  1.00  0.00     0.002 A 
HETATM   22  C   UNL     1      42.790 -18.329   2.169  1.00  0.00     0.032 A 
BRANCH  18  23
HETATM   23  O   UNL     1      44.137 -17.037   5.304  1.00  0.00    -0.354 OA
HETATM   24  C   UNL     1      43.613 -17.348   6.593  1.00  0.00     0.210 C 
ENDBRANCH  18  23
ENDBRANCH  14  17
ENDBRANCH  11  13
BRANCH   1  25
HETATM   25  C   UNL     1      40.426 -13.424   1.586  1.00  0.00    -0.028 A 
HETATM   26  C   UNL     1      40.946 -12.288   0.941  1.00  0.00     0.010 A 
HETATM   27  C   UNL     1      41.005 -12.219  -0.453  1.00  0.00     0.007 A 
HETATM   28  C   UNL     1      40.540 -13.276  -1.241  1.00  0.00    -0.062 A 
HETATM   29  C   UNL     1      40.514 -13.149  -2.735  1.00  0.00     0.048 C 
HETATM   30  C   UNL     1      40.020 -14.410  -0.610  1.00  0.00     0.007 A 
HETATM   31  C   UNL     1      39.974 -14.488   0.784  1.00  0.00     0.010 A 
ENDBRANCH   1  25
TORSDOF 4
ENDMDL
MODEL 4
REMARK VINA RESULT:      -8.0      1.955      2.936
REMARK  4 active torsions:
REMARK  status: ('A' for Active; 'I' for Inactive)
REMARK    1  A    between atoms: C_5  and  C_6 
REMARK    2  A    between atoms: C_16  and  C_17 
REMARK       I    between atoms: C_17  and  N_18 
REMARK    3  A    between atoms: N_18  and  C_19 
REMARK    4  A    between atoms: C_20  and  O_21 
ROOT
HETATM    1  C   UNL     1      42.423 -12.777   4.760  1.00  0.00     0.202 C 
HETATM    2  N   UNL     1      43.207 -11.953   5.690  1.00  0.00    -0.083 N 
HETATM    3  C   UNL     1      42.652 -11.125   6.620  1.00  0.00     0.726 A 
HETATM    4  N   UNL     1      43.597 -10.588   7.350  1.00  0.00    -0.046 NA
HETATM    5  C   UNL     1      44.744 -11.100   6.787  1.00  0.00     0.162 A 
HETATM    6  C   UNL     1      46.085 -10.781   7.316  1.00  0.00     0.096 C 
HETATM    7  N   UNL     1      44.558 -11.912   5.733  1.00  0.00    -0.141 NA
HETATM    8  N   UNL     1      41.319 -10.963   6.630  1.00  0.00    -0.192 N 
HETATM    9  C   UNL     1      40.494 -11.420   5.602  1.00  0.00     0.037 C 
HETATM   10  C   UNL     1      39.068 -10.921   5.678  1.00  0.00     0.070 C 
HETATM   11  C   UNL     1      40.985 -12.258   4.643  1.00  0.00     0.062 C 
HETATM   12  H   UNL     1      40.931 -10.267   7.260  1.00  0.00     0.184 HD
ENDROOT
BRANCH  11  13
HETATM   13  C   UNL     1      40.148 -12.632   3.448  1.00  0.00     0.256 C 
HETATM   14  N   UNL     1      40.696 -12.417   2.203  1.00  0.00    -0.321 N 
HETATM   15  H   UNL     1      41.565 -11.910   2.086  1.00  0.00     0.169 HD
HETATM   16  O   UNL     1      39.000 -13.040   3.614  1.00  0.00    -0.267 OA
BRANCH  14  17
HETATM   17  C   UNL     1      40.109 -12.767   0.957  1.00  0.00     0.068 A 
HETATM   18  C   UNL     1      40.370 -14.056   0.451  1.00  0.00     0.095 A 
HETATM   19  C   UNL     1      39.784 -14.468  -0.752  1.00  0.00     0.039 A 
HETATM   20  C   UNL     1      38.958 -13.599  -1.466  1.00  0.00     0.003 A 
HETATM   21  C   UNL     1      38.709 -12.320  -0.977  1.00  0.00     0.002 A 
HETATM   22  C   UNL     1      39.279 -11.907   0.228  1.00  0.00     0.032 A 
BRANCH  18  23
HETATM   23  O   UNL     1      41.212 -14.843   1.205  1.00  0.00    -0.354 OA
HETATM   24  C   UNL     1      40.603 -15.986   1.800  1.00  0.00     0.210 C 
ENDBRANCH  18  23
ENDBRANCH  14  17
ENDBRANCH  11  13
BRANCH   1  25
HETATM   25  C   UNL     1      42.531 -14.239   5.215  1.00  0.00    -0.028 A 
HETATM   26  C   UNL     1      42.212 -14.648   6.522  1.00  0.00     0.010 A 
HETATM   27  C   UNL     1      42.435 -15.963   6.937  1.00  0.00     0.007 A 
HETATM   28  C   UNL     1      42.990 -16.903   6.063  1.00  0.00    -0.062 A 
HETATM   29  C   UNL     1      43.320 -18.283   6.550  1.00  0.00     0.048 C 
HETATM   30  C   UNL     1      43.312 -16.506   4.762  1.00  0.00     0.007 A 
HETATM   31  C   UNL     1      43.076 -15.196   4.340  1.00  0.00     0.010 A 
ENDBRANCH   1  25
TORSDOF 4
ENDMDL
MODEL 5
REMARK VINA RESULT:      -7.9      2.912      6.214
REMARK  4 active torsions:
REMARK  status: ('A' for Active; 'I' for Inactive)
REMARK    1  A    between atoms: C_5  and  C_6 
REMARK    2  A    between atoms: C_16  and  C_17 
REMARK       I    between atoms: C_17  and  N_18 
REMARK    3  A    between atoms: N_18  and  C_19 
REMARK    4  A    between atoms: C_20  and  O_21 
ROOT
HETATM    1  C   UNL     1      40.455 -13.349   4.570  1.00  0.00     0.202 C 
HETATM    2  N   UNL     1      40.160 -12.068   5.226  1.00  0.00    -0.083 N 
HETATM    3  C   UNL     1      41.024 -11.430   6.065  1.00  0.00     0.726 A 
HETATM    4  N   UNL     1      40.517 -10.279   6.427  1.00  0.00    -0.046 NA
HETATM    5  C   UNL     1      39.292 -10.276   5.798  1.00  0.00     0.162 A 
HETATM    6  C   UNL     1      38.363  -9.133   5.901  1.00  0.00     0.096 C 
HETATM    7  N   UNL     1      39.008 -11.375   5.081  1.00  0.00    -0.141 NA
HETATM    8  N   UNL     1      42.169 -12.044   6.405  1.00  0.00    -0.192 N 
HETATM    9  C   UNL     1      42.418 -13.388   6.124  1.00  0.00     0.037 C 
HETATM   10  C   UNL     1      43.647 -13.950   6.805  1.00  0.00     0.070 C 
HETATM   11  C   UNL     1      41.597 -14.082   5.283  1.00  0.00     0.062 C 
HETATM   12  H   UNL     1      42.754 -11.602   7.108  1.00  0.00     0.184 HD
ENDROOT
BRANCH  11  13
HETATM   13  C   UNL     1      41.768 -15.567   5.097  1.00  0.00     0.256 C 
HETATM   14  N   UNL     1      42.843 -15.988   4.345  1.00  0.00    -0.321 N 
HETATM   15  H   UNL     1      43.418 -15.333   3.830  1.00  0.00     0.169 HD
HETATM   16  O   UNL     1      40.923 -16.337   5.548  1.00  0.00    -0.267 OA
BRANCH  14  17
HETATM   17  C   UNL     1      43.227 -17.336   4.112  1.00  0.00     0.068 A 
HETATM   18  C   UNL     1      43.011 -17.862   2.823  1.00  0.00     0.095 A 
HETATM   19  C   UNL     1      43.407 -19.172   2.526  1.00  0.00     0.039 A 
HETATM   20  C   UNL     1      43.996 -19.968   3.510  1.00  0.00     0.003 A 
HETATM   21  C   UNL     1      44.198 -19.457   4.788  1.00  0.00     0.002 A 
HETATM   22  C   UNL     1      43.817 -18.148   5.087  1.00  0.00     0.032 A 
BRANCH  18  23
HETATM   23  O   UNL     1      42.405 -17.020   1.918  1.00  0.00    -0.354 OA
HETATM   24  C   UNL     1      43.257 -16.032   1.344  1.00  0.00     0.210 C 
ENDBRANCH  18  23
ENDBRANCH  14  17
ENDBRANCH  11  13
BRANCH   1  25
HETATM   25  C   UNL     1      40.716 -13.072   3.083  1.00  0.00    -0.028 A 
HETATM   26  C   UNL     1      41.425 -11.942   2.639  1.00  0.00     0.010 A 
HETATM   27  C   UNL     1      41.542 -11.658   1.276  1.00  0.00     0.007 A 
HETATM   28  C   UNL     1      40.947 -12.487   0.320  1.00  0.00    -0.062 A 
HETATM   29  C   UNL     1      40.990 -12.117  -1.132  1.00  0.00     0.048 C 
HETATM   30  C   UNL     1      40.238 -13.612   0.751  1.00  0.00     0.007 A 
HETATM   31  C   UNL     1      40.133 -13.907   2.113  1.00  0.00     0.010 A 
ENDBRANCH   1  25
TORSDOF 4
ENDMDL
MODEL 6
REMARK VINA RESULT:      -7.6      2.613      5.774
REMARK  4 active torsions:
REMARK  status: ('A' for Active; 'I' for Inactive)
REMARK    1  A    between atoms: C_5  and  C_6 
REMARK    2  A    between atoms: C_16  and  C_17 
REMARK       I    between atoms: C_17  and  N_18 
REMARK    3  A    between atoms: N_18  and  C_19 
REMARK    4  A    between atoms: C_20  and  O_21 
ROOT
HETATM    1  C   UNL     1      41.652 -14.422   3.822  1.00  0.00     0.202 C 
HETATM    2  N   UNL     1      42.348 -15.581   3.246  1.00  0.00    -0.083 N 
HETATM    3  C   UNL     1      42.756 -15.650   1.947  1.00  0.00     0.726 A 
HETATM    4  N   UNL     1      43.413 -16.764   1.751  1.00  0.00    -0.046 NA
HETATM    5  C   UNL     1      43.345 -17.378   2.982  1.00  0.00     0.162 A 
HETATM    6  C   UNL     1      43.990 -18.680   3.243  1.00  0.00     0.096 C 
HETATM    7  N   UNL     1      42.662 -16.708   3.924  1.00  0.00    -0.141 NA
HETATM    8  N   UNL     1      42.418 -14.657   1.108  1.00  0.00    -0.192 N 
HETATM    9  C   UNL     1      41.486 -13.672   1.439  1.00  0.00     0.037 C 
HETATM   10  C   UNL     1      41.061 -12.800   0.279  1.00  0.00     0.070 C 
HETATM   11  C   UNL     1      41.044 -13.544   2.724  1.00  0.00     0.062 C 
HETATM   12  H   UNL     1      42.640 -14.771   0.124  1.00  0.00     0.184 HD
ENDROOT
BRANCH  11  13
HETATM   13  C   UNL     1      39.928 -12.589   3.060  1.00  0.00     0.256 C 
HETATM   14  N   UNL     1      40.284 -11.329   3.489  1.00  0.00    -0.321 N 
HETATM   15  H   UNL     1      41.247 -11.093   3.698  1.00  0.00     0.169 HD
HETATM   16  O   UNL     1      38.763 -12.975   3.011  1.00  0.00    -0.267 OA
BRANCH  14  17
HETATM   17  C   UNL     1      39.395 -10.260   3.781  1.00  0.00     0.068 A 
HETATM   18  C   UNL     1      39.161  -9.959   5.137  1.00  0.00     0.095 A 
HETATM   19  C   UNL     1      38.325  -8.889   5.483  1.00  0.00     0.039 A 
HETATM   20  C   UNL     1      37.704  -8.133   4.488  1.00  0.00     0.003 A 
HETATM   21  C   UNL     1      37.920  -8.437   3.147  1.00  0.00     0.002 A 
HETATM   22  C   UNL     1      38.763  -9.493   2.796  1.00  0.00     0.032 A 
BRANCH  18  23
HETATM   23  O   UNL     1      39.794 -10.766   6.056  1.00  0.00    -0.354 OA
HETATM   24  C   UNL     1      40.886 -10.161   6.744  1.00  0.00     0.210 C 
ENDBRANCH  18  23
ENDBRANCH  14  17
ENDBRANCH  11  13
BRANCH   1  25
HETATM   25  C   UNL     1      42.637 -13.689   4.744  1.00  0.00    -0.028 A 
HETATM   26  C   UNL     1      42.770 -14.002   6.108  1.00  0.00     0.010 A 
HETATM   27  C   UNL     1      43.588 -13.237   6.944  1.00  0.00     0.007 A 
HETATM   28  C   UNL     1      44.287 -12.135   6.444  1.00  0.00    -0.062 A 
HETATM   29  C   UNL     1      45.080 -11.261   7.370  1.00  0.00     0.048 C 
HETATM   30  C   UNL     1      44.161 -11.814   5.089  1.00  0.00     0.007 A 
HETATM   31  C   UNL     1      43.356 -12.586   4.249  1.00  0.00     0.010 A 
ENDBRANCH   1  25
TORSDOF 4
ENDMDL
MODEL 7
REMARK VINA RESULT:      -7.5     16.870     19.388
REMARK  4 active torsions:
REMARK  status: ('A' for Active; 'I' for Inactive)
REMARK    1  A    between atoms: C_5  and  C_6 
REMARK    2  A    between atoms: C_16  and  C_17 
REMARK       I    between atoms: C_17  and  N_18 
REMARK    3  A    between atoms: N_18  and  C_19 
REMARK    4  A    between atoms: C_20  and  O_21 
ROOT
HETATM    1  C   UNL     1      50.028 -30.428   3.186  1.00  0.00     0.202 C 
HETATM    2  N   UNL     1      50.552 -30.995   4.436  1.00  0.00    -0.083 N 
HETATM    3  C   UNL     1      49.812 -31.759   5.289  1.00  0.00     0.726 A 
HETATM    4  N   UNL     1      50.569 -32.183   6.269  1.00  0.00    -0.046 NA
HETATM    5  C   UNL     1      51.786 -31.604   5.986  1.00  0.00     0.162 A 
HETATM    6  C   UNL     1      52.976 -31.833   6.828  1.00  0.00     0.096 C 
HETATM    7  N   UNL     1      51.815 -30.827   4.890  1.00  0.00    -0.141 NA
HETATM    8  N   UNL     1      48.503 -31.925   5.041  1.00  0.00    -0.192 N 
HETATM    9  C   UNL     1      47.815 -31.177   4.084  1.00  0.00     0.037 C 
HETATM   10  C   UNL     1      46.311 -31.335   4.133  1.00  0.00     0.070 C 
HETATM   11  C   UNL     1      48.496 -30.398   3.194  1.00  0.00     0.062 C 
HETATM   12  H   UNL     1      47.945 -32.410   5.737  1.00  0.00     0.184 HD
ENDROOT
BRANCH  11  13
HETATM   13  C   UNL     1      47.759 -29.472   2.263  1.00  0.00     0.256 C 
HETATM   14  N   UNL     1      47.395 -29.975   1.033  1.00  0.00    -0.321 N 
HETATM   15  H   UNL     1      47.721 -30.878   0.712  1.00  0.00     0.169 HD
HETATM   16  O   UNL     1      47.571 -28.303   2.591  1.00  0.00    -0.267 OA
BRANCH  14  17
HETATM   17  C   UNL     1      46.633 -29.298   0.043  1.00  0.00     0.068 A 
HETATM   18  C   UNL     1      45.229 -29.390   0.123  1.00  0.00     0.095 A 
HETATM   19  C   UNL     1      44.428 -28.709  -0.802  1.00  0.00     0.039 A 
HETATM   20  C   UNL     1      45.016 -27.955  -1.819  1.00  0.00     0.003 A 
HETATM   21  C   UNL     1      46.402 -27.873  -1.911  1.00  0.00     0.002 A 
HETATM   22  C   UNL     1      47.206 -28.539  -0.984  1.00  0.00     0.032 A 
BRANCH  18  23
HETATM   23  O   UNL     1      44.731 -30.171   1.143  1.00  0.00    -0.354 OA
HETATM   24  C   UNL     1      43.823 -29.512   2.023  1.00  0.00     0.210 C 
ENDBRANCH  18  23
ENDBRANCH  14  17
ENDBRANCH  11  13
BRANCH   1  25
HETATM   25  C   UNL     1      50.638 -31.215   2.017  1.00  0.00    -0.028 A 
HETATM   26  C   UNL     1      50.956 -30.613   0.787  1.00  0.00     0.010 A 
HETATM   27  C   UNL     1      51.398 -31.380  -0.295  1.00  0.00     0.007 A 
HETATM   28  C   UNL     1      51.525 -32.768  -0.180  1.00  0.00    -0.062 A 
HETATM   29  C   UNL     1      51.901 -33.592  -1.376  1.00  0.00     0.048 C 
HETATM   30  C   UNL     1      51.210 -33.376   1.038  1.00  0.00     0.007 A 
HETATM   31  C   UNL     1      50.783 -32.610   2.125  1.00  0.00     0.010 A 
ENDBRANCH   1  25
TORSDOF 4
ENDMDL
MODEL 8
REMARK VINA RESULT:      -7.5     13.775     18.220
REMARK  4 active torsions:
REMARK  status: ('A' for Active; 'I' for Inactive)
REMARK    1  A    between atoms: C_5  and  C_6 
REMARK    2  A    between atoms: C_16  and  C_17 
REMARK       I    between atoms: C_17  and  N_18 
REMARK    3  A    between atoms: N_18  and  C_19 
REMARK    4  A    between atoms: C_20  and  O_21 
ROOT
HETATM    1  C   UNL     1      39.810  -6.959  17.177  1.00  0.00     0.202 C 
HETATM    2  N   UNL     1      39.093  -5.767  16.703  1.00  0.00    -0.083 N 
HETATM    3  C   UNL     1      39.252  -4.525  17.241  1.00  0.00     0.726 A 
HETATM    4  N   UNL     1      38.547  -3.657  16.561  1.00  0.00    -0.046 NA
HETATM    5  C   UNL     1      37.927  -4.444  15.616  1.00  0.00     0.162 A 
HETATM    6  C   UNL     1      37.033  -3.874  14.589  1.00  0.00     0.096 C 
HETATM    7  N   UNL     1      38.198  -5.758  15.690  1.00  0.00    -0.141 NA
HETATM    8  N   UNL     1      40.022  -4.385  18.333  1.00  0.00    -0.192 N 
HETATM    9  C   UNL     1      40.487  -5.472  19.074  1.00  0.00     0.037 C 
HETATM   10  C   UNL     1      41.120  -5.101  20.397  1.00  0.00     0.070 C 
HETATM   11  C   UNL     1      40.367  -6.742  18.588  1.00  0.00     0.062 C 
HETATM   12  H   UNL     1      40.049  -3.474  18.781  1.00  0.00     0.184 HD
ENDROOT
BRANCH  11  13
HETATM   13  C   UNL     1      40.723  -7.929  19.445  1.00  0.00     0.256 C 
HETATM   14  N   UNL     1      42.062  -8.190  19.634  1.00  0.00    -0.321 N 
HETATM   15  H   UNL     1      42.777  -7.693  19.117  1.00  0.00     0.169 HD
HETATM   16  O   UNL     1      39.831  -8.653  19.880  1.00  0.00    -0.267 OA
BRANCH  14  17
HETATM   17  C   UNL     1      42.609  -9.207  20.462  1.00  0.00     0.068 A 
HETATM   18  C   UNL     1      43.477  -8.808  21.499  1.00  0.00     0.095 A 
HETATM   19  C   UNL     1      44.012  -9.765  22.370  1.00  0.00     0.039 A 
HETATM   20  C   UNL     1      43.707 -11.117  22.203  1.00  0.00     0.003 A 
HETATM   21  C   UNL     1      42.863 -11.516  21.172  1.00  0.00     0.002 A 
HETATM   22  C   UNL     1      42.315 -10.566  20.308  1.00  0.00     0.032 A 
BRANCH  18  23
HETATM   23  O   UNL     1      43.742  -7.460  21.581  1.00  0.00    -0.354 OA
HETATM   24  C   UNL     1      43.369  -6.841  22.810  1.00  0.00     0.210 C 
ENDBRANCH  18  23
ENDBRANCH  14  17
ENDBRANCH  11  13
BRANCH   1  25
HETATM   25  C   UNL     1      40.871  -7.322  16.129  1.00  0.00    -0.028 A 
HETATM   26  C   UNL     1      41.984  -6.504  15.867  1.00  0.00     0.010 A 
HETATM   27  C   UNL     1      42.866  -6.803  14.825  1.00  0.00     0.007 A 
HETATM   28  C   UNL     1      42.657  -7.921  14.012  1.00  0.00    -0.062 A 
HETATM   29  C   UNL     1      43.551  -8.175  12.835  1.00  0.00     0.048 C 
HETATM   30  C   UNL     1      41.553  -8.740  14.263  1.00  0.00     0.007 A 
HETATM   31  C   UNL     1      40.678  -8.452  15.313  1.00  0.00     0.010 A 
ENDBRANCH   1  25
TORSDOF 4
ENDMDL
MODEL 9
REMARK VINA RESULT:      -7.5      2.577      4.539
REMARK  4 active torsions:
REMARK  status: ('A' for Active; 'I' for Inactive)
REMARK    1  A    between atoms: C_5  and  C_6 
REMARK    2  A    between atoms: C_16  and  C_17 
REMARK       I    between atoms: C_17  and  N_18 
REMARK    3  A    between atoms: N_18  and  C_19 
REMARK    4  A    between atoms: C_20  and  O_21 
ROOT
HETATM    1  C   UNL     1      41.396 -14.956   4.558  1.00  0.00     0.202 C 
HETATM    2  N   UNL     1      42.354 -15.667   5.415  1.00  0.00    -0.083 N 
HETATM    3  C   UNL     1      43.506 -16.233   4.955  1.00  0.00     0.726 A 
HETATM    4  N   UNL     1      44.188 -16.721   5.959  1.00  0.00    -0.046 NA
HETATM    5  C   UNL     1      43.372 -16.457   7.037  1.00  0.00     0.162 A 
HETATM    6  C   UNL     1      43.759 -16.815   8.416  1.00  0.00     0.096 C 
HETATM    7  N   UNL     1      42.211 -15.848   6.747  1.00  0.00    -0.141 NA
HETATM    8  N   UNL     1      43.741 -16.241   3.632  1.00  0.00    -0.192 N 
HETATM    9  C   UNL     1      42.769 -15.902   2.690  1.00  0.00     0.037 C 
HETATM   10  C   UNL     1      43.150 -16.215   1.260  1.00  0.00     0.070 C 
HETATM   11  C   UNL     1      41.597 -15.324   3.084  1.00  0.00     0.062 C 
HETATM   12  H   UNL     1      44.551 -16.755   3.297  1.00  0.00     0.184 HD
ENDROOT
BRANCH  11  13
HETATM   13  C   UNL     1      40.483 -15.098   2.095  1.00  0.00     0.256 C 
HETATM   14  N   UNL     1      40.668 -14.110   1.153  1.00  0.00    -0.321 N 
HETATM   15  H   UNL     1      41.454 -13.473   1.200  1.00  0.00     0.169 HD
HETATM   16  O   UNL     1      39.438 -15.736   2.200  1.00  0.00    -0.267 OA
BRANCH  14  17
HETATM   17  C   UNL     1      39.781 -13.788   0.090  1.00  0.00     0.068 A 
HETATM   18  C   UNL     1      39.053 -12.585   0.190  1.00  0.00     0.095 A 
HETATM   19  C   UNL     1      38.195 -12.198  -0.848  1.00  0.00     0.039 A 
HETATM   20  C   UNL     1      38.041 -13.011  -1.972  1.00  0.00     0.003 A 
HETATM   21  C   UNL     1      38.746 -14.206  -2.067  1.00  0.00     0.002 A 
HETATM   22  C   UNL     1      39.613 -14.591  -1.042  1.00  0.00     0.032 A 
BRANCH  18  23
HETATM   23  O   UNL     1      39.247 -11.853   1.340  1.00  0.00    -0.354 OA
HETATM   24  C   UNL     1      38.062 -11.316   1.924  1.00  0.00     0.210 C 
ENDBRANCH  18  23
ENDBRANCH  14  17
ENDBRANCH  11  13
BRANCH   1  25
HETATM   25  C   UNL     1      41.517 -13.455   4.855  1.00  0.00    -0.028 A 
HETATM   26  C   UNL     1      40.561 -12.756   5.614  1.00  0.00     0.010 A 
HETATM   27  C   UNL     1      40.640 -11.369   5.765  1.00  0.00     0.007 A 
HETATM   28  C   UNL     1      41.667 -10.642   5.158  1.00  0.00    -0.062 A 
HETATM   29  C   UNL     1      41.683  -9.145   5.242  1.00  0.00     0.048 C 
HETATM   30  C   UNL     1      42.622 -11.326   4.400  1.00  0.00     0.007 A 
HETATM   31  C   UNL     1      42.554 -12.715   4.260  1.00  0.00     0.010 A 
ENDBRANCH   1  25
TORSDOF 4
ENDMDL
MODEL 10
REMARK VINA RESULT:      -7.2      3.766      7.271
REMARK  4 active torsions:
REMARK  status: ('A' for Active; 'I' for Inactive)
REMARK    1  A    between atoms: C_5  and  C_6 
REMARK    2  A    between atoms: C_16  and  C_17 
REMARK       I    between atoms: C_17  and  N_18 
REMARK    3  A    between atoms: N_18  and  C_19 
REMARK    4  A    between atoms: C_20  and  O_21 
ROOT
HETATM    1  C   UNL     1      40.587 -12.990   5.263  1.00  0.00     0.202 C 
HETATM    2  N   UNL     1      40.610 -13.854   4.075  1.00  0.00    -0.083 N 
HETATM    3  C   UNL     1      40.222 -13.444   2.834  1.00  0.00     0.726 A 
HETATM    4  N   UNL     1      40.429 -14.403   1.969  1.00  0.00    -0.046 NA
HETATM    5  C   UNL     1      40.921 -15.421   2.756  1.00  0.00     0.162 A 
HETATM    6  C   UNL     1      41.329 -16.721   2.188  1.00  0.00     0.096 C 
HETATM    7  N   UNL     1      41.010 -15.145   4.067  1.00  0.00    -0.141 NA
HETATM    8  N   UNL     1      39.689 -12.219   2.693  1.00  0.00    -0.192 N 
HETATM    9  C   UNL     1      39.306 -11.433   3.780  1.00  0.00     0.037 C 
HETATM   10  C   UNL     1      38.501 -10.206   3.410  1.00  0.00     0.070 C 
HETATM   11  C   UNL     1      39.669 -11.782   5.049  1.00  0.00     0.062 C 
HETATM   12  H   UNL     1      39.312 -11.967   1.784  1.00  0.00     0.184 HD
ENDROOT
BRANCH  11  13
HETATM   13  C   UNL     1      39.132 -11.027   6.237  1.00  0.00     0.256 C 
HETATM   14  N   UNL     1      39.924 -10.028   6.758  1.00  0.00    -0.321 N 
HETATM   15  H   UNL     1      40.878  -9.890   6.447  1.00  0.00     0.169 HD
HETATM   16  O   UNL     1      38.062 -11.365   6.738  1.00  0.00    -0.267 OA
BRANCH  14  17
HETATM   17  C   UNL     1      39.576  -9.151   7.821  1.00  0.00     0.068 A 
HETATM   18  C   UNL     1      39.163  -7.847   7.483  1.00  0.00     0.095 A 
HETATM   19  C   UNL     1      38.770  -6.955   8.488  1.00  0.00     0.039 A 
HETATM   20  C   UNL     1      38.805  -7.345   9.828  1.00  0.00     0.003 A 
HETATM   21  C   UNL     1      39.225  -8.627  10.167  1.00  0.00     0.002 A 
HETATM   22  C   UNL     1      39.606  -9.526   9.169  1.00  0.00     0.032 A 
BRANCH  18  23
HETATM   23  O   UNL     1      39.178  -7.535   6.142  1.00  0.00    -0.354 OA
HETATM   24  C   UNL     1      37.912  -7.186   5.586  1.00  0.00     0.210 C 
ENDBRANCH  18  23
ENDBRANCH  14  17
ENDBRANCH  11  13
BRANCH   1  25
HETATM   25  C   UNL     1      42.037 -12.626   5.612  1.00  0.00    -0.028 A 
HETATM   26  C   UNL     1      42.729 -13.224   6.681  1.00  0.00     0.010 A 
HETATM   27  C   UNL     1      44.005 -12.785   7.045  1.00  0.00     0.007 A 
HETATM   28  C   UNL     1      44.621 -11.734   6.359  1.00  0.00    -0.062 A 
HETATM   29  C   UNL     1      45.945 -11.203   6.823  1.00  0.00     0.048 C 
HETATM   30  C   UNL     1      43.941 -11.132   5.296  1.00  0.00     0.007 A 
HETATM   31  C   UNL     1      42.672 -11.579   4.921  1.00  0.00     0.010 A 
ENDBRANCH   1  25
TORSDOF 4
ENDMDL
