MODEL 1
REMARK VINA RESULT:      -8.4      0.000      0.000
REMARK  5 active torsions:
REMARK  status: ('A' for Active; 'I' for Inactive)
REMARK    1  A    between atoms: C_8  and  C_9 
REMARK    2  A    between atoms: C_9  and  C_10 
REMARK       I    between atoms: C_10  and  N_11 
REMARK    3  A    between atoms: N_11  and  N_12 
REMARK    4  A    between atoms: C_13  and  C_14 
REMARK    5  A    between atoms: C_15  and  O_16 
ROOT
HETATM    1  C   UNL     1      41.508 -13.534   5.565  1.00  0.00     0.241 C 
HETATM    2  N   UNL     1      42.860 -13.335   5.308  1.00  0.00    -0.247 N 
HETATM    3  O   UNL     1      40.771 -12.708   6.102  1.00  0.00    -0.271 OA
HETATM    4  H   UNL     1      43.416 -14.101   4.940  1.00  0.00     0.192 HD
ENDROOT
BRANCH   1   5
HETATM    5  C   UNL     1      40.982 -14.868   5.054  1.00  0.00     0.145 C 
BRANCH   5   6
HETATM    6  C   UNL     1      41.862 -16.009   5.463  1.00  0.00    -0.021 A 
HETATM    7  C   UNL     1      42.586 -16.896   4.602  1.00  0.00    -0.001 A 
HETATM    8  C   UNL     1      42.697 -17.038   3.202  1.00  0.00     0.014 A 
HETATM    9  C   UNL     1      43.331 -17.750   5.417  1.00  0.00     0.042 A 
HETATM   10  C   UNL     1      43.552 -18.013   2.674  1.00  0.00     0.001 A 
HETATM   11  C   UNL     1      44.289 -18.842   3.516  1.00  0.00     0.002 A 
HETATM   12  C   UNL     1      44.191 -18.728   4.905  1.00  0.00     0.030 A 
HETATM   13  N   UNL     1      43.041 -17.425   6.721  1.00  0.00    -0.365 N 
HETATM   14  H   UNL     1      43.435 -17.885   7.530  1.00  0.00     0.165 HD
HETATM   15  C   UNL     1      42.161 -16.378   6.761  1.00  0.00     0.097 A 
ENDBRANCH   5   6
ENDBRANCH   1   5
BRANCH   2  16
HETATM   16  N   UNL     1      43.491 -12.242   5.816  1.00  0.00    -0.184 NA
HETATM   17  C   UNL     1      44.040 -12.411   6.976  1.00  0.00     0.153 C 
BRANCH  17  18
HETATM   18  C   UNL     1      44.695 -11.289   7.675  1.00  0.00     0.017 A 
HETATM   19  C   UNL     1      45.867 -10.695   7.191  1.00  0.00     0.077 A 
HETATM   20  C   UNL     1      46.430  -9.610   7.858  1.00  0.00     0.039 A 
HETATM   21  C   UNL     1      45.831  -9.119   9.019  1.00  0.00     0.022 A 
HETATM   22  C   UNL     1      44.669  -9.719   9.505  1.00  0.00     0.012 A 
HETATM   23 BR   UNL     1      43.862  -9.057  11.082  1.00  0.00    -0.051 Br
HETATM   24  C   UNL     1      44.092 -10.800   8.839  1.00  0.00     0.034 A 
BRANCH  19  25
HETATM   25  O   UNL     1      46.512 -11.114   6.060  1.00  0.00    -0.360 OA
HETATM   26  H   UNL     1      45.867 -11.121   5.315  1.00  0.00     0.217 HD
ENDBRANCH  19  25
ENDBRANCH  17  18
ENDBRANCH   2  16
TORSDOF 5
ENDMDL
MODEL 2
REMARK VINA RESULT:      -8.2      1.535      2.131
REMARK  5 active torsions:
REMARK  status: ('A' for Active; 'I' for Inactive)
REMARK    1  A    between atoms: C_8  and  C_9 
REMARK    2  A    between atoms: C_9  and  C_10 
REMARK       I    between atoms: C_10  and  N_11 
REMARK    3  A    between atoms: N_11  and  N_12 
REMARK    4  A    between atoms: C_13  and  C_14 
REMARK    5  A    between atoms: C_15  and  O_16 
ROOT
HETATM    1  C   UNL     1      42.842 -13.512   3.846  1.00  0.00     0.241 C 
HETATM    2  N   UNL     1      43.011 -13.397   5.221  1.00  0.00    -0.247 N 
HETATM    3  O   UNL     1      43.435 -12.829   3.011  1.00  0.00    -0.271 OA
HETATM    4  H   UNL     1      42.420 -13.939   5.845  1.00  0.00     0.192 HD
ENDROOT
BRANCH   1   5
HETATM    5  C   UNL     1      41.889 -14.627   3.443  1.00  0.00     0.145 C 
BRANCH   5   6
HETATM    6  C   UNL     1      42.616 -15.900   3.137  1.00  0.00    -0.021 A 
HETATM    7  C   UNL     1      43.030 -16.908   4.068  1.00  0.00    -0.001 A 
HETATM    8  C   UNL     1      42.953 -17.043   5.471  1.00  0.00     0.014 A 
HETATM    9  C   UNL     1      43.597 -17.947   3.331  1.00  0.00     0.042 A 
HETATM   10  C   UNL     1      43.432 -18.210   6.078  1.00  0.00     0.001 A 
HETATM   11  C   UNL     1      43.983 -19.234   5.311  1.00  0.00     0.002 A 
HETATM   12  C   UNL     1      44.079 -19.121   3.922  1.00  0.00     0.030 A 
HETATM   13  N   UNL     1      43.569 -17.572   2.009  1.00  0.00    -0.365 N 
HETATM   14  H   UNL     1      43.921 -18.133   1.244  1.00  0.00     0.165 HD
HETATM   15  C   UNL     1      42.979 -16.345   1.880  1.00  0.00     0.097 A 
ENDBRANCH   5   6
ENDBRANCH   1   5
BRANCH   2  16
HETATM   16  N   UNL     1      43.739 -12.365   5.729  1.00  0.00    -0.184 NA
HETATM   17  C   UNL     1      43.894 -12.379   7.015  1.00  0.00     0.153 C 
BRANCH  17  18
HETATM   18  C   UNL     1      44.599 -11.281   7.704  1.00  0.00     0.017 A 
HETATM   19  C   UNL     1      45.784 -10.730   7.202  1.00  0.00     0.077 A 
HETATM   20  C   UNL     1      46.396  -9.666   7.861  1.00  0.00     0.039 A 
HETATM   21  C   UNL     1      45.833  -9.156   9.032  1.00  0.00     0.022 A 
HETATM   22  C   UNL     1      44.659  -9.714   9.535  1.00  0.00     0.012 A 
HETATM   23 BR   UNL     1      43.901  -9.025  11.126  1.00  0.00    -0.051 Br
HETATM   24  C   UNL     1      44.032 -10.773   8.878  1.00  0.00     0.034 A 
BRANCH  19  25
HETATM   25  O   UNL     1      46.396 -11.169   6.061  1.00  0.00    -0.360 OA
HETATM   26  H   UNL     1      47.025 -10.476   5.755  1.00  0.00     0.217 HD
ENDBRANCH  19  25
ENDBRANCH  17  18
ENDBRANCH   2  16
TORSDOF 5
ENDMDL
MODEL 3
REMARK VINA RESULT:      -8.1      5.743      8.058
REMARK  5 active torsions:
REMARK  status: ('A' for Active; 'I' for Inactive)
REMARK    1  A    between atoms: C_8  and  C_9 
REMARK    2  A    between atoms: C_9  and  C_10 
REMARK       I    between atoms: C_10  and  N_11 
REMARK    3  A    between atoms: N_11  and  N_12 
REMARK    4  A    between atoms: C_13  and  C_14 
REMARK    5  A    between atoms: C_15  and  O_16 
ROOT
HETATM    1  C   UNL     1      41.827 -15.682   1.563  1.00  0.00     0.241 C 
HETATM    2  N   UNL     1      41.711 -14.761   0.528  1.00  0.00    -0.247 N 
HETATM    3  O   UNL     1      40.886 -16.088   2.244  1.00  0.00    -0.271 OA
HETATM    4  H   UNL     1      42.550 -14.413   0.073  1.00  0.00     0.192 HD
ENDROOT
BRANCH   1   5
HETATM    5  C   UNL     1      43.241 -16.214   1.747  1.00  0.00     0.145 C 
BRANCH   5   6
HETATM    6  C   UNL     1      43.413 -16.901   3.066  1.00  0.00    -0.021 A 
HETATM    7  C   UNL     1      43.549 -18.308   3.300  1.00  0.00    -0.001 A 
HETATM    8  C   UNL     1      43.533 -19.450   2.471  1.00  0.00     0.014 A 
HETATM    9  C   UNL     1      43.766 -18.483   4.668  1.00  0.00     0.042 A 
HETATM   10  C   UNL     1      43.744 -20.714   3.036  1.00  0.00     0.001 A 
HETATM   11  C   UNL     1      43.968 -20.852   4.403  1.00  0.00     0.002 A 
HETATM   12  C   UNL     1      43.980 -19.739   5.247  1.00  0.00     0.030 A 
HETATM   13  N   UNL     1      43.722 -17.239   5.250  1.00  0.00    -0.365 N 
HETATM   14  H   UNL     1      43.842 -17.061   6.238  1.00  0.00     0.165 HD
HETATM   15  C   UNL     1      43.513 -16.279   4.297  1.00  0.00     0.097 A 
ENDBRANCH   5   6
ENDBRANCH   1   5
BRANCH   2  16
HETATM   16  N   UNL     1      40.532 -14.111   0.330  1.00  0.00    -0.184 NA
HETATM   17  C   UNL     1      40.367 -13.615  -0.854  1.00  0.00     0.153 C 
BRANCH  17  18
HETATM   18  C   UNL     1      39.166 -12.824  -1.183  1.00  0.00     0.017 A 
HETATM   19  C   UNL     1      38.556 -12.888  -2.441  1.00  0.00     0.077 A 
HETATM   20  C   UNL     1      37.398 -12.156  -2.697  1.00  0.00     0.039 A 
HETATM   21  C   UNL     1      36.851 -11.347  -1.700  1.00  0.00     0.022 A 
HETATM   22  C   UNL     1      37.467 -11.277  -0.451  1.00  0.00     0.012 A 
HETATM   23 BR   UNL     1      36.728 -10.175   0.898  1.00  0.00    -0.051 Br
HETATM   24  C   UNL     1      38.621 -12.013  -0.181  1.00  0.00     0.034 A 
BRANCH  19  25
HETATM   25  O   UNL     1      39.026 -13.658  -3.469  1.00  0.00    -0.360 OA
HETATM   26  H   UNL     1      39.279 -13.066  -4.215  1.00  0.00     0.217 HD
ENDBRANCH  19  25
ENDBRANCH  17  18
ENDBRANCH   2  16
TORSDOF 5
ENDMDL
MODEL 4
REMARK VINA RESULT:      -7.9      5.784      7.702
REMARK  5 active torsions:
REMARK  status: ('A' for Active; 'I' for Inactive)
REMARK    1  A    between atoms: C_8  and  C_9 
REMARK    2  A    between atoms: C_9  and  C_10 
REMARK       I    between atoms: C_10  and  N_11 
REMARK    3  A    between atoms: N_11  and  N_12 
REMARK    4  A    between atoms: C_13  and  C_14 
REMARK    5  A    between atoms: C_15  and  O_16 
ROOT
HETATM    1  C   UNL     1      42.084 -15.520   3.150  1.00  0.00     0.241 C 
HETATM    2  N   UNL     1      42.326 -15.202   1.818  1.00  0.00    -0.247 N 
HETATM    3  O   UNL     1      40.973 -15.767   3.617  1.00  0.00    -0.271 OA
HETATM    4  H   UNL     1      43.261 -14.927   1.532  1.00  0.00     0.192 HD
ENDROOT
BRANCH   1   5
HETATM    5  C   UNL     1      43.348 -15.607   3.992  1.00  0.00     0.145 C 
BRANCH   5   6
HETATM    6  C   UNL     1      43.496 -16.948   4.641  1.00  0.00    -0.021 A 
HETATM    7  C   UNL     1      43.582 -18.222   3.990  1.00  0.00    -0.001 A 
HETATM    8  C   UNL     1      43.524 -18.645   2.644  1.00  0.00     0.014 A 
HETATM    9  C   UNL     1      43.793 -19.182   4.979  1.00  0.00     0.042 A 
HETATM   10  C   UNL     1      43.690 -20.002   2.342  1.00  0.00     0.001 A 
HETATM   11  C   UNL     1      43.910 -20.934   3.353  1.00  0.00     0.002 A 
HETATM   12  C   UNL     1      43.963 -20.542   4.693  1.00  0.00     0.030 A 
HETATM   13  N   UNL     1      43.794 -18.528   6.188  1.00  0.00    -0.365 N 
HETATM   14  H   UNL     1      43.922 -18.977   7.085  1.00  0.00     0.165 HD
HETATM   15  C   UNL     1      43.620 -17.184   5.997  1.00  0.00     0.097 A 
ENDBRANCH   5   6
ENDBRANCH   1   5
BRANCH   2  16
HETATM   16  N   UNL     1      41.281 -14.971   0.977  1.00  0.00    -0.184 NA
HETATM   17  C   UNL     1      41.010 -13.722   0.764  1.00  0.00     0.153 C 
BRANCH  17  18
HETATM   18  C   UNL     1      39.858 -13.330  -0.069  1.00  0.00     0.017 A 
HETATM   19  C   UNL     1      39.072 -12.211   0.231  1.00  0.00     0.077 A 
HETATM   20  C   UNL     1      38.017 -11.850  -0.605  1.00  0.00     0.039 A 
HETATM   21  C   UNL     1      37.735 -12.614  -1.739  1.00  0.00     0.022 A 
HETATM   22  C   UNL     1      38.513 -13.734  -2.029  1.00  0.00     0.012 A 
HETATM   23 BR   UNL     1      38.125 -14.772  -3.563  1.00  0.00    -0.051 Br
HETATM   24  C   UNL     1      39.577 -14.098  -1.204  1.00  0.00     0.034 A 
BRANCH  19  25
HETATM   25  O   UNL     1      39.285 -11.410   1.319  1.00  0.00    -0.360 OA
HETATM   26  H   UNL     1      39.599 -10.530   1.004  1.00  0.00     0.217 HD
ENDBRANCH  19  25
ENDBRANCH  17  18
ENDBRANCH   2  16
TORSDOF 5
ENDMDL
MODEL 5
REMARK VINA RESULT:      -7.7      1.930      2.501
REMARK  5 active torsions:
REMARK  status: ('A' for Active; 'I' for Inactive)
REMARK    1  A    between atoms: C_8  and  C_9 
REMARK    2  A    between atoms: C_9  and  C_10 
REMARK       I    between atoms: C_10  and  N_11 
REMARK    3  A    between atoms: N_11  and  N_12 
REMARK    4  A    between atoms: C_13  and  C_14 
REMARK    5  A    between atoms: C_15  and  O_16 
ROOT
HETATM    1  C   UNL     1      42.379 -14.493   3.777  1.00  0.00     0.241 C 
HETATM    2  N   UNL     1      43.213 -13.383   3.851  1.00  0.00    -0.247 N 
HETATM    3  O   UNL     1      41.262 -14.562   4.288  1.00  0.00    -0.271 OA
HETATM    4  H   UNL     1      44.155 -13.439   3.476  1.00  0.00     0.192 HD
ENDROOT
BRANCH   1   5
HETATM    5  C   UNL     1      42.949 -15.624   2.933  1.00  0.00     0.145 C 
BRANCH   5   6
HETATM    6  C   UNL     1      43.385 -16.784   3.773  1.00  0.00    -0.021 A 
HETATM    7  C   UNL     1      43.437 -18.163   3.387  1.00  0.00    -0.001 A 
HETATM    8  C   UNL     1      43.096 -18.871   2.214  1.00  0.00     0.014 A 
HETATM    9  C   UNL     1      43.979 -18.875   4.458  1.00  0.00     0.042 A 
HETATM   10  C   UNL     1      43.319 -20.252   2.153  1.00  0.00     0.001 A 
HETATM   11  C   UNL     1      43.872 -20.930   3.237  1.00  0.00     0.002 A 
HETATM   12  C   UNL     1      44.210 -20.254   4.412  1.00  0.00     0.030 A 
HETATM   13  N   UNL     1      44.208 -17.974   5.471  1.00  0.00    -0.365 N 
HETATM   14  H   UNL     1      44.595 -18.211   6.374  1.00  0.00     0.165 HD
HETATM   15  C   UNL     1      43.858 -16.714   5.069  1.00  0.00     0.097 A 
ENDBRANCH   5   6
ENDBRANCH   1   5
BRANCH   2  16
HETATM   16  N   UNL     1      42.887 -12.347   4.672  1.00  0.00    -0.184 NA
HETATM   17  C   UNL     1      43.631 -12.220   5.724  1.00  0.00     0.153 C 
BRANCH  17  18
HETATM   18  C   UNL     1      43.344 -11.185   6.734  1.00  0.00     0.017 A 
HETATM   19  C   UNL     1      42.207 -10.372   6.661  1.00  0.00     0.077 A 
HETATM   20  C   UNL     1      41.951  -9.433   7.658  1.00  0.00     0.039 A 
HETATM   21  C   UNL     1      42.836  -9.294   8.728  1.00  0.00     0.022 A 
HETATM   22  C   UNL     1      43.974 -10.098   8.792  1.00  0.00     0.012 A 
HETATM   23 BR   UNL     1      45.177  -9.904  10.240  1.00  0.00    -0.051 Br
HETATM   24  C   UNL     1      44.235 -11.048   7.804  1.00  0.00     0.034 A 
BRANCH  19  25
HETATM   25  O   UNL     1      41.289 -10.448   5.650  1.00  0.00    -0.360 OA
HETATM   26  H   UNL     1      41.430  -9.687   5.040  1.00  0.00     0.217 HD
ENDBRANCH  19  25
ENDBRANCH  17  18
ENDBRANCH   2  16
TORSDOF 5
ENDMDL
MODEL 6
REMARK VINA RESULT:      -7.7      4.016      8.545
REMARK  5 active torsions:
REMARK  status: ('A' for Active; 'I' for Inactive)
REMARK    1  A    between atoms: C_8  and  C_9 
REMARK    2  A    between atoms: C_9  and  C_10 
REMARK       I    between atoms: C_10  and  N_11 
REMARK    3  A    between atoms: N_11  and  N_12 
REMARK    4  A    between atoms: C_13  and  C_14 
REMARK    5  A    between atoms: C_15  and  O_16 
ROOT
HETATM    1  C   UNL     1      44.284 -11.021   8.321  1.00  0.00     0.241 C 
HETATM    2  N   UNL     1      43.341 -11.877   7.763  1.00  0.00    -0.247 N 
HETATM    3  O   UNL     1      45.499 -11.213   8.300  1.00  0.00    -0.271 OA
HETATM    4  H   UNL     1      42.353 -11.690   7.900  1.00  0.00     0.192 HD
ENDROOT
BRANCH   1   5
HETATM    5  C   UNL     1      43.679  -9.760   8.920  1.00  0.00     0.145 C 
BRANCH   5   6
HETATM    6  C   UNL     1      43.151  -9.994  10.301  1.00  0.00    -0.021 A 
HETATM    7  C   UNL     1      41.917  -9.516  10.851  1.00  0.00    -0.001 A 
HETATM    8  C   UNL     1      40.873  -8.701  10.363  1.00  0.00     0.014 A 
HETATM    9  C   UNL     1      41.802 -10.043  12.137  1.00  0.00     0.042 A 
HETATM   10  C   UNL     1      39.756  -8.456  11.172  1.00  0.00     0.001 A 
HETATM   11  C   UNL     1      39.668  -9.007  12.448  1.00  0.00     0.002 A 
HETATM   12  C   UNL     1      40.692  -9.810  12.957  1.00  0.00     0.030 A 
HETATM   13  N   UNL     1      42.938 -10.778  12.379  1.00  0.00    -0.365 N 
HETATM   14  H   UNL     1      43.131 -11.274  13.239  1.00  0.00     0.165 HD
HETATM   15  C   UNL     1      43.755 -10.759  11.282  1.00  0.00     0.097 A 
ENDBRANCH   5   6
ENDBRANCH   1   5
BRANCH   2  16
HETATM   16  N   UNL     1      43.726 -13.099   7.302  1.00  0.00    -0.184 NA
HETATM   17  C   UNL     1      42.793 -13.794   6.735  1.00  0.00     0.153 C 
BRANCH  17  18
HETATM   18  C   UNL     1      43.055 -15.164   6.255  1.00  0.00     0.017 A 
HETATM   19  C   UNL     1      43.279 -16.229   7.136  1.00  0.00     0.077 A 
HETATM   20  C   UNL     1      43.482 -17.516   6.643  1.00  0.00     0.039 A 
HETATM   21  C   UNL     1      43.474 -17.744   5.266  1.00  0.00     0.022 A 
HETATM   22  C   UNL     1      43.262 -16.679   4.391  1.00  0.00     0.012 A 
HETATM   23 BR   UNL     1      43.257 -16.989   2.524  1.00  0.00    -0.051 Br
HETATM   24  C   UNL     1      43.048 -15.388   4.874  1.00  0.00     0.034 A 
BRANCH  19  25
HETATM   25  O   UNL     1      43.299 -16.090   8.497  1.00  0.00    -0.360 OA
HETATM   26  H   UNL     1      42.577 -15.473   8.760  1.00  0.00     0.217 HD
ENDBRANCH  19  25
ENDBRANCH  17  18
ENDBRANCH   2  16
TORSDOF 5
ENDMDL
MODEL 7
REMARK VINA RESULT:      -7.6      3.748      7.792
REMARK  5 active torsions:
REMARK  status: ('A' for Active; 'I' for Inactive)
REMARK    1  A    between atoms: C_8  and  C_9 
REMARK    2  A    between atoms: C_9  and  C_10 
REMARK       I    between atoms: C_10  and  N_11 
REMARK    3  A    between atoms: N_11  and  N_12 
REMARK    4  A    between atoms: C_13  and  C_14 
REMARK    5  A    between atoms: C_15  and  O_16 
ROOT
HETATM    1  C   UNL     1      41.973 -13.440   3.878  1.00  0.00     0.241 C 
HETATM    2  N   UNL     1      43.156 -14.150   4.050  1.00  0.00    -0.247 N 
HETATM    3  O   UNL     1      40.863 -13.956   3.747  1.00  0.00    -0.271 OA
HETATM    4  H   UNL     1      44.041 -13.651   4.064  1.00  0.00     0.192 HD
ENDROOT
BRANCH   1   5
HETATM    5  C   UNL     1      42.157 -11.930   3.932  1.00  0.00     0.145 C 
BRANCH   5   6
HETATM    6  C   UNL     1      42.300 -11.435   5.338  1.00  0.00    -0.021 A 
HETATM    7  C   UNL     1      43.517 -11.251   6.073  1.00  0.00    -0.001 A 
HETATM    8  C   UNL     1      44.881 -11.482   5.792  1.00  0.00     0.014 A 
HETATM    9  C   UNL     1      43.177 -10.699   7.308  1.00  0.00     0.042 A 
HETATM   10  C   UNL     1      45.847 -11.142   6.747  1.00  0.00     0.001 A 
HETATM   11  C   UNL     1      45.474 -10.582   7.966  1.00  0.00     0.002 A 
HETATM   12  C   UNL     1      44.131 -10.352   8.272  1.00  0.00     0.030 A 
HETATM   13  N   UNL     1      41.807 -10.589   7.343  1.00  0.00    -0.365 N 
HETATM   14  H   UNL     1      41.279 -10.223   8.123  1.00  0.00     0.165 HD
HETATM   15  C   UNL     1      41.270 -11.026   6.163  1.00  0.00     0.097 A 
ENDBRANCH   5   6
ENDBRANCH   1   5
BRANCH   2  16
HETATM   16  N   UNL     1      43.161 -15.503   3.903  1.00  0.00    -0.184 NA
HETATM   17  C   UNL     1      43.459 -16.173   4.970  1.00  0.00     0.153 C 
BRANCH  17  18
HETATM   18  C   UNL     1      43.571 -17.644   4.932  1.00  0.00     0.017 A 
HETATM   19  C   UNL     1      43.551 -18.420   6.096  1.00  0.00     0.077 A 
HETATM   20  C   UNL     1      43.617 -19.809   6.014  1.00  0.00     0.039 A 
HETATM   21  C   UNL     1      43.717 -20.429   4.768  1.00  0.00     0.022 A 
HETATM   22  C   UNL     1      43.748 -19.652   3.610  1.00  0.00     0.012 A 
HETATM   23 BR   UNL     1      43.890 -20.494   1.921  1.00  0.00    -0.051 Br
HETATM   24  C   UNL     1      43.672 -18.261   3.680  1.00  0.00     0.034 A 
BRANCH  19  25
HETATM   25  O   UNL     1      43.451 -17.891   7.354  1.00  0.00    -0.360 OA
HETATM   26  H   UNL     1      43.814 -18.542   7.998  1.00  0.00     0.217 HD
ENDBRANCH  19  25
ENDBRANCH  17  18
ENDBRANCH   2  16
TORSDOF 5
ENDMDL
MODEL 8
REMARK VINA RESULT:      -7.5      3.234      7.966
REMARK  5 active torsions:
REMARK  status: ('A' for Active; 'I' for Inactive)
REMARK    1  A    between atoms: C_8  and  C_9 
REMARK    2  A    between atoms: C_9  and  C_10 
REMARK       I    between atoms: C_10  and  N_11 
REMARK    3  A    between atoms: N_11  and  N_12 
REMARK    4  A    between atoms: C_13  and  C_14 
REMARK    5  A    between atoms: C_15  and  O_16 
ROOT
HETATM    1  C   UNL     1      42.033 -12.322   5.254  1.00  0.00     0.241 C 
HETATM    2  N   UNL     1      41.862 -13.571   5.839  1.00  0.00    -0.247 N 
HETATM    3  O   UNL     1      42.099 -12.122   4.041  1.00  0.00    -0.271 OA
HETATM    4  H   UNL     1      41.906 -13.660   6.850  1.00  0.00     0.192 HD
ENDROOT
BRANCH   1   5
HETATM    5  C   UNL     1      42.065 -11.180   6.260  1.00  0.00     0.145 C 
BRANCH   5   6
HETATM    6  C   UNL     1      43.416 -11.026   6.887  1.00  0.00    -0.021 A 
HETATM    7  C   UNL     1      43.723 -10.411   8.144  1.00  0.00    -0.001 A 
HETATM    8  C   UNL     1      42.957  -9.756   9.133  1.00  0.00     0.014 A 
HETATM    9  C   UNL     1      45.093 -10.566   8.360  1.00  0.00     0.042 A 
HETATM   10  C   UNL     1      43.585  -9.295  10.297  1.00  0.00     0.001 A 
HETATM   11  C   UNL     1      44.953  -9.476  10.485  1.00  0.00     0.002 A 
HETATM   12  C   UNL     1      45.735 -10.113   9.518  1.00  0.00     0.030 A 
HETATM   13  N   UNL     1      45.608 -11.211   7.261  1.00  0.00    -0.365 N 
HETATM   14  H   UNL     1      46.582 -11.453   7.139  1.00  0.00     0.165 HD
HETATM   15  C   UNL     1      44.609 -11.495   6.370  1.00  0.00     0.097 A 
ENDBRANCH   5   6
ENDBRANCH   1   5
BRANCH   2  16
HETATM   16  N   UNL     1      41.938 -14.693   5.072  1.00  0.00    -0.184 NA
HETATM   17  C   UNL     1      43.017 -15.393   5.223  1.00  0.00     0.153 C 
BRANCH  17  18
HETATM   18  C   UNL     1      43.261 -16.593   4.401  1.00  0.00     0.017 A 
HETATM   19  C   UNL     1      43.214 -16.557   3.002  1.00  0.00     0.077 A 
HETATM   20  C   UNL     1      43.492 -17.704   2.262  1.00  0.00     0.039 A 
HETATM   21  C   UNL     1      43.805 -18.897   2.916  1.00  0.00     0.022 A 
HETATM   22  C   UNL     1      43.840 -18.932   4.310  1.00  0.00     0.012 A 
HETATM   23 BR   UNL     1      44.260 -20.551   5.195  1.00  0.00    -0.051 Br
HETATM   24  C   UNL     1      43.574 -17.787   5.060  1.00  0.00     0.034 A 
BRANCH  19  25
HETATM   25  O   UNL     1      42.919 -15.430   2.287  1.00  0.00    -0.360 OA
HETATM   26  H   UNL     1      42.652 -15.697   1.376  1.00  0.00     0.217 HD
ENDBRANCH  19  25
ENDBRANCH  17  18
ENDBRANCH   2  16
TORSDOF 5
ENDMDL
MODEL 9
REMARK VINA RESULT:      -7.5      1.757      2.113
REMARK  5 active torsions:
REMARK  status: ('A' for Active; 'I' for Inactive)
REMARK    1  A    between atoms: C_8  and  C_9 
REMARK    2  A    between atoms: C_9  and  C_10 
REMARK       I    between atoms: C_10  and  N_11 
REMARK    3  A    between atoms: N_11  and  N_12 
REMARK    4  A    between atoms: C_13  and  C_14 
REMARK    5  A    between atoms: C_15  and  O_16 
ROOT
HETATM    1  C   UNL     1      42.796 -13.575   5.911  1.00  0.00     0.241 C 
HETATM    2  N   UNL     1      43.894 -12.879   6.403  1.00  0.00    -0.247 N 
HETATM    3  O   UNL     1      41.666 -13.530   6.397  1.00  0.00    -0.271 OA
HETATM    4  H   UNL     1      44.811 -13.039   5.996  1.00  0.00     0.192 HD
ENDROOT
BRANCH   1   5
HETATM    5  C   UNL     1      43.096 -14.367   4.646  1.00  0.00     0.145 C 
BRANCH   5   6
HETATM    6  C   UNL     1      43.443 -15.792   4.949  1.00  0.00    -0.021 A 
HETATM    7  C   UNL     1      43.405 -16.904   4.045  1.00  0.00    -0.001 A 
HETATM    8  C   UNL     1      43.028 -17.062   2.694  1.00  0.00     0.014 A 
HETATM    9  C   UNL     1      43.884 -18.017   4.735  1.00  0.00     0.042 A 
HETATM   10  C   UNL     1      43.157 -18.317   2.085  1.00  0.00     0.001 A 
HETATM   11  C   UNL     1      43.650 -19.405   2.800  1.00  0.00     0.002 A 
HETATM   12  C   UNL     1      44.021 -19.277   4.141  1.00  0.00     0.030 A 
HETATM   13  N   UNL     1      44.164 -17.612   6.019  1.00  0.00    -0.365 N 
HETATM   14  H   UNL     1      44.524 -18.214   6.747  1.00  0.00     0.165 HD
HETATM   15  C   UNL     1      43.905 -16.276   6.158  1.00  0.00     0.097 A 
ENDBRANCH   5   6
ENDBRANCH   1   5
BRANCH   2  16
HETATM   16  N   UNL     1      43.803 -12.228   7.595  1.00  0.00    -0.184 NA
HETATM   17  C   UNL     1      43.571 -10.957   7.513  1.00  0.00     0.153 C 
BRANCH  17  18
HETATM   18  C   UNL     1      43.520 -10.117   8.725  1.00  0.00     0.017 A 
HETATM   19  C   UNL     1      44.544 -10.128   9.679  1.00  0.00     0.077 A 
HETATM   20  C   UNL     1      44.477  -9.289  10.789  1.00  0.00     0.039 A 
HETATM   21  C   UNL     1      43.380  -8.443  10.957  1.00  0.00     0.022 A 
HETATM   22  C   UNL     1      42.356  -8.442  10.010  1.00  0.00     0.012 A 
HETATM   23 BR   UNL     1      40.867  -7.299  10.243  1.00  0.00    -0.051 Br
HETATM   24  C   UNL     1      42.418  -9.271   8.890  1.00  0.00     0.034 A 
BRANCH  19  25
HETATM   25  O   UNL     1      45.653 -10.924   9.586  1.00  0.00    -0.360 OA
HETATM   26  H   UNL     1      46.441 -10.397   9.852  1.00  0.00     0.217 HD
ENDBRANCH  19  25
ENDBRANCH  17  18
ENDBRANCH   2  16
TORSDOF 5
ENDMDL
MODEL 10
REMARK VINA RESULT:      -7.4      2.496      2.998
REMARK  5 active torsions:
REMARK  status: ('A' for Active; 'I' for Inactive)
REMARK    1  A    between atoms: C_8  and  C_9 
REMARK    2  A    between atoms: C_9  and  C_10 
REMARK       I    between atoms: C_10  and  N_11 
REMARK    3  A    between atoms: N_11  and  N_12 
REMARK    4  A    between atoms: C_13  and  C_14 
REMARK    5  A    between atoms: C_15  and  O_16 
ROOT
HETATM    1  C   UNL     1      43.010 -11.301   3.562  1.00  0.00     0.241 C 
HETATM    2  N   UNL     1      42.424 -10.827   4.731  1.00  0.00    -0.247 N 
HETATM    3  O   UNL     1      44.221 -11.455   3.402  1.00  0.00    -0.271 OA
HETATM    4  H   UNL     1      41.424 -10.648   4.751  1.00  0.00     0.192 HD
ENDROOT
BRANCH   1   5
HETATM    5  C   UNL     1      42.001 -11.689   2.491  1.00  0.00     0.145 C 
BRANCH   5   6
HETATM    6  C   UNL     1      41.410 -13.042   2.744  1.00  0.00    -0.021 A 
HETATM    7  C   UNL     1      42.002 -14.314   2.454  1.00  0.00    -0.001 A 
HETATM    8  C   UNL     1      43.211 -14.723   1.851  1.00  0.00     0.014 A 
HETATM    9  C   UNL     1      41.132 -15.296   2.930  1.00  0.00     0.042 A 
HETATM   10  C   UNL     1      43.507 -16.089   1.759  1.00  0.00     0.001 A 
HETATM   11  C   UNL     1      42.621 -17.042   2.255  1.00  0.00     0.002 A 
HETATM   12  C   UNL     1      41.414 -16.664   2.848  1.00  0.00     0.030 A 
HETATM   13  N   UNL     1      40.036 -14.650   3.451  1.00  0.00    -0.365 N 
HETATM   14  H   UNL     1      39.238 -15.114   3.864  1.00  0.00     0.165 HD
HETATM   15  C   UNL     1      40.193 -13.295   3.347  1.00  0.00     0.097 A 
ENDBRANCH   5   6
ENDBRANCH   1   5
BRANCH   2  16
HETATM   16  N   UNL     1      43.207 -10.329   5.726  1.00  0.00    -0.184 NA
HETATM   17  C   UNL     1      43.250 -11.044   6.805  1.00  0.00     0.153 C 
BRANCH  17  18
HETATM   18  C   UNL     1      44.002 -10.585   7.987  1.00  0.00     0.017 A 
HETATM   19  C   UNL     1      45.379 -10.336   7.941  1.00  0.00     0.077 A 
HETATM   20  C   UNL     1      46.044  -9.863   9.070  1.00  0.00     0.039 A 
HETATM   21  C   UNL     1      45.339  -9.647  10.255  1.00  0.00     0.022 A 
HETATM   22  C   UNL     1      43.969  -9.906  10.301  1.00  0.00     0.012 A 
HETATM   23 BR   UNL     1      43.016  -9.618  11.909  1.00  0.00    -0.051 Br
HETATM   24  C   UNL     1      43.292 -10.370   9.174  1.00  0.00     0.034 A 
BRANCH  19  25
HETATM   25  O   UNL     1      46.140 -10.519   6.820  1.00  0.00    -0.360 OA
HETATM   26  H   UNL     1      46.973 -10.979   7.077  1.00  0.00     0.217 HD
ENDBRANCH  19  25
ENDBRANCH  17  18
ENDBRANCH   2  16
TORSDOF 5
ENDMDL
