MODEL 1
REMARK VINA RESULT:      -8.7      0.000      0.000
REMARK  6 active torsions:
REMARK  status: ('A' for Active; 'I' for Inactive)
REMARK    1  A    between atoms: C_3  and  C_4 
REMARK    2  A    between atoms: C_4  and  C_5 
REMARK       I    between atoms: C_5  and  N_6 
REMARK    3  A    between atoms: N_6  and  C_7 
REMARK    4  A    between atoms: C_9  and  C_10 
REMARK    5  A    between atoms: C_11  and  C_12 
REMARK    6  A    between atoms: C_22  and  O_23 
ROOT
HETATM    1  C   UNL     1      43.355 -12.620   6.408  1.00  0.00     0.036 A 
HETATM    2  C   UNL     1      43.570 -13.936   5.991  1.00  0.00     0.050 A 
HETATM    3  C   UNL     1      42.842 -14.468   4.920  1.00  0.00     0.020 A 
HETATM    4  C   UNL     1      41.887 -13.690   4.265  1.00  0.00     0.021 A 
HETATM    5  C   UNL     1      41.664 -12.377   4.676  1.00  0.00     0.004 A 
HETATM    6  C   UNL     1      42.398 -11.845   5.738  1.00  0.00     0.029 A 
ENDROOT
BRANCH   1   7
HETATM    7  N   UNL     1      44.077 -11.995   7.449  1.00  0.00    -0.327 N 
HETATM    8  C   UNL     1      45.271 -11.306   7.343  1.00  0.00     0.226 C 
HETATM    9  O   UNL     1      45.989 -11.233   6.348  1.00  0.00    -0.273 OA
HETATM   10  H   UNL     1      43.690 -12.102   8.378  1.00  0.00     0.169 HD
BRANCH   8  11
HETATM   11  C   UNL     1      45.686 -10.605   8.625  1.00  0.00     0.144 C 
BRANCH  11  12
HETATM   12  C   UNL     1      44.643  -9.647   9.147  1.00  0.00    -0.016 A 
HETATM   13  C   UNL     1      44.659  -8.312   8.706  1.00  0.00     0.010 A 
HETATM   14  C   UNL     1      43.758  -7.375   9.219  1.00  0.00     0.001 A 
HETATM   15  C   UNL     1      42.832  -7.756  10.185  1.00  0.00     0.003 A 
HETATM   16  C   UNL     1      42.802  -9.075  10.633  1.00  0.00     0.037 A 
HETATM   17  C   UNL     1      43.692 -10.012  10.111  1.00  0.00     0.072 A 
BRANCH  17  18
HETATM   18  O   UNL     1      43.589 -11.277  10.616  1.00  0.00    -0.360 OA
HETATM   19  H   UNL     1      44.275 -11.421  11.302  1.00  0.00     0.217 HD
ENDBRANCH  17  18
ENDBRANCH  11  12
ENDBRANCH   8  11
ENDBRANCH   1   7
BRANCH   3  20
HETATM   20  C   UNL     1      43.098 -15.807   4.483  1.00  0.00    -0.060 C 
HETATM   21  C   UNL     1      43.288 -16.941   4.135  1.00  0.00    -0.041 C 
BRANCH  21  22
HETATM   22  C   UNL     1      43.491 -18.298   3.741  1.00  0.00     0.110 A 
HETATM   23  N   UNL     1      43.940 -19.111   4.720  1.00  0.00    -0.252 NA
HETATM   24  C   UNL     1      44.153 -20.402   4.386  1.00  0.00     0.118 A 
HETATM   25  C   UNL     1      43.939 -20.914   3.116  1.00  0.00     0.019 A 
HETATM   26  C   UNL     1      43.477 -20.052   2.126  1.00  0.00     0.004 A 
HETATM   27  C   UNL     1      43.246 -18.715   2.441  1.00  0.00     0.041 A 
ENDBRANCH  21  22
ENDBRANCH   3  20
TORSDOF 6
ENDMDL
MODEL 2
REMARK VINA RESULT:      -8.4      2.844      9.986
REMARK  6 active torsions:
REMARK  status: ('A' for Active; 'I' for Inactive)
REMARK    1  A    between atoms: C_3  and  C_4 
REMARK    2  A    between atoms: C_4  and  C_5 
REMARK       I    between atoms: C_5  and  N_6 
REMARK    3  A    between atoms: N_6  and  C_7 
REMARK    4  A    between atoms: C_9  and  C_10 
REMARK    5  A    between atoms: C_11  and  C_12 
REMARK    6  A    between atoms: C_22  and  O_23 
ROOT
HETATM    1  C   UNL     1      44.156 -11.423   7.087  1.00  0.00     0.036 A 
HETATM    2  C   UNL     1      43.681 -10.923   8.302  1.00  0.00     0.050 A 
HETATM    3  C   UNL     1      44.533 -10.217   9.161  1.00  0.00     0.020 A 
HETATM    4  C   UNL     1      45.869 -10.016   8.815  1.00  0.00     0.021 A 
HETATM    5  C   UNL     1      46.353 -10.515   7.606  1.00  0.00     0.004 A 
HETATM    6  C   UNL     1      45.499 -11.210   6.746  1.00  0.00     0.029 A 
ENDROOT
BRANCH   1   7
HETATM    7  N   UNL     1      43.354 -12.106   6.148  1.00  0.00    -0.327 N 
HETATM    8  C   UNL     1      43.136 -13.469   6.066  1.00  0.00     0.226 C 
HETATM    9  O   UNL     1      43.711 -14.343   6.711  1.00  0.00    -0.273 OA
HETATM   10  H   UNL     1      42.926 -11.530   5.434  1.00  0.00     0.169 HD
BRANCH   8  11
HETATM   11  C   UNL     1      42.077 -13.857   5.049  1.00  0.00     0.144 C 
BRANCH  11  12
HETATM   12  C   UNL     1      42.563 -14.862   4.033  1.00  0.00    -0.016 A 
HETATM   13  C   UNL     1      43.001 -14.407   2.777  1.00  0.00     0.010 A 
HETATM   14  C   UNL     1      43.391 -15.308   1.782  1.00  0.00     0.001 A 
HETATM   15  C   UNL     1      43.342 -16.677   2.025  1.00  0.00     0.003 A 
HETATM   16  C   UNL     1      42.912 -17.145   3.265  1.00  0.00     0.037 A 
HETATM   17  C   UNL     1      42.536 -16.245   4.261  1.00  0.00     0.072 A 
BRANCH  17  18
HETATM   18  O   UNL     1      42.124 -16.800   5.439  1.00  0.00    -0.360 OA
HETATM   19  H   UNL     1      42.340 -16.201   6.185  1.00  0.00     0.217 HD
ENDBRANCH  17  18
ENDBRANCH  11  12
ENDBRANCH   8  11
ENDBRANCH   1   7
BRANCH   3  20
HETATM   20  C   UNL     1      44.021  -9.681  10.386  1.00  0.00    -0.060 C 
HETATM   21  C   UNL     1      43.565  -9.251  11.410  1.00  0.00    -0.041 C 
BRANCH  21  22
HETATM   22  C   UNL     1      42.998  -8.756  12.623  1.00  0.00     0.110 A 
HETATM   23  N   UNL     1      41.943  -9.461  13.084  1.00  0.00    -0.252 NA
HETATM   24  C   UNL     1      41.372  -9.021  14.225  1.00  0.00     0.118 A 
HETATM   25  C   UNL     1      41.808  -7.907  14.925  1.00  0.00     0.019 A 
HETATM   26  C   UNL     1      42.897  -7.199  14.426  1.00  0.00     0.004 A 
HETATM   27  C   UNL     1      43.509  -7.630  13.251  1.00  0.00     0.041 A 
ENDBRANCH  21  22
ENDBRANCH   3  20
TORSDOF 6
ENDMDL
MODEL 3
REMARK VINA RESULT:      -7.9      3.003      9.262
REMARK  6 active torsions:
REMARK  status: ('A' for Active; 'I' for Inactive)
REMARK    1  A    between atoms: C_3  and  C_4 
REMARK    2  A    between atoms: C_4  and  C_5 
REMARK       I    between atoms: C_5  and  N_6 
REMARK    3  A    between atoms: N_6  and  C_7 
REMARK    4  A    between atoms: C_9  and  C_10 
REMARK    5  A    between atoms: C_11  and  C_12 
REMARK    6  A    between atoms: C_22  and  O_23 
ROOT
HETATM    1  C   UNL     1      41.425 -14.956   3.163  1.00  0.00     0.036 A 
HETATM    2  C   UNL     1      42.224 -14.147   3.975  1.00  0.00     0.050 A 
HETATM    3  C   UNL     1      41.721 -12.948   4.496  1.00  0.00     0.020 A 
HETATM    4  C   UNL     1      40.418 -12.547   4.200  1.00  0.00     0.021 A 
HETATM    5  C   UNL     1      39.615 -13.346   3.388  1.00  0.00     0.004 A 
HETATM    6  C   UNL     1      40.116 -14.546   2.877  1.00  0.00     0.029 A 
ENDROOT
BRANCH   1   7
HETATM    7  N   UNL     1      41.841 -16.198   2.634  1.00  0.00    -0.327 N 
HETATM    8  C   UNL     1      43.014 -16.467   1.954  1.00  0.00     0.226 C 
HETATM    9  O   UNL     1      43.842 -15.644   1.565  1.00  0.00    -0.273 OA
HETATM   10  H   UNL     1      41.185 -16.960   2.734  1.00  0.00     0.169 HD
BRANCH   8  11
HETATM   11  C   UNL     1      43.234 -17.944   1.678  1.00  0.00     0.144 C 
BRANCH  11  12
HETATM   12  C   UNL     1      43.491 -18.754   2.925  1.00  0.00    -0.016 A 
HETATM   13  C   UNL     1      43.635 -18.087   4.155  1.00  0.00     0.010 A 
HETATM   14  C   UNL     1      43.945 -18.791   5.321  1.00  0.00     0.001 A 
HETATM   15  C   UNL     1      44.124 -20.171   5.276  1.00  0.00     0.003 A 
HETATM   16  C   UNL     1      43.984 -20.846   4.066  1.00  0.00     0.037 A 
HETATM   17  C   UNL     1      43.661 -20.145   2.905  1.00  0.00     0.072 A 
BRANCH  17  18
HETATM   18  O   UNL     1      43.551 -20.895   1.768  1.00  0.00    -0.360 OA
HETATM   19  H   UNL     1      44.208 -20.595   1.105  1.00  0.00     0.217 HD
ENDBRANCH  17  18
ENDBRANCH  11  12
ENDBRANCH   8  11
ENDBRANCH   1   7
BRANCH   3  20
HETATM   20  C   UNL     1      42.540 -12.148   5.354  1.00  0.00    -0.060 C 
HETATM   21  C   UNL     1      43.254 -11.497   6.068  1.00  0.00    -0.041 C 
BRANCH  21  22
HETATM   22  C   UNL     1      44.123 -10.744   6.913  1.00  0.00     0.110 A 
HETATM   23  N   UNL     1      43.528  -9.732   7.581  1.00  0.00    -0.252 NA
HETATM   24  C   UNL     1      44.319  -8.990   8.385  1.00  0.00     0.118 A 
HETATM   25  C   UNL     1      45.677  -9.212   8.550  1.00  0.00     0.019 A 
HETATM   26  C   UNL     1      46.263 -10.261   7.848  1.00  0.00     0.004 A 
HETATM   27  C   UNL     1      45.473 -11.046   7.011  1.00  0.00     0.041 A 
ENDBRANCH  21  22
ENDBRANCH   3  20
TORSDOF 6
ENDMDL
MODEL 4
REMARK VINA RESULT:      -7.9      2.638      9.376
REMARK  6 active torsions:
REMARK  status: ('A' for Active; 'I' for Inactive)
REMARK    1  A    between atoms: C_3  and  C_4 
REMARK    2  A    between atoms: C_4  and  C_5 
REMARK       I    between atoms: C_5  and  N_6 
REMARK    3  A    between atoms: N_6  and  C_7 
REMARK    4  A    between atoms: C_9  and  C_10 
REMARK    5  A    between atoms: C_11  and  C_12 
REMARK    6  A    between atoms: C_22  and  O_23 
ROOT
HETATM    1  C   UNL     1      42.766 -13.672   3.194  1.00  0.00     0.036 A 
HETATM    2  C   UNL     1      43.154 -13.068   4.393  1.00  0.00     0.050 A 
HETATM    3  C   UNL     1      42.595 -11.847   4.787  1.00  0.00     0.020 A 
HETATM    4  C   UNL     1      41.649 -11.215   3.979  1.00  0.00     0.021 A 
HETATM    5  C   UNL     1      41.258 -11.808   2.779  1.00  0.00     0.004 A 
HETATM    6  C   UNL     1      41.810 -13.032   2.393  1.00  0.00     0.029 A 
ENDROOT
BRANCH   1   7
HETATM    7  N   UNL     1      43.249 -14.921   2.748  1.00  0.00    -0.327 N 
HETATM    8  C   UNL     1      42.577 -16.130   2.756  1.00  0.00     0.226 C 
HETATM    9  O   UNL     1      41.490 -16.360   3.282  1.00  0.00    -0.273 OA
HETATM   10  H   UNL     1      44.207 -14.932   2.424  1.00  0.00     0.169 HD
BRANCH   8  11
HETATM   11  C   UNL     1      43.319 -17.245   2.040  1.00  0.00     0.144 C 
BRANCH  11  12
HETATM   12  C   UNL     1      43.632 -18.422   2.929  1.00  0.00    -0.016 A 
HETATM   13  C   UNL     1      43.507 -19.724   2.410  1.00  0.00     0.010 A 
HETATM   14  C   UNL     1      43.717 -20.843   3.220  1.00  0.00     0.001 A 
HETATM   15  C   UNL     1      44.048 -20.680   4.562  1.00  0.00     0.003 A 
HETATM   16  C   UNL     1      44.177 -19.398   5.091  1.00  0.00     0.037 A 
HETATM   17  C   UNL     1      43.981 -18.282   4.280  1.00  0.00     0.072 A 
BRANCH  17  18
HETATM   18  O   UNL     1      44.124 -17.069   4.892  1.00  0.00    -0.360 OA
HETATM   19  H   UNL     1      44.259 -17.193   5.855  1.00  0.00     0.217 HD
ENDBRANCH  17  18
ENDBRANCH  11  12
ENDBRANCH   8  11
ENDBRANCH   1   7
BRANCH   3  20
HETATM   20  C   UNL     1      42.978 -11.259   6.034  1.00  0.00    -0.060 C 
HETATM   21  C   UNL     1      43.304 -10.797   7.094  1.00  0.00    -0.041 C 
BRANCH  21  22
HETATM   22  C   UNL     1      43.694 -10.275   8.364  1.00  0.00     0.110 A 
HETATM   23  N   UNL     1      42.704  -9.672   9.057  1.00  0.00    -0.252 NA
HETATM   24  C   UNL     1      43.034  -9.158  10.261  1.00  0.00     0.118 A 
HETATM   25  C   UNL     1      44.308  -9.218  10.802  1.00  0.00     0.019 A 
HETATM   26  C   UNL     1      45.308  -9.844  10.065  1.00  0.00     0.004 A 
HETATM   27  C   UNL     1      44.999 -10.387   8.820  1.00  0.00     0.041 A 
ENDBRANCH  21  22
ENDBRANCH   3  20
TORSDOF 6
ENDMDL
MODEL 5
REMARK VINA RESULT:      -7.8      5.187      8.367
REMARK  6 active torsions:
REMARK  status: ('A' for Active; 'I' for Inactive)
REMARK    1  A    between atoms: C_3  and  C_4 
REMARK    2  A    between atoms: C_4  and  C_5 
REMARK       I    between atoms: C_5  and  N_6 
REMARK    3  A    between atoms: N_6  and  C_7 
REMARK    4  A    between atoms: C_9  and  C_10 
REMARK    5  A    between atoms: C_11  and  C_12 
REMARK    6  A    between atoms: C_22  and  O_23 
ROOT
HETATM    1  C   UNL     1      41.661 -12.065   1.673  1.00  0.00     0.036 A 
HETATM    2  C   UNL     1      41.911 -13.431   1.829  1.00  0.00     0.050 A 
HETATM    3  C   UNL     1      42.774 -13.885   2.834  1.00  0.00     0.020 A 
HETATM    4  C   UNL     1      43.401 -12.973   3.684  1.00  0.00     0.021 A 
HETATM    5  C   UNL     1      43.160 -11.608   3.534  1.00  0.00     0.004 A 
HETATM    6  C   UNL     1      42.291 -11.159   2.537  1.00  0.00     0.029 A 
ENDROOT
BRANCH   1   7
HETATM    7  N   UNL     1      40.772 -11.531   0.715  1.00  0.00    -0.327 N 
HETATM    8  C   UNL     1      41.083 -10.695  -0.341  1.00  0.00     0.226 C 
HETATM    9  O   UNL     1      42.167 -10.155  -0.554  1.00  0.00    -0.273 OA
HETATM   10  H   UNL     1      39.795 -11.757   0.847  1.00  0.00     0.169 HD
BRANCH   8  11
HETATM   11  C   UNL     1      39.921 -10.448  -1.287  1.00  0.00     0.144 C 
BRANCH  11  12
HETATM   12  C   UNL     1      39.392 -11.708  -1.926  1.00  0.00    -0.016 A 
HETATM   13  C   UNL     1      38.025 -12.017  -1.800  1.00  0.00     0.010 A 
HETATM   14  C   UNL     1      37.508 -13.209  -2.314  1.00  0.00     0.001 A 
HETATM   15  C   UNL     1      38.349 -14.115  -2.954  1.00  0.00     0.003 A 
HETATM   16  C   UNL     1      39.704 -13.824  -3.087  1.00  0.00     0.037 A 
HETATM   17  C   UNL     1      40.217 -12.629  -2.587  1.00  0.00     0.072 A 
BRANCH  17  18
HETATM   18  O   UNL     1      41.558 -12.437  -2.762  1.00  0.00    -0.360 OA
HETATM   19  H   UNL     1      42.057 -12.889  -2.049  1.00  0.00     0.217 HD
ENDBRANCH  17  18
ENDBRANCH  11  12
ENDBRANCH   8  11
ENDBRANCH   1   7
BRANCH   3  20
HETATM   20  C   UNL     1      42.993 -15.289   3.002  1.00  0.00    -0.060 C 
HETATM   21  C   UNL     1      43.183 -16.470   3.110  1.00  0.00    -0.041 C 
BRANCH  21  22
HETATM   22  C   UNL     1      43.413 -17.875   3.209  1.00  0.00     0.110 A 
HETATM   23  N   UNL     1      43.969 -18.278   4.372  1.00  0.00    -0.252 NA
HETATM   24  C   UNL     1      44.211 -19.600   4.502  1.00  0.00     0.118 A 
HETATM   25  C   UNL     1      43.923 -20.536   3.521  1.00  0.00     0.019 A 
HETATM   26  C   UNL     1      43.351 -20.092   2.333  1.00  0.00     0.004 A 
HETATM   27  C   UNL     1      43.088 -18.734   2.170  1.00  0.00     0.041 A 
ENDBRANCH  21  22
ENDBRANCH   3  20
TORSDOF 6
ENDMDL
MODEL 6
REMARK VINA RESULT:      -7.6      4.207      9.085
REMARK  6 active torsions:
REMARK  status: ('A' for Active; 'I' for Inactive)
REMARK    1  A    between atoms: C_3  and  C_4 
REMARK    2  A    between atoms: C_4  and  C_5 
REMARK       I    between atoms: C_5  and  N_6 
REMARK    3  A    between atoms: N_6  and  C_7 
REMARK    4  A    between atoms: C_9  and  C_10 
REMARK    5  A    between atoms: C_11  and  C_12 
REMARK    6  A    between atoms: C_22  and  O_23 
ROOT
HETATM    1  C   UNL     1      42.281 -15.388   3.627  1.00  0.00     0.036 A 
HETATM    2  C   UNL     1      42.804 -14.315   4.354  1.00  0.00     0.050 A 
HETATM    3  C   UNL     1      43.259 -14.502   5.665  1.00  0.00     0.020 A 
HETATM    4  C   UNL     1      43.184 -15.761   6.261  1.00  0.00     0.021 A 
HETATM    5  C   UNL     1      42.661 -16.836   5.545  1.00  0.00     0.004 A 
HETATM    6  C   UNL     1      42.216 -16.650   4.233  1.00  0.00     0.029 A 
ENDROOT
BRANCH   1   7
HETATM    7  N   UNL     1      41.842 -15.293   2.288  1.00  0.00    -0.327 N 
HETATM    8  C   UNL     1      40.577 -14.952   1.844  1.00  0.00     0.226 C 
HETATM    9  O   UNL     1      39.572 -14.805   2.536  1.00  0.00    -0.273 OA
HETATM   10  H   UNL     1      42.523 -15.543   1.583  1.00  0.00     0.169 HD
BRANCH   8  11
HETATM   11  C   UNL     1      40.489 -14.770   0.338  1.00  0.00     0.144 C 
BRANCH  11  12
HETATM   12  C   UNL     1      40.216 -13.345  -0.077  1.00  0.00    -0.016 A 
HETATM   13  C   UNL     1      41.038 -12.319   0.422  1.00  0.00     0.010 A 
HETATM   14  C   UNL     1      40.776 -10.979   0.121  1.00  0.00     0.001 A 
HETATM   15  C   UNL     1      39.686 -10.644  -0.676  1.00  0.00     0.003 A 
HETATM   16  C   UNL     1      38.862 -11.649  -1.179  1.00  0.00     0.037 A 
HETATM   17  C   UNL     1      39.131 -12.985  -0.890  1.00  0.00     0.072 A 
BRANCH  17  18
HETATM   18  O   UNL     1      38.264 -13.896  -1.423  1.00  0.00    -0.360 OA
HETATM   19  H   UNL     1      37.561 -13.435  -1.928  1.00  0.00     0.217 HD
ENDBRANCH  17  18
ENDBRANCH  11  12
ENDBRANCH   8  11
ENDBRANCH   1   7
BRANCH   3  20
HETATM   20  C   UNL     1      43.824 -13.401   6.384  1.00  0.00    -0.060 C 
HETATM   21  C   UNL     1      44.268 -12.466   6.995  1.00  0.00    -0.041 C 
BRANCH  21  22
HETATM   22  C   UNL     1      44.766 -11.346   7.725  1.00  0.00     0.110 A 
HETATM   23  N   UNL     1      44.179 -11.145   8.924  1.00  0.00    -0.252 NA
HETATM   24  C   UNL     1      44.616 -10.090   9.644  1.00  0.00     0.118 A 
HETATM   25  C   UNL     1      45.613  -9.226   9.218  1.00  0.00     0.019 A 
HETATM   26  C   UNL     1      46.199  -9.457   7.977  1.00  0.00     0.004 A 
HETATM   27  C   UNL     1      45.770 -10.539   7.212  1.00  0.00     0.041 A 
ENDBRANCH  21  22
ENDBRANCH   3  20
TORSDOF 6
ENDMDL
MODEL 7
REMARK VINA RESULT:      -7.5      1.946      2.580
REMARK  6 active torsions:
REMARK  status: ('A' for Active; 'I' for Inactive)
REMARK    1  A    between atoms: C_3  and  C_4 
REMARK    2  A    between atoms: C_4  and  C_5 
REMARK       I    between atoms: C_5  and  N_6 
REMARK    3  A    between atoms: N_6  and  C_7 
REMARK    4  A    between atoms: C_9  and  C_10 
REMARK    5  A    between atoms: C_11  and  C_12 
REMARK    6  A    between atoms: C_22  and  O_23 
ROOT
HETATM    1  C   UNL     1      40.577 -11.484   6.038  1.00  0.00     0.036 A 
HETATM    2  C   UNL     1      41.164 -12.714   5.731  1.00  0.00     0.050 A 
HETATM    3  C   UNL     1      40.743 -13.441   4.610  1.00  0.00     0.020 A 
HETATM    4  C   UNL     1      39.725 -12.946   3.795  1.00  0.00     0.021 A 
HETATM    5  C   UNL     1      39.131 -11.721   4.096  1.00  0.00     0.004 A 
HETATM    6  C   UNL     1      39.560 -10.993   5.209  1.00  0.00     0.029 A 
ENDROOT
BRANCH   1   7
HETATM    7  N   UNL     1      40.973 -10.671   7.122  1.00  0.00    -0.327 N 
HETATM    8  C   UNL     1      41.550  -9.415   7.060  1.00  0.00     0.226 C 
HETATM    9  O   UNL     1      41.947  -8.841   6.049  1.00  0.00    -0.273 OA
HETATM   10  H   UNL     1      40.856 -11.076   8.042  1.00  0.00     0.169 HD
BRANCH   8  11
HETATM   11  C   UNL     1      41.689  -8.740   8.414  1.00  0.00     0.144 C 
BRANCH  11  12
HETATM   12  C   UNL     1      42.975  -9.082   9.123  1.00  0.00    -0.016 A 
HETATM   13  C   UNL     1      44.198  -8.686   8.551  1.00  0.00     0.010 A 
HETATM   14  C   UNL     1      45.415  -9.045   9.137  1.00  0.00     0.001 A 
HETATM   15  C   UNL     1      45.430  -9.810  10.299  1.00  0.00     0.003 A 
HETATM   16  C   UNL     1      44.228 -10.210  10.879  1.00  0.00     0.037 A 
HETATM   17  C   UNL     1      43.015  -9.841  10.302  1.00  0.00     0.072 A 
BRANCH  17  18
HETATM   18  O   UNL     1      41.892 -10.285  10.941  1.00  0.00    -0.360 OA
HETATM   19  H   UNL     1      41.112  -9.769  10.645  1.00  0.00     0.217 HD
ENDBRANCH  17  18
ENDBRANCH  11  12
ENDBRANCH   8  11
ENDBRANCH   1   7
BRANCH   3  20
HETATM   20  C   UNL     1      41.378 -14.683   4.289  1.00  0.00    -0.060 C 
HETATM   21  C   UNL     1      41.939 -15.709   4.015  1.00  0.00    -0.041 C 
BRANCH  21  22
HETATM   22  C   UNL     1      42.632 -16.912   3.683  1.00  0.00     0.110 A 
HETATM   23  N   UNL     1      43.489 -17.351   4.629  1.00  0.00    -0.252 NA
HETATM   24  C   UNL     1      44.171 -18.483   4.351  1.00  0.00     0.118 A 
HETATM   25  C   UNL     1      44.035 -19.193   3.168  1.00  0.00     0.019 A 
HETATM   26  C   UNL     1      43.145 -18.716   2.211  1.00  0.00     0.004 A 
HETATM   27  C   UNL     1      42.426 -17.551   2.470  1.00  0.00     0.041 A 
ENDBRANCH  21  22
ENDBRANCH   3  20
TORSDOF 6
ENDMDL
MODEL 8
REMARK VINA RESULT:      -7.4      4.328      7.282
REMARK  6 active torsions:
REMARK  status: ('A' for Active; 'I' for Inactive)
REMARK    1  A    between atoms: C_3  and  C_4 
REMARK    2  A    between atoms: C_4  and  C_5 
REMARK       I    between atoms: C_5  and  N_6 
REMARK    3  A    between atoms: N_6  and  C_7 
REMARK    4  A    between atoms: C_9  and  C_10 
REMARK    5  A    between atoms: C_11  and  C_12 
REMARK    6  A    between atoms: C_22  and  O_23 
ROOT
HETATM    1  C   UNL     1      41.563 -12.466   3.547  1.00  0.00     0.036 A 
HETATM    2  C   UNL     1      41.888 -13.814   3.379  1.00  0.00     0.050 A 
HETATM    3  C   UNL     1      42.677 -14.478   4.327  1.00  0.00     0.020 A 
HETATM    4  C   UNL     1      43.153 -13.794   5.446  1.00  0.00     0.021 A 
HETATM    5  C   UNL     1      42.836 -12.447   5.621  1.00  0.00     0.004 A 
HETATM    6  C   UNL     1      42.041 -11.790   4.678  1.00  0.00     0.029 A 
ENDROOT
BRANCH   1   7
HETATM    7  N   UNL     1      40.738 -11.737   2.662  1.00  0.00    -0.327 N 
HETATM    8  C   UNL     1      41.143 -10.877   1.658  1.00  0.00     0.226 C 
HETATM    9  O   UNL     1      42.289 -10.485   1.447  1.00  0.00    -0.273 OA
HETATM   10  H   UNL     1      39.742 -11.830   2.812  1.00  0.00     0.169 HD
BRANCH   8  11
HETATM   11  C   UNL     1      40.007 -10.394   0.774  1.00  0.00     0.144 C 
BRANCH  11  12
HETATM   12  C   UNL     1      39.829 -11.219  -0.476  1.00  0.00    -0.016 A 
HETATM   13  C   UNL     1      40.223 -10.680  -1.714  1.00  0.00     0.010 A 
HETATM   14  C   UNL     1      40.010 -11.381  -2.904  1.00  0.00     0.001 A 
HETATM   15  C   UNL     1      39.394 -12.628  -2.876  1.00  0.00     0.003 A 
HETATM   16  C   UNL     1      38.998 -13.178  -1.659  1.00  0.00     0.037 A 
HETATM   17  C   UNL     1      39.223 -12.484  -0.472  1.00  0.00     0.072 A 
BRANCH  17  18
HETATM   18  O   UNL     1      38.796 -13.102   0.669  1.00  0.00    -0.360 OA
HETATM   19  H   UNL     1      39.243 -13.969   0.768  1.00  0.00     0.217 HD
ENDBRANCH  17  18
ENDBRANCH  11  12
ENDBRANCH   8  11
ENDBRANCH   1   7
BRANCH   3  20
HETATM   20  C   UNL     1      42.972 -15.868   4.157  1.00  0.00    -0.060 C 
HETATM   21  C   UNL     1      43.214 -17.031   3.982  1.00  0.00    -0.041 C 
BRANCH  21  22
HETATM   22  C   UNL     1      43.494 -18.411   3.745  1.00  0.00     0.110 A 
HETATM   23  N   UNL     1      43.924 -19.096   4.826  1.00  0.00    -0.252 NA
HETATM   24  C   UNL     1      44.208 -20.403   4.641  1.00  0.00     0.118 A 
HETATM   25  C   UNL     1      44.083 -21.054   3.425  1.00  0.00     0.019 A 
HETATM   26  C   UNL     1      43.638 -20.323   2.327  1.00  0.00     0.004 A 
HETATM   27  C   UNL     1      43.335 -18.972   2.487  1.00  0.00     0.041 A 
ENDBRANCH  21  22
ENDBRANCH   3  20
TORSDOF 6
ENDMDL
MODEL 9
REMARK VINA RESULT:      -7.4      4.959     10.009
REMARK  6 active torsions:
REMARK  status: ('A' for Active; 'I' for Inactive)
REMARK    1  A    between atoms: C_3  and  C_4 
REMARK    2  A    between atoms: C_4  and  C_5 
REMARK       I    between atoms: C_5  and  N_6 
REMARK    3  A    between atoms: N_6  and  C_7 
REMARK    4  A    between atoms: C_9  and  C_10 
REMARK    5  A    between atoms: C_11  and  C_12 
REMARK    6  A    between atoms: C_22  and  O_23 
ROOT
HETATM    1  C   UNL     1      42.785 -14.199   3.179  1.00  0.00     0.036 A 
HETATM    2  C   UNL     1      42.543 -13.210   2.222  1.00  0.00     0.050 A 
HETATM    3  C   UNL     1      42.054 -11.955   2.606  1.00  0.00     0.020 A 
HETATM    4  C   UNL     1      41.796 -11.684   3.950  1.00  0.00     0.021 A 
HETATM    5  C   UNL     1      42.032 -12.665   4.912  1.00  0.00     0.004 A 
HETATM    6  C   UNL     1      42.528 -13.913   4.527  1.00  0.00     0.029 A 
ENDROOT
BRANCH   1   7
HETATM    7  N   UNL     1      43.316 -15.472   2.880  1.00  0.00    -0.327 N 
HETATM    8  C   UNL     1      42.613 -16.621   2.568  1.00  0.00     0.226 C 
HETATM    9  O   UNL     1      41.394 -16.774   2.630  1.00  0.00    -0.273 OA
HETATM   10  H   UNL     1      44.323 -15.555   2.943  1.00  0.00     0.169 HD
BRANCH   8  11
HETATM   11  C   UNL     1      43.495 -17.776   2.125  1.00  0.00     0.144 C 
BRANCH  11  12
HETATM   12  C   UNL     1      43.630 -18.859   3.166  1.00  0.00    -0.016 A 
HETATM   13  C   UNL     1      43.786 -18.495   4.516  1.00  0.00     0.010 A 
HETATM   14  C   UNL     1      43.987 -19.463   5.503  1.00  0.00     0.001 A 
HETATM   15  C   UNL     1      44.042 -20.810   5.156  1.00  0.00     0.003 A 
HETATM   16  C   UNL     1      43.889 -21.188   3.824  1.00  0.00     0.037 A 
HETATM   17  C   UNL     1      43.675 -20.222   2.842  1.00  0.00     0.072 A 
BRANCH  17  18
HETATM   18  O   UNL     1      43.542 -20.691   1.566  1.00  0.00    -0.360 OA
HETATM   19  H   UNL     1      43.668 -19.959   0.926  1.00  0.00     0.217 HD
ENDBRANCH  17  18
ENDBRANCH  11  12
ENDBRANCH   8  11
ENDBRANCH   1   7
BRANCH   3  20
HETATM   20  C   UNL     1      41.844 -10.942   1.617  1.00  0.00    -0.060 C 
HETATM   21  C   UNL     1      41.688 -10.072   0.804  1.00  0.00    -0.041 C 
BRANCH  21  22
HETATM   22  C   UNL     1      41.521  -9.019  -0.145  1.00  0.00     0.110 A 
HETATM   23  N   UNL     1      42.595  -8.787  -0.929  1.00  0.00    -0.252 NA
HETATM   24  C   UNL     1      42.481  -7.793  -1.835  1.00  0.00     0.118 A 
HETATM   25  C   UNL     1      41.341  -7.020  -1.991  1.00  0.00     0.019 A 
HETATM   26  C   UNL     1      40.249  -7.281  -1.169  1.00  0.00     0.004 A 
HETATM   27  C   UNL     1      40.337  -8.302  -0.225  1.00  0.00     0.041 A 
ENDBRANCH  21  22
ENDBRANCH   3  20
TORSDOF 6
ENDMDL
MODEL 10
REMARK VINA RESULT:      -7.3      5.135      9.936
REMARK  6 active torsions:
REMARK  status: ('A' for Active; 'I' for Inactive)
REMARK    1  A    between atoms: C_3  and  C_4 
REMARK    2  A    between atoms: C_4  and  C_5 
REMARK       I    between atoms: C_5  and  N_6 
REMARK    3  A    between atoms: N_6  and  C_7 
REMARK    4  A    between atoms: C_9  and  C_10 
REMARK    5  A    between atoms: C_11  and  C_12 
REMARK    6  A    between atoms: C_22  and  O_23 
ROOT
HETATM    1  C   UNL     1      41.017 -15.333   3.569  1.00  0.00     0.036 A 
HETATM    2  C   UNL     1      40.274 -14.346   2.918  1.00  0.00     0.050 A 
HETATM    3  C   UNL     1      39.719 -13.282   3.640  1.00  0.00     0.020 A 
HETATM    4  C   UNL     1      39.898 -13.204   5.022  1.00  0.00     0.021 A 
HETATM    5  C   UNL     1      40.635 -14.186   5.681  1.00  0.00     0.004 A 
HETATM    6  C   UNL     1      41.196 -15.241   4.957  1.00  0.00     0.029 A 
ENDROOT
BRANCH   1   7
HETATM    7  N   UNL     1      41.644 -16.412   2.909  1.00  0.00    -0.327 N 
HETATM    8  C   UNL     1      42.902 -16.425   2.334  1.00  0.00     0.226 C 
HETATM    9  O   UNL     1      43.644 -15.458   2.174  1.00  0.00    -0.273 OA
HETATM   10  H   UNL     1      41.090 -17.253   2.815  1.00  0.00     0.169 HD
BRANCH   8  11
HETATM   11  C   UNL     1      43.344 -17.800   1.864  1.00  0.00     0.144 C 
BRANCH  11  12
HETATM   12  C   UNL     1      43.553 -18.779   2.992  1.00  0.00    -0.016 A 
HETATM   13  C   UNL     1      43.751 -18.289   4.295  1.00  0.00     0.010 A 
HETATM   14  C   UNL     1      44.021 -19.158   5.356  1.00  0.00     0.001 A 
HETATM   15  C   UNL     1      44.105 -20.528   5.130  1.00  0.00     0.003 A 
HETATM   16  C   UNL     1      43.912 -21.030   3.845  1.00  0.00     0.037 A 
HETATM   17  C   UNL     1      43.629 -20.165   2.790  1.00  0.00     0.072 A 
BRANCH  17  18
HETATM   18  O   UNL     1      43.461 -20.751   1.568  1.00  0.00    -0.360 OA
HETATM   19  H   UNL     1      42.533 -20.643   1.269  1.00  0.00     0.217 HD
ENDBRANCH  17  18
ENDBRANCH  11  12
ENDBRANCH   8  11
ENDBRANCH   1   7
BRANCH   3  20
HETATM   20  C   UNL     1      38.989 -12.260   2.953  1.00  0.00    -0.060 C 
HETATM   21  C   UNL     1      38.406 -11.391   2.365  1.00  0.00    -0.041 C 
BRANCH  21  22
HETATM   22  C   UNL     1      37.739 -10.345   1.658  1.00  0.00     0.110 A 
HETATM   23  N   UNL     1      38.232  -9.108   1.879  1.00  0.00    -0.252 NA
HETATM   24  C   UNL     1      37.623  -8.089   1.236  1.00  0.00     0.118 A 
HETATM   25  C   UNL     1      36.543  -8.252   0.382  1.00  0.00     0.019 A 
HETATM   26  C   UNL     1      36.055  -9.539   0.175  1.00  0.00     0.004 A 
HETATM   27  C   UNL     1      36.664 -10.611   0.824  1.00  0.00     0.041 A 
ENDBRANCH  21  22
ENDBRANCH   3  20
TORSDOF 6
ENDMDL
