MODEL 1
REMARK VINA RESULT:     -11.0      0.000      0.000
REMARK  8 active torsions:
REMARK  status: ('A' for Active; 'I' for Inactive)
REMARK    1  A    between atoms: C_6  and  N_7 
REMARK       I    between atoms: N_7  and  C_8 
REMARK    2  A    between atoms: C_8  and  C_9 
REMARK    3  A    between atoms: C_9  and  N_10 
REMARK    4  A    between atoms: N_14  and  C_15 
REMARK    5  A    between atoms: C_17  and  N_18 
REMARK    6  A    between atoms: N_18  and  C_19 
REMARK    7  A    between atoms: C_26  and  N_27 
REMARK    8  A    between atoms: N_27  and  C_28 
ROOT
HETATM    1  C   UNL     1      41.081 -14.515   4.449  1.00  0.00     0.756 A 
HETATM    2  N   UNL     1      42.046 -15.394   4.242  1.00  0.00     0.131 NA
HETATM    3  C   UNL     1      42.152 -15.859   2.999  1.00  0.00     0.758 A 
HETATM    4  N   UNL     1      41.372 -15.476   1.995  1.00  0.00     0.131 NA
HETATM    5  C   UNL     1      40.422 -14.601   2.292  1.00  0.00     0.758 A 
HETATM    6  N   UNL     1      40.224 -14.137   3.518  1.00  0.00     0.131 NA
ENDROOT
BRANCH   1   7
HETATM    7  N   UNL     1      40.945 -13.919   5.699  1.00  0.00    -0.210 N 
HETATM    8  C   UNL     1      40.005 -12.795   5.789  1.00  0.00     0.169 C 
HETATM    9  C   UNL     1      40.695 -11.433   5.583  1.00  0.00     0.256 C 
HETATM   10  N   UNL     1      41.900 -11.340   6.531  1.00  0.00    -0.060 N 
HETATM   11  H   UNL     1      41.546 -11.573   7.466  1.00  0.00     0.280 HD
HETATM   12  C   UNL     1      42.899 -12.444   6.180  1.00  0.00     0.256 C 
HETATM   13  C   UNL     1      42.220 -13.816   6.423  1.00  0.00     0.169 C 
BRANCH  10  14
HETATM   14  C   UNL     1      42.510  -9.951   6.648  1.00  0.00     0.337 C 
BRANCH  14  15
HETATM   15  C   UNL     1      42.252  -9.183   7.950  1.00  0.00     0.248 C 
HETATM   16  N   UNL     1      42.442  -9.978   9.072  1.00  0.00    -0.325 N 
HETATM   17  H   UNL     1      42.490 -10.976   8.915  1.00  0.00     0.169 HD
HETATM   18  O   UNL     1      41.872  -8.019   7.921  1.00  0.00    -0.271 OA
BRANCH  16  19
HETATM   19  C   UNL     1      42.194  -9.622  10.424  1.00  0.00     0.046 A 
HETATM   20  C   UNL     1      43.328  -9.285  11.210  1.00  0.00    -0.034 A 
HETATM   21  C   UNL     1      43.170  -8.982  12.574  1.00  0.00     0.015 A 
HETATM   22  C   UNL     1      44.732  -9.267  10.660  1.00  0.00     0.050 C 
HETATM   23  C   UNL     1      41.911  -8.980  13.170  1.00  0.00    -0.061 A 
HETATM   24  C   UNL     1      41.757  -8.709  14.637  1.00  0.00     0.048 C 
HETATM   25  C   UNL     1      40.797  -9.269  12.381  1.00  0.00     0.015 A 
HETATM   26  C   UNL     1      40.912  -9.549  11.004  1.00  0.00    -0.034 A 
HETATM   27  C   UNL     1      39.616  -9.684  10.251  1.00  0.00     0.050 C 
ENDBRANCH  16  19
ENDBRANCH  14  15
ENDBRANCH  10  14
ENDBRANCH   1   7
BRANCH   3  28
HETATM   28  N   UNL     1      43.164 -16.754   2.662  1.00  0.00    -0.187 N 
HETATM   29  H   UNL     1      43.636 -16.449   1.821  1.00  0.00     0.184 HD
BRANCH  28  30
HETATM   30  C   UNL     1      43.411 -18.080   3.039  1.00  0.00     0.049 A 
HETATM   31  C   UNL     1      43.947 -18.439   4.280  1.00  0.00     0.030 A 
HETATM   32  C   UNL     1      44.202 -19.778   4.597  1.00  0.00     0.002 A 
HETATM   33  C   UNL     1      43.943 -20.777   3.662  1.00  0.00     0.000 A 
HETATM   34  C   UNL     1      43.430 -20.437   2.413  1.00  0.00     0.002 A 
HETATM   35  C   UNL     1      43.170 -19.100   2.107  1.00  0.00     0.030 A 
ENDBRANCH  28  30
ENDBRANCH   3  28
BRANCH   5  36
HETATM   36  N   UNL     1      39.600 -14.206   1.238  1.00  0.00    -0.187 N 
HETATM   37  H   UNL     1      38.654 -14.529   1.395  1.00  0.00     0.184 HD
BRANCH  36  38
HETATM   38  C   UNL     1      39.887 -13.807  -0.076  1.00  0.00     0.049 A 
HETATM   39  C   UNL     1      39.538 -14.551  -1.210  1.00  0.00     0.030 A 
HETATM   40  C   UNL     1      39.883 -14.121  -2.496  1.00  0.00     0.002 A 
HETATM   41  C   UNL     1      40.606 -12.945  -2.669  1.00  0.00     0.000 A 
HETATM   42  C   UNL     1      40.986 -12.203  -1.555  1.00  0.00     0.002 A 
HETATM   43  C   UNL     1      40.634 -12.634  -0.272  1.00  0.00     0.030 A 
ENDBRANCH  36  38
ENDBRANCH   5  36
TORSDOF 8
ENDMDL
MODEL 2
REMARK VINA RESULT:     -10.9      1.020      5.205
REMARK  8 active torsions:
REMARK  status: ('A' for Active; 'I' for Inactive)
REMARK    1  A    between atoms: C_6  and  N_7 
REMARK       I    between atoms: N_7  and  C_8 
REMARK    2  A    between atoms: C_8  and  C_9 
REMARK    3  A    between atoms: C_9  and  N_10 
REMARK    4  A    between atoms: N_14  and  C_15 
REMARK    5  A    between atoms: C_17  and  N_18 
REMARK    6  A    between atoms: N_18  and  C_19 
REMARK    7  A    between atoms: C_26  and  N_27 
REMARK    8  A    between atoms: N_27  and  C_28 
ROOT
HETATM    1  C   UNL     1      41.332 -14.497   4.413  1.00  0.00     0.756 A 
HETATM    2  N   UNL     1      40.471 -14.094   3.495  1.00  0.00     0.131 NA
HETATM    3  C   UNL     1      40.607 -14.639   2.289  1.00  0.00     0.758 A 
HETATM    4  N   UNL     1      41.525 -15.551   1.988  1.00  0.00     0.131 NA
HETATM    5  C   UNL     1      42.357 -15.890   2.962  1.00  0.00     0.758 A 
HETATM    6  N   UNL     1      42.313 -15.348   4.170  1.00  0.00     0.131 NA
ENDROOT
BRANCH   1   7
HETATM    7  N   UNL     1      41.215 -14.037   5.721  1.00  0.00    -0.210 N 
HETATM    8  C   UNL     1      40.184 -13.022   5.968  1.00  0.00     0.169 C 
HETATM    9  C   UNL     1      40.733 -11.586   5.863  1.00  0.00     0.256 C 
HETATM   10  N   UNL     1      41.978 -11.467   6.754  1.00  0.00    -0.060 N 
HETATM   11  H   UNL     1      41.703 -11.819   7.678  1.00  0.00     0.280 HD
HETATM   12  C   UNL     1      43.051 -12.431   6.246  1.00  0.00     0.256 C 
HETATM   13  C   UNL     1      42.517 -13.879   6.387  1.00  0.00     0.169 C 
BRANCH  10  14
HETATM   14  C   UNL     1      42.464 -10.042   6.976  1.00  0.00     0.337 C 
BRANCH  14  15
HETATM   15  C   UNL     1      42.012  -9.344   8.265  1.00  0.00     0.248 C 
HETATM   16  N   UNL     1      43.085  -8.984   9.068  1.00  0.00    -0.325 N 
HETATM   17  H   UNL     1      43.976  -9.409   8.848  1.00  0.00     0.169 HD
HETATM   18  O   UNL     1      40.820  -9.204   8.511  1.00  0.00    -0.271 OA
BRANCH  16  19
HETATM   19  C   UNL     1      43.026  -8.415  10.369  1.00  0.00     0.046 A 
HETATM   20  C   UNL     1      43.353  -9.273  11.453  1.00  0.00    -0.034 A 
HETATM   21  C   UNL     1      43.257  -8.800  12.773  1.00  0.00     0.015 A 
HETATM   22  C   UNL     1      43.773 -10.709  11.265  1.00  0.00     0.050 C 
HETATM   23  C   UNL     1      42.870  -7.490  13.043  1.00  0.00    -0.061 A 
HETATM   24  C   UNL     1      42.717  -7.010  14.456  1.00  0.00     0.048 C 
HETATM   25  C   UNL     1      42.593  -6.640  11.971  1.00  0.00     0.015 A 
HETATM   26  C   UNL     1      42.706  -7.069  10.632  1.00  0.00    -0.034 A 
HETATM   27  C   UNL     1      42.532  -6.002   9.585  1.00  0.00     0.050 C 
ENDBRANCH  16  19
ENDBRANCH  14  15
ENDBRANCH  10  14
ENDBRANCH   1   7
BRANCH   3  28
HETATM   28  N   UNL     1      39.723 -14.320   1.262  1.00  0.00    -0.187 N 
HETATM   29  H   UNL     1      38.807 -14.702   1.456  1.00  0.00     0.184 HD
BRANCH  28  30
HETATM   30  C   UNL     1      39.928 -13.897  -0.058  1.00  0.00     0.049 A 
HETATM   31  C   UNL     1      39.480 -14.612  -1.173  1.00  0.00     0.030 A 
HETATM   32  C   UNL     1      39.736 -14.160  -2.472  1.00  0.00     0.002 A 
HETATM   33  C   UNL     1      40.468 -12.993  -2.672  1.00  0.00     0.000 A 
HETATM   34  C   UNL     1      40.942 -12.279  -1.575  1.00  0.00     0.002 A 
HETATM   35  C   UNL     1      40.675 -12.731  -0.281  1.00  0.00     0.030 A 
ENDBRANCH  28  30
ENDBRANCH   3  28
BRANCH   5  36
HETATM   36  N   UNL     1      43.323 -16.841   2.641  1.00  0.00    -0.187 N 
HETATM   37  H   UNL     1      43.783 -16.592   1.776  1.00  0.00     0.184 HD
BRANCH  36  38
HETATM   38  C   UNL     1      43.505 -18.170   3.055  1.00  0.00     0.049 A 
HETATM   39  C   UNL     1      44.017 -18.533   4.306  1.00  0.00     0.030 A 
HETATM   40  C   UNL     1      44.211 -19.875   4.651  1.00  0.00     0.002 A 
HETATM   41  C   UNL     1      43.916 -20.881   3.736  1.00  0.00     0.000 A 
HETATM   42  C   UNL     1      43.430 -20.542   2.477  1.00  0.00     0.002 A 
HETATM   43  C   UNL     1      43.233 -19.200   2.140  1.00  0.00     0.030 A 
ENDBRANCH  36  38
ENDBRANCH   5  36
TORSDOF 8
ENDMDL
MODEL 3
REMARK VINA RESULT:     -10.7      0.780      1.859
REMARK  8 active torsions:
REMARK  status: ('A' for Active; 'I' for Inactive)
REMARK    1  A    between atoms: C_6  and  N_7 
REMARK       I    between atoms: N_7  and  C_8 
REMARK    2  A    between atoms: C_8  and  C_9 
REMARK    3  A    between atoms: C_9  and  N_10 
REMARK    4  A    between atoms: N_14  and  C_15 
REMARK    5  A    between atoms: C_17  and  N_18 
REMARK    6  A    between atoms: N_18  and  C_19 
REMARK    7  A    between atoms: C_26  and  N_27 
REMARK    8  A    between atoms: N_27  and  C_28 
ROOT
HETATM    1  C   UNL     1      41.240 -14.624   4.555  1.00  0.00     0.756 A 
HETATM    2  N   UNL     1      42.222 -15.483   4.349  1.00  0.00     0.131 NA
HETATM    3  C   UNL     1      42.340 -15.946   3.106  1.00  0.00     0.758 A 
HETATM    4  N   UNL     1      41.553 -15.578   2.102  1.00  0.00     0.131 NA
HETATM    5  C   UNL     1      40.585 -14.723   2.398  1.00  0.00     0.758 A 
HETATM    6  N   UNL     1      40.376 -14.264   3.623  1.00  0.00     0.131 NA
ENDROOT
BRANCH   1   7
HETATM    7  N   UNL     1      41.090 -14.032   5.805  1.00  0.00    -0.210 N 
HETATM    8  C   UNL     1      39.834 -13.309   6.041  1.00  0.00     0.169 C 
HETATM    9  C   UNL     1      39.947 -11.808   5.711  1.00  0.00     0.256 C 
HETATM   10  N   UNL     1      41.167 -11.231   6.445  1.00  0.00    -0.060 N 
HETATM   11  H   UNL     1      41.067 -11.510   7.428  1.00  0.00     0.280 HD
HETATM   12  C   UNL     1      42.430 -11.932   5.942  1.00  0.00     0.256 C 
HETATM   13  C   UNL     1      42.337 -13.435   6.306  1.00  0.00     0.169 C 
BRANCH  10  14
HETATM   14  C   UNL     1      41.245  -9.712   6.446  1.00  0.00     0.337 C 
BRANCH  14  15
HETATM   15  C   UNL     1      42.025  -9.054   7.591  1.00  0.00     0.248 C 
HETATM   16  N   UNL     1      41.638  -9.539   8.833  1.00  0.00    -0.325 N 
HETATM   17  H   UNL     1      40.772 -10.061   8.863  1.00  0.00     0.169 HD
HETATM   18  O   UNL     1      42.842  -8.171   7.361  1.00  0.00    -0.271 OA
BRANCH  16  19
HETATM   19  C   UNL     1      42.077  -9.082  10.104  1.00  0.00     0.046 A 
HETATM   20  C   UNL     1      41.142  -8.338  10.870  1.00  0.00    -0.034 A 
HETATM   21  C   UNL     1      41.523  -7.799  12.111  1.00  0.00     0.015 A 
HETATM   22  C   UNL     1      39.736  -8.056  10.401  1.00  0.00     0.050 C 
HETATM   23  C   UNL     1      42.803  -8.001  12.622  1.00  0.00    -0.061 A 
HETATM   24  C   UNL     1      43.220  -7.378  13.920  1.00  0.00     0.048 C 
HETATM   25  C   UNL     1      43.704  -8.771  11.883  1.00  0.00     0.015 A 
HETATM   26  C   UNL     1      43.349  -9.352  10.648  1.00  0.00    -0.034 A 
HETATM   27  C   UNL     1      44.365 -10.284  10.046  1.00  0.00     0.050 C 
ENDBRANCH  16  19
ENDBRANCH  14  15
ENDBRANCH  10  14
ENDBRANCH   1   7
BRANCH   3  28
HETATM   28  N   UNL     1      43.370 -16.819   2.770  1.00  0.00    -0.187 N 
HETATM   29  H   UNL     1      43.928 -16.431   2.021  1.00  0.00     0.184 HD
BRANCH  28  30
HETATM   30  C   UNL     1      43.562 -18.185   3.014  1.00  0.00     0.049 A 
HETATM   31  C   UNL     1      43.244 -19.184   2.088  1.00  0.00     0.030 A 
HETATM   32  C   UNL     1      43.428 -20.537   2.392  1.00  0.00     0.002 A 
HETATM   33  C   UNL     1      43.914 -20.910   3.643  1.00  0.00     0.000 A 
HETATM   34  C   UNL     1      44.216 -19.931   4.587  1.00  0.00     0.002 A 
HETATM   35  C   UNL     1      44.038 -18.582   4.272  1.00  0.00     0.030 A 
ENDBRANCH  28  30
ENDBRANCH   3  28
BRANCH   5  36
HETATM   36  N   UNL     1      39.756 -14.344   1.343  1.00  0.00    -0.187 N 
HETATM   37  H   UNL     1      38.835 -14.744   1.464  1.00  0.00     0.184 HD
BRANCH  36  38
HETATM   38  C   UNL     1      40.038 -13.867   0.054  1.00  0.00     0.049 A 
HETATM   39  C   UNL     1      40.730 -12.677  -0.202  1.00  0.00     0.030 A 
HETATM   40  C   UNL     1      40.951 -12.231  -1.510  1.00  0.00     0.002 A 
HETATM   41  C   UNL     1      40.461 -12.961  -2.589  1.00  0.00     0.000 A 
HETATM   42  C   UNL     1      39.748 -14.133  -2.357  1.00  0.00     0.002 A 
HETATM   43  C   UNL     1      39.535 -14.577  -1.049  1.00  0.00     0.030 A 
ENDBRANCH  36  38
ENDBRANCH   5  36
TORSDOF 8
ENDMDL
MODEL 4
REMARK VINA RESULT:     -10.2      1.682      2.556
REMARK  8 active torsions:
REMARK  status: ('A' for Active; 'I' for Inactive)
REMARK    1  A    between atoms: C_6  and  N_7 
REMARK       I    between atoms: N_7  and  C_8 
REMARK    2  A    between atoms: C_8  and  C_9 
REMARK    3  A    between atoms: C_9  and  N_10 
REMARK    4  A    between atoms: N_14  and  C_15 
REMARK    5  A    between atoms: C_17  and  N_18 
REMARK    6  A    between atoms: N_18  and  C_19 
REMARK    7  A    between atoms: C_26  and  N_27 
REMARK    8  A    between atoms: N_27  and  C_28 
ROOT
HETATM    1  C   UNL     1      42.025 -12.460   2.560  1.00  0.00     0.756 A 
HETATM    2  N   UNL     1      41.926 -13.630   3.165  1.00  0.00     0.131 NA
HETATM    3  C   UNL     1      41.500 -14.641   2.411  1.00  0.00     0.758 A 
HETATM    4  N   UNL     1      41.202 -14.529   1.121  1.00  0.00     0.131 NA
HETATM    5  C   UNL     1      41.317 -13.317   0.596  1.00  0.00     0.758 A 
HETATM    6  N   UNL     1      41.683 -12.256   1.300  1.00  0.00     0.131 NA
ENDROOT
BRANCH   1   7
HETATM    7  N   UNL     1      42.534 -11.365   3.251  1.00  0.00    -0.210 N 
HETATM    8  C   UNL     1      43.305 -11.658   4.467  1.00  0.00     0.169 C 
HETATM    9  C   UNL     1      42.432 -11.634   5.736  1.00  0.00     0.256 C 
HETATM   10  N   UNL     1      41.651 -10.313   5.775  1.00  0.00    -0.060 N 
HETATM   11  H   UNL     1      42.344  -9.567   5.644  1.00  0.00     0.280 HD
HETATM   12  C   UNL     1      40.729 -10.242   4.557  1.00  0.00     0.256 C 
HETATM   13  C   UNL     1      41.605 -10.226   3.279  1.00  0.00     0.169 C 
BRANCH  10  14
HETATM   14  C   UNL     1      40.967 -10.021   7.102  1.00  0.00     0.337 C 
BRANCH  14  15
HETATM   15  C   UNL     1      41.781  -9.256   8.153  1.00  0.00     0.248 C 
HETATM   16  N   UNL     1      41.453  -9.638   9.447  1.00  0.00    -0.325 N 
HETATM   17  H   UNL     1      40.599 -10.168   9.559  1.00  0.00     0.169 HD
HETATM   18  O   UNL     1      42.571  -8.383   7.814  1.00  0.00    -0.271 OA
BRANCH  16  19
HETATM   19  C   UNL     1      41.936  -9.067  10.655  1.00  0.00     0.046 A 
HETATM   20  C   UNL     1      40.997  -8.343  11.436  1.00  0.00    -0.034 A 
HETATM   21  C   UNL     1      41.414  -7.696  12.612  1.00  0.00     0.015 A 
HETATM   22  C   UNL     1      39.547  -8.195  11.047  1.00  0.00     0.050 C 
HETATM   23  C   UNL     1      42.735  -7.772  13.046  1.00  0.00    -0.061 A 
HETATM   24  C   UNL     1      43.185  -7.035  14.273  1.00  0.00     0.048 C 
HETATM   25  C   UNL     1      43.644  -8.523  12.297  1.00  0.00     0.015 A 
HETATM   26  C   UNL     1      43.256  -9.209  11.127  1.00  0.00    -0.034 A 
HETATM   27  C   UNL     1      44.301 -10.102  10.515  1.00  0.00     0.050 C 
ENDBRANCH  16  19
ENDBRANCH  14  15
ENDBRANCH  10  14
ENDBRANCH   1   7
BRANCH   3  28
HETATM   28  N   UNL     1      41.404 -15.927   2.936  1.00  0.00    -0.187 N 
HETATM   29  H   UNL     1      40.474 -16.088   3.301  1.00  0.00     0.184 HD
BRANCH  28  30
HETATM   30  C   UNL     1      42.374 -16.851   3.341  1.00  0.00     0.049 A 
HETATM   31  C   UNL     1      43.006 -16.807   4.589  1.00  0.00     0.030 A 
HETATM   32  C   UNL     1      43.991 -17.739   4.934  1.00  0.00     0.002 A 
HETATM   33  C   UNL     1      44.375 -18.717   4.020  1.00  0.00     0.000 A 
HETATM   34  C   UNL     1      43.775 -18.764   2.765  1.00  0.00     0.002 A 
HETATM   35  C   UNL     1      42.785 -17.836   2.431  1.00  0.00     0.030 A 
ENDBRANCH  28  30
ENDBRANCH   3  28
BRANCH   5  36
HETATM   36  N   UNL     1      40.997 -13.201  -0.755  1.00  0.00    -0.187 N 
HETATM   37  H   UNL     1      41.683 -12.628  -1.228  1.00  0.00     0.184 HD
BRANCH  36  38
HETATM   38  C   UNL     1      39.795 -13.395  -1.454  1.00  0.00     0.049 A 
HETATM   39  C   UNL     1      39.596 -14.414  -2.394  1.00  0.00     0.030 A 
HETATM   40  C   UNL     1      38.388 -14.538  -3.088  1.00  0.00     0.002 A 
HETATM   41  C   UNL     1      37.361 -13.625  -2.869  1.00  0.00     0.000 A 
HETATM   42  C   UNL     1      37.545 -12.590  -1.959  1.00  0.00     0.002 A 
HETATM   43  C   UNL     1      38.752 -12.474  -1.264  1.00  0.00     0.030 A 
ENDBRANCH  36  38
ENDBRANCH   5  36
TORSDOF 8
ENDMDL
MODEL 5
REMARK VINA RESULT:     -10.2      1.492      5.387
REMARK  8 active torsions:
REMARK  status: ('A' for Active; 'I' for Inactive)
REMARK    1  A    between atoms: C_6  and  N_7 
REMARK       I    between atoms: N_7  and  C_8 
REMARK    2  A    between atoms: C_8  and  C_9 
REMARK    3  A    between atoms: C_9  and  N_10 
REMARK    4  A    between atoms: N_14  and  C_15 
REMARK    5  A    between atoms: C_17  and  N_18 
REMARK    6  A    between atoms: N_18  and  C_19 
REMARK    7  A    between atoms: C_26  and  N_27 
REMARK    8  A    between atoms: N_27  and  C_28 
ROOT
HETATM    1  C   UNL     1      41.819 -13.903   4.393  1.00  0.00     0.756 A 
HETATM    2  N   UNL     1      40.960 -13.447   3.498  1.00  0.00     0.131 NA
HETATM    3  C   UNL     1      40.958 -14.072   2.323  1.00  0.00     0.758 A 
HETATM    4  N   UNL     1      41.738 -15.107   2.032  1.00  0.00     0.131 NA
HETATM    5  C   UNL     1      42.579 -15.492   2.982  1.00  0.00     0.758 A 
HETATM    6  N   UNL     1      42.674 -14.881   4.154  1.00  0.00     0.131 NA
ENDROOT
BRANCH   1   7
HETATM    7  N   UNL     1      41.838 -13.359   5.673  1.00  0.00    -0.210 N 
HETATM    8  C   UNL     1      41.715 -11.899   5.766  1.00  0.00     0.169 C 
HETATM    9  C   UNL     1      43.084 -11.194   5.806  1.00  0.00     0.256 C 
HETATM   10  N   UNL     1      43.940 -11.837   6.907  1.00  0.00    -0.060 N 
HETATM   11  H   UNL     1      43.363 -11.834   7.756  1.00  0.00     0.280 HD
HETATM   12  C   UNL     1      44.167 -13.311   6.567  1.00  0.00     0.256 C 
HETATM   13  C   UNL     1      42.795 -14.031   6.564  1.00  0.00     0.169 C 
BRANCH  10  14
HETATM   14  C   UNL     1      45.205 -11.068   7.257  1.00  0.00     0.337 C 
BRANCH  14  15
HETATM   15  C   UNL     1      45.122 -10.086   8.432  1.00  0.00     0.248 C 
HETATM   16  N   UNL     1      43.865 -10.081   9.021  1.00  0.00    -0.325 N 
HETATM   17  H   UNL     1      43.118 -10.516   8.495  1.00  0.00     0.169 HD
HETATM   18  O   UNL     1      46.081  -9.381   8.723  1.00  0.00    -0.271 OA
BRANCH  16  19
HETATM   19  C   UNL     1      43.411  -9.225  10.060  1.00  0.00     0.046 A 
HETATM   20  C   UNL     1      42.941  -7.944   9.669  1.00  0.00    -0.034 A 
HETATM   21  C   UNL     1      42.534  -7.018  10.645  1.00  0.00     0.015 A 
HETATM   22  C   UNL     1      42.884  -7.495   8.230  1.00  0.00     0.050 C 
HETATM   23  C   UNL     1      42.559  -7.343  12.000  1.00  0.00    -0.061 A 
HETATM   24  C   UNL     1      42.175  -6.332  13.039  1.00  0.00     0.048 C 
HETATM   25  C   UNL     1      42.981  -8.620  12.374  1.00  0.00     0.015 A 
HETATM   26  C   UNL     1      43.369  -9.585  11.422  1.00  0.00    -0.034 A 
HETATM   27  C   UNL     1      43.645 -10.962  11.960  1.00  0.00     0.050 C 
ENDBRANCH  16  19
ENDBRANCH  14  15
ENDBRANCH  10  14
ENDBRANCH   1   7
BRANCH   3  28
HETATM   28  N   UNL     1      40.059 -13.703   1.325  1.00  0.00    -0.187 N 
HETATM   29  H   UNL     1      39.115 -13.940   1.598  1.00  0.00     0.184 HD
BRANCH  28  30
HETATM   30  C   UNL     1      40.233 -13.403  -0.032  1.00  0.00     0.049 A 
HETATM   31  C   UNL     1      40.779 -12.199  -0.490  1.00  0.00     0.030 A 
HETATM   32  C   UNL     1      40.904 -11.937  -1.858  1.00  0.00     0.002 A 
HETATM   33  C   UNL     1      40.460 -12.871  -2.790  1.00  0.00     0.000 A 
HETATM   34  C   UNL     1      39.893 -14.066  -2.354  1.00  0.00     0.002 A 
HETATM   35  C   UNL     1      39.779 -14.325  -0.987  1.00  0.00     0.030 A 
ENDBRANCH  28  30
ENDBRANCH   3  28
BRANCH   5  36
HETATM   36  N   UNL     1      43.402 -16.573   2.671  1.00  0.00    -0.187 N 
HETATM   37  H   UNL     1      43.730 -16.498   1.717  1.00  0.00     0.184 HD
BRANCH  36  38
HETATM   38  C   UNL     1      43.546 -17.840   3.256  1.00  0.00     0.049 A 
HETATM   39  C   UNL     1      43.834 -18.044   4.611  1.00  0.00     0.030 A 
HETATM   40  C   UNL     1      44.003 -19.331   5.133  1.00  0.00     0.002 A 
HETATM   41  C   UNL     1      43.910 -20.440   4.299  1.00  0.00     0.000 A 
HETATM   42  C   UNL     1      43.650 -20.261   2.944  1.00  0.00     0.002 A 
HETATM   43  C   UNL     1      43.476 -18.972   2.429  1.00  0.00     0.030 A 
ENDBRANCH  36  38
ENDBRANCH   5  36
TORSDOF 8
ENDMDL
MODEL 6
REMARK VINA RESULT:     -10.1      2.603      9.291
REMARK  8 active torsions:
REMARK  status: ('A' for Active; 'I' for Inactive)
REMARK    1  A    between atoms: C_6  and  N_7 
REMARK       I    between atoms: N_7  and  C_8 
REMARK    2  A    between atoms: C_8  and  C_9 
REMARK    3  A    between atoms: C_9  and  N_10 
REMARK    4  A    between atoms: N_14  and  C_15 
REMARK    5  A    between atoms: C_17  and  N_18 
REMARK    6  A    between atoms: N_18  and  C_19 
REMARK    7  A    between atoms: C_26  and  N_27 
REMARK    8  A    between atoms: N_27  and  C_28 
ROOT
HETATM    1  C   UNL     1      42.247 -10.162   6.736  1.00  0.00     0.756 A 
HETATM    2  N   UNL     1      42.718 -11.324   6.320  1.00  0.00     0.131 NA
HETATM    3  C   UNL     1      43.627 -11.898   7.105  1.00  0.00     0.758 A 
HETATM    4  N   UNL     1      44.047 -11.380   8.254  1.00  0.00     0.131 NA
HETATM    5  C   UNL     1      43.532 -10.206   8.590  1.00  0.00     0.758 A 
HETATM    6  N   UNL     1      42.665  -9.553   7.831  1.00  0.00     0.131 NA
ENDROOT
BRANCH   1   7
HETATM    7  N   UNL     1      41.238  -9.527   6.017  1.00  0.00    -0.210 N 
HETATM    8  C   UNL     1      39.881 -10.062   6.181  1.00  0.00     0.169 C 
HETATM    9  C   UNL     1      39.528 -11.111   5.109  1.00  0.00     0.256 C 
HETATM   10  N   UNL     1      39.822 -10.520   3.722  1.00  0.00    -0.060 N 
HETATM   11  H   UNL     1      39.346  -9.611   3.693  1.00  0.00     0.280 HD
HETATM   12  C   UNL     1      41.316 -10.208   3.618  1.00  0.00     0.256 C 
HETATM   13  C   UNL     1      41.666  -9.125   4.669  1.00  0.00     0.169 C 
BRANCH  10  14
HETATM   14  C   UNL     1      39.263 -11.325   2.559  1.00  0.00     0.337 C 
BRANCH  14  15
HETATM   15  C   UNL     1      40.143 -12.450   2.001  1.00  0.00     0.248 C 
HETATM   16  N   UNL     1      40.478 -13.382   2.975  1.00  0.00    -0.325 N 
HETATM   17  H   UNL     1      40.319 -13.108   3.935  1.00  0.00     0.169 HD
HETATM   18  O   UNL     1      40.512 -12.431   0.833  1.00  0.00    -0.271 OA
BRANCH  16  19
HETATM   19  C   UNL     1      41.356 -14.489   2.831  1.00  0.00     0.046 A 
HETATM   20  C   UNL     1      40.755 -15.747   2.564  1.00  0.00    -0.034 A 
HETATM   21  C   UNL     1      41.553 -16.900   2.471  1.00  0.00     0.015 A 
HETATM   22  C   UNL     1      39.265 -15.927   2.404  1.00  0.00     0.050 C 
HETATM   23  C   UNL     1      42.937 -16.832   2.613  1.00  0.00    -0.061 A 
HETATM   24  C   UNL     1      43.776 -18.073   2.567  1.00  0.00     0.048 C 
HETATM   25  C   UNL     1      43.526 -15.585   2.832  1.00  0.00     0.015 A 
HETATM   26  C   UNL     1      42.761 -14.402   2.902  1.00  0.00    -0.034 A 
HETATM   27  C   UNL     1      43.543 -13.119   2.981  1.00  0.00     0.050 C 
ENDBRANCH  16  19
ENDBRANCH  14  15
ENDBRANCH  10  14
ENDBRANCH   1   7
BRANCH   3  28
HETATM   28  N   UNL     1      44.155 -13.146   6.783  1.00  0.00    -0.187 N 
HETATM   29  H   UNL     1      45.069 -13.043   6.363  1.00  0.00     0.184 HD
BRANCH  28  30
HETATM   30  C   UNL     1      43.561 -14.404   6.624  1.00  0.00     0.049 A 
HETATM   31  C   UNL     1      44.293 -15.586   6.465  1.00  0.00     0.030 A 
HETATM   32  C   UNL     1      43.651 -16.815   6.281  1.00  0.00     0.002 A 
HETATM   33  C   UNL     1      42.261 -16.874   6.230  1.00  0.00     0.000 A 
HETATM   34  C   UNL     1      41.514 -15.706   6.365  1.00  0.00     0.002 A 
HETATM   35  C   UNL     1      42.162 -14.483   6.557  1.00  0.00     0.030 A 
ENDBRANCH  28  30
ENDBRANCH   3  28
BRANCH   5  36
HETATM   36  N   UNL     1      43.980  -9.662   9.793  1.00  0.00    -0.187 N 
HETATM   37  H   UNL     1      44.989  -9.706   9.839  1.00  0.00     0.184 HD
BRANCH  36  38
HETATM   38  C   UNL     1      43.333  -9.431  11.016  1.00  0.00     0.049 A 
HETATM   39  C   UNL     1      42.138 -10.055  11.396  1.00  0.00     0.030 A 
HETATM   40  C   UNL     1      41.518  -9.758  12.614  1.00  0.00     0.002 A 
HETATM   41  C   UNL     1      42.073  -8.809  13.467  1.00  0.00     0.000 A 
HETATM   42  C   UNL     1      43.245  -8.157  13.099  1.00  0.00     0.002 A 
HETATM   43  C   UNL     1      43.864  -8.462  11.883  1.00  0.00     0.030 A 
ENDBRANCH  36  38
ENDBRANCH   5  36
TORSDOF 8
ENDMDL
MODEL 7
REMARK VINA RESULT:      -9.9      1.332      1.983
REMARK  8 active torsions:
REMARK  status: ('A' for Active; 'I' for Inactive)
REMARK    1  A    between atoms: C_6  and  N_7 
REMARK       I    between atoms: N_7  and  C_8 
REMARK    2  A    between atoms: C_8  and  C_9 
REMARK    3  A    between atoms: C_9  and  N_10 
REMARK    4  A    between atoms: N_14  and  C_15 
REMARK    5  A    between atoms: C_17  and  N_18 
REMARK    6  A    between atoms: N_18  and  C_19 
REMARK    7  A    between atoms: C_26  and  N_27 
REMARK    8  A    between atoms: N_27  and  C_28 
ROOT
HETATM    1  C   UNL     1      40.089 -12.812   3.230  1.00  0.00     0.756 A 
HETATM    2  N   UNL     1      40.311 -13.985   3.796  1.00  0.00     0.131 NA
HETATM    3  C   UNL     1      40.559 -14.995   2.966  1.00  0.00     0.758 A 
HETATM    4  N   UNL     1      40.611 -14.872   1.644  1.00  0.00     0.131 NA
HETATM    5  C   UNL     1      40.363 -13.664   1.158  1.00  0.00     0.758 A 
HETATM    6  N   UNL     1      40.055 -12.626   1.922  1.00  0.00     0.131 NA
ENDROOT
BRANCH   1   7
HETATM    7  N   UNL     1      39.895 -11.686   4.023  1.00  0.00    -0.210 N 
HETATM    8  C   UNL     1      40.594 -10.463   3.606  1.00  0.00     0.169 C 
HETATM    9  C   UNL     1      41.964 -10.304   4.293  1.00  0.00     0.256 C 
HETATM   10  N   UNL     1      41.777 -10.450   5.810  1.00  0.00    -0.060 N 
HETATM   11  H   UNL     1      41.022  -9.804   6.068  1.00  0.00     0.280 HD
HETATM   12  C   UNL     1      41.244 -11.851   6.115  1.00  0.00     0.256 C 
HETATM   13  C   UNL     1      39.849 -12.001   5.459  1.00  0.00     0.169 C 
BRANCH  10  14
HETATM   14  C   UNL     1      42.983 -10.038   6.640  1.00  0.00     0.337 C 
BRANCH  14  15
HETATM   15  C   UNL     1      42.712  -9.217   7.906  1.00  0.00     0.248 C 
HETATM   16  N   UNL     1      42.662 -10.012   9.043  1.00  0.00    -0.325 N 
HETATM   17  H   UNL     1      42.574 -11.008   8.894  1.00  0.00     0.169 HD
HETATM   18  O   UNL     1      42.517  -8.009   7.835  1.00  0.00    -0.271 OA
BRANCH  16  19
HETATM   19  C   UNL     1      42.332  -9.598  10.362  1.00  0.00     0.046 A 
HETATM   20  C   UNL     1      43.420  -9.309  11.228  1.00  0.00    -0.034 A 
HETATM   21  C   UNL     1      43.175  -8.954  12.566  1.00  0.00     0.015 A 
HETATM   22  C   UNL     1      44.861  -9.398  10.793  1.00  0.00     0.050 C 
HETATM   23  C   UNL     1      41.876  -8.854  13.058  1.00  0.00    -0.061 A 
HETATM   24  C   UNL     1      41.624  -8.527  14.500  1.00  0.00     0.048 C 
HETATM   25  C   UNL     1      40.810  -9.096  12.189  1.00  0.00     0.015 A 
HETATM   26  C   UNL     1      41.016  -9.426  10.834  1.00  0.00    -0.034 A 
HETATM   27  C   UNL     1      39.777  -9.502   9.983  1.00  0.00     0.050 C 
ENDBRANCH  16  19
ENDBRANCH  14  15
ENDBRANCH  10  14
ENDBRANCH   1   7
BRANCH   3  28
HETATM   28  N   UNL     1      40.853 -16.263   3.460  1.00  0.00    -0.187 N 
HETATM   29  H   UNL     1      40.106 -16.588   4.058  1.00  0.00     0.184 HD
BRANCH  28  30
HETATM   30  C   UNL     1      42.053 -16.978   3.558  1.00  0.00     0.049 A 
HETATM   31  C   UNL     1      42.579 -17.746   2.513  1.00  0.00     0.030 A 
HETATM   32  C   UNL     1      43.768 -18.465   2.672  1.00  0.00     0.002 A 
HETATM   33  C   UNL     1      44.437 -18.444   3.893  1.00  0.00     0.000 A 
HETATM   34  C   UNL     1      43.919 -17.704   4.952  1.00  0.00     0.002 A 
HETATM   35  C   UNL     1      42.736 -16.980   4.783  1.00  0.00     0.030 A 
ENDBRANCH  28  30
ENDBRANCH   3  28
BRANCH   5  36
HETATM   36  N   UNL     1      40.409 -13.540  -0.230  1.00  0.00    -0.187 N 
HETATM   37  H   UNL     1      41.233 -13.021  -0.505  1.00  0.00     0.184 HD
BRANCH  36  38
HETATM   38  C   UNL     1      39.418 -13.657  -1.215  1.00  0.00     0.049 A 
HETATM   39  C   UNL     1      39.423 -14.639  -2.214  1.00  0.00     0.030 A 
HETATM   40  C   UNL     1      38.426 -14.685  -3.194  1.00  0.00     0.002 A 
HETATM   41  C   UNL     1      37.414 -13.731  -3.206  1.00  0.00     0.000 A 
HETATM   42  C   UNL     1      37.402 -12.731  -2.239  1.00  0.00     0.002 A 
HETATM   43  C   UNL     1      38.398 -12.693  -1.259  1.00  0.00     0.030 A 
ENDBRANCH  36  38
ENDBRANCH   5  36
TORSDOF 8
ENDMDL
MODEL 8
REMARK VINA RESULT:      -9.8      4.196      6.912
REMARK  8 active torsions:
REMARK  status: ('A' for Active; 'I' for Inactive)
REMARK    1  A    between atoms: C_6  and  N_7 
REMARK       I    between atoms: N_7  and  C_8 
REMARK    2  A    between atoms: C_8  and  C_9 
REMARK    3  A    between atoms: C_9  and  N_10 
REMARK    4  A    between atoms: N_14  and  C_15 
REMARK    5  A    between atoms: C_17  and  N_18 
REMARK    6  A    between atoms: N_18  and  C_19 
REMARK    7  A    between atoms: C_26  and  N_27 
REMARK    8  A    between atoms: N_27  and  C_28 
ROOT
HETATM    1  C   UNL     1      41.417 -14.248   3.698  1.00  0.00     0.756 A 
HETATM    2  N   UNL     1      42.418 -15.109   3.726  1.00  0.00     0.131 NA
HETATM    3  C   UNL     1      42.505 -15.935   2.685  1.00  0.00     0.758 A 
HETATM    4  N   UNL     1      41.672 -15.915   1.651  1.00  0.00     0.131 NA
HETATM    5  C   UNL     1      40.688 -15.028   1.709  1.00  0.00     0.758 A 
HETATM    6  N   UNL     1      40.509 -14.214   2.739  1.00  0.00     0.131 NA
ENDROOT
BRANCH   1   7
HETATM    7  N   UNL     1      41.293 -13.298   4.706  1.00  0.00    -0.210 N 
HETATM    8  C   UNL     1      39.932 -12.841   5.012  1.00  0.00     0.169 C 
HETATM    9  C   UNL     1      39.546 -11.573   4.226  1.00  0.00     0.256 C 
HETATM   10  N   UNL     1      40.639 -10.514   4.429  1.00  0.00    -0.060 N 
HETATM   11  H   UNL     1      40.779 -10.437   5.443  1.00  0.00     0.280 HD
HETATM   12  C   UNL     1      41.959 -11.044   3.868  1.00  0.00     0.256 C 
HETATM   13  C   UNL     1      42.371 -12.297   4.682  1.00  0.00     0.169 C 
BRANCH  10  14
HETATM   14  C   UNL     1      40.266  -9.118   3.951  1.00  0.00     0.337 C 
BRANCH  14  15
HETATM   15  C   UNL     1      39.328  -9.023   2.741  1.00  0.00     0.248 C 
HETATM   16  N   UNL     1      39.826  -9.706   1.639  1.00  0.00    -0.325 N 
HETATM   17  H   UNL     1      40.801  -9.970   1.675  1.00  0.00     0.169 HD
HETATM   18  O   UNL     1      38.301  -8.357   2.800  1.00  0.00    -0.271 OA
BRANCH  16  19
HETATM   19  C   UNL     1      39.269  -9.741   0.332  1.00  0.00     0.046 A 
HETATM   20  C   UNL     1      39.937  -8.980  -0.663  1.00  0.00    -0.034 A 
HETATM   21  C   UNL     1      39.411  -8.914  -1.965  1.00  0.00     0.015 A 
HETATM   22  C   UNL     1      41.191  -8.188  -0.387  1.00  0.00     0.050 C 
HETATM   23  C   UNL     1      38.253  -9.607  -2.310  1.00  0.00    -0.061 A 
HETATM   24  C   UNL     1      37.668  -9.489  -3.686  1.00  0.00     0.048 C 
HETATM   25  C   UNL     1      37.626 -10.389  -1.337  1.00  0.00     0.015 A 
HETATM   26  C   UNL     1      38.140 -10.502  -0.029  1.00  0.00    -0.034 A 
HETATM   27  C   UNL     1      37.452 -11.502   0.861  1.00  0.00     0.050 C 
ENDBRANCH  16  19
ENDBRANCH  14  15
ENDBRANCH  10  14
ENDBRANCH   1   7
BRANCH   3  28
HETATM   28  N   UNL     1      43.550 -16.850   2.592  1.00  0.00    -0.187 N 
HETATM   29  H   UNL     1      44.202 -16.567   1.872  1.00  0.00     0.184 HD
BRANCH  28  30
HETATM   30  C   UNL     1      43.683 -18.173   3.032  1.00  0.00     0.049 A 
HETATM   31  C   UNL     1      43.406 -19.283   2.228  1.00  0.00     0.030 A 
HETATM   32  C   UNL     1      43.528 -20.585   2.726  1.00  0.00     0.002 A 
HETATM   33  C   UNL     1      43.907 -20.792   4.049  1.00  0.00     0.000 A 
HETATM   34  C   UNL     1      44.166 -19.700   4.873  1.00  0.00     0.002 A 
HETATM   35  C   UNL     1      44.052 -18.403   4.366  1.00  0.00     0.030 A 
ENDBRANCH  28  30
ENDBRANCH   3  28
BRANCH   5  36
HETATM   36  N   UNL     1      39.810 -15.015   0.627  1.00  0.00    -0.187 N 
HETATM   37  H   UNL     1      39.257 -15.861   0.617  1.00  0.00     0.184 HD
BRANCH  36  38
HETATM   38  C   UNL     1      39.811 -14.285  -0.572  1.00  0.00     0.049 A 
HETATM   39  C   UNL     1      39.068 -14.644  -1.703  1.00  0.00     0.030 A 
HETATM   40  C   UNL     1      39.136 -13.898  -2.885  1.00  0.00     0.002 A 
HETATM   41  C   UNL     1      39.971 -12.789  -2.963  1.00  0.00     0.000 A 
HETATM   42  C   UNL     1      40.738 -12.428  -1.860  1.00  0.00     0.002 A 
HETATM   43  C   UNL     1      40.662 -13.174  -0.680  1.00  0.00     0.030 A 
ENDBRANCH  36  38
ENDBRANCH   5  36
TORSDOF 8
ENDMDL
MODEL 9
REMARK VINA RESULT:      -9.6      3.313      9.395
REMARK  8 active torsions:
REMARK  status: ('A' for Active; 'I' for Inactive)
REMARK    1  A    between atoms: C_6  and  N_7 
REMARK       I    between atoms: N_7  and  C_8 
REMARK    2  A    between atoms: C_8  and  C_9 
REMARK    3  A    between atoms: C_9  and  N_10 
REMARK    4  A    between atoms: N_14  and  C_15 
REMARK    5  A    between atoms: C_17  and  N_18 
REMARK    6  A    between atoms: N_18  and  C_19 
REMARK    7  A    between atoms: C_26  and  N_27 
REMARK    8  A    between atoms: N_27  and  C_28 
ROOT
HETATM    1  C   UNL     1      41.075 -14.358   3.465  1.00  0.00     0.756 A 
HETATM    2  N   UNL     1      41.586 -13.172   3.745  1.00  0.00     0.131 NA
HETATM    3  C   UNL     1      42.783 -13.177   4.328  1.00  0.00     0.758 A 
HETATM    4  N   UNL     1      43.465 -14.282   4.610  1.00  0.00     0.131 NA
HETATM    5  C   UNL     1      42.873 -15.429   4.309  1.00  0.00     0.758 A 
HETATM    6  N   UNL     1      41.662 -15.500   3.778  1.00  0.00     0.131 NA
ENDROOT
BRANCH   1   7
HETATM    7  N   UNL     1      39.863 -14.446   2.787  1.00  0.00    -0.210 N 
HETATM    8  C   UNL     1      39.820 -15.362   1.640  1.00  0.00     0.169 C 
HETATM    9  C   UNL     1      40.134 -14.652   0.309  1.00  0.00     0.256 C 
HETATM   10  N   UNL     1      39.228 -13.418   0.180  1.00  0.00    -0.060 N 
HETATM   11  H   UNL     1      38.270 -13.749   0.344  1.00  0.00     0.280 HD
HETATM   12  C   UNL     1      39.535 -12.452   1.325  1.00  0.00     0.256 C 
HETATM   13  C   UNL     1      39.183 -13.148   2.663  1.00  0.00     0.169 C 
BRANCH  10  14
HETATM   14  C   UNL     1      39.220 -12.780  -1.201  1.00  0.00     0.337 C 
BRANCH  14  15
HETATM   15  C   UNL     1      40.415 -11.889  -1.565  1.00  0.00     0.248 C 
HETATM   16  N   UNL     1      40.129 -10.540  -1.402  1.00  0.00    -0.325 N 
HETATM   17  H   UNL     1      39.153 -10.294  -1.301  1.00  0.00     0.169 HD
HETATM   18  O   UNL     1      41.451 -12.382  -1.995  1.00  0.00    -0.271 OA
BRANCH  16  19
HETATM   19  C   UNL     1      40.965  -9.442  -1.740  1.00  0.00     0.046 A 
HETATM   20  C   UNL     1      41.727  -8.875  -0.685  1.00  0.00    -0.034 A 
HETATM   21  C   UNL     1      42.530  -7.747  -0.928  1.00  0.00     0.015 A 
HETATM   22  C   UNL     1      41.697  -9.406   0.727  1.00  0.00     0.050 C 
HETATM   23  C   UNL     1      42.614  -7.184  -2.199  1.00  0.00    -0.061 A 
HETATM   24  C   UNL     1      43.430  -5.948  -2.439  1.00  0.00     0.048 C 
HETATM   25  C   UNL     1      41.897  -7.774  -3.242  1.00  0.00     0.015 A 
HETATM   26  C   UNL     1      41.104  -8.923  -3.043  1.00  0.00    -0.034 A 
HETATM   27  C   UNL     1      40.518  -9.538  -4.285  1.00  0.00     0.050 C 
ENDBRANCH  16  19
ENDBRANCH  14  15
ENDBRANCH  10  14
ENDBRANCH   1   7
BRANCH   3  28
HETATM   28  N   UNL     1      43.433 -11.982   4.623  1.00  0.00    -0.187 N 
HETATM   29  H   UNL     1      43.675 -11.495   3.770  1.00  0.00     0.184 HD
BRANCH  28  30
HETATM   30  C   UNL     1      44.078 -11.523   5.778  1.00  0.00     0.049 A 
HETATM   31  C   UNL     1      45.466 -11.376   5.878  1.00  0.00     0.030 A 
HETATM   32  C   UNL     1      46.062 -10.940   7.066  1.00  0.00     0.002 A 
HETATM   33  C   UNL     1      45.276 -10.666   8.181  1.00  0.00     0.000 A 
HETATM   34  C   UNL     1      43.894 -10.827   8.109  1.00  0.00     0.002 A 
HETATM   35  C   UNL     1      43.304 -11.254   6.917  1.00  0.00     0.030 A 
ENDBRANCH  28  30
ENDBRANCH   3  28
BRANCH   5  36
HETATM   36  N   UNL     1      43.588 -16.586   4.614  1.00  0.00    -0.187 N 
HETATM   37  H   UNL     1      44.376 -16.362   5.207  1.00  0.00     0.184 HD
BRANCH  36  38
HETATM   38  C   UNL     1      43.641 -17.845   3.997  1.00  0.00     0.049 A 
HETATM   39  C   UNL     1      43.235 -18.084   2.678  1.00  0.00     0.030 A 
HETATM   40  C   UNL     1      43.276 -19.369   2.126  1.00  0.00     0.002 A 
HETATM   41  C   UNL     1      43.704 -20.446   2.896  1.00  0.00     0.000 A 
HETATM   42  C   UNL     1      44.087 -20.237   4.216  1.00  0.00     0.002 A 
HETATM   43  C   UNL     1      44.049 -18.950   4.761  1.00  0.00     0.030 A 
ENDBRANCH  36  38
ENDBRANCH   5  36
TORSDOF 8
ENDMDL
MODEL 10
REMARK VINA RESULT:      -9.5      2.875      5.887
REMARK  8 active torsions:
REMARK  status: ('A' for Active; 'I' for Inactive)
REMARK    1  A    between atoms: C_6  and  N_7 
REMARK       I    between atoms: N_7  and  C_8 
REMARK    2  A    between atoms: C_8  and  C_9 
REMARK    3  A    between atoms: C_9  and  N_10 
REMARK    4  A    between atoms: N_14  and  C_15 
REMARK    5  A    between atoms: C_17  and  N_18 
REMARK    6  A    between atoms: N_18  and  C_19 
REMARK    7  A    between atoms: C_26  and  N_27 
REMARK    8  A    between atoms: N_27  and  C_28 
ROOT
HETATM    1  C   UNL     1      41.165 -11.862   5.027  1.00  0.00     0.756 A 
HETATM    2  N   UNL     1      42.034 -11.591   5.985  1.00  0.00     0.131 NA
HETATM    3  C   UNL     1      42.644 -12.640   6.532  1.00  0.00     0.758 A 
HETATM    4  N   UNL     1      42.437 -13.896   6.155  1.00  0.00     0.131 NA
HETATM    5  C   UNL     1      41.540 -14.081   5.197  1.00  0.00     0.758 A 
HETATM    6  N   UNL     1      40.856 -13.089   4.646  1.00  0.00     0.131 NA
ENDROOT
BRANCH   1   7
HETATM    7  N   UNL     1      40.537 -10.823   4.347  1.00  0.00    -0.210 N 
HETATM    8  C   UNL     1      41.349  -9.627   4.086  1.00  0.00     0.169 C 
HETATM    9  C   UNL     1      41.194  -8.559   5.186  1.00  0.00     0.256 C 
HETATM   10  N   UNL     1      39.698  -8.285   5.403  1.00  0.00    -0.060 N 
HETATM   11  H   UNL     1      39.306  -8.092   4.474  1.00  0.00     0.280 HD
HETATM   12  C   UNL     1      39.019  -9.570   5.880  1.00  0.00     0.256 C 
HETATM   13  C   UNL     1      39.139 -10.634   4.761  1.00  0.00     0.169 C 
BRANCH  10  14
HETATM   14  C   UNL     1      39.395  -7.058   6.250  1.00  0.00     0.337 C 
BRANCH  14  15
HETATM   15  C   UNL     1      39.357  -7.252   7.771  1.00  0.00     0.248 C 
HETATM   16  N   UNL     1      40.558  -7.743   8.264  1.00  0.00    -0.325 N 
HETATM   17  H   UNL     1      41.204  -8.124   7.585  1.00  0.00     0.169 HD
HETATM   18  O   UNL     1      38.330  -7.030   8.401  1.00  0.00    -0.271 OA
BRANCH  16  19
HETATM   19  C   UNL     1      40.837  -8.131   9.602  1.00  0.00     0.046 A 
HETATM   20  C   UNL     1      41.755  -7.321  10.321  1.00  0.00    -0.034 A 
HETATM   21  C   UNL     1      42.130  -7.677  11.628  1.00  0.00     0.015 A 
HETATM   22  C   UNL     1      42.395  -6.087   9.734  1.00  0.00     0.050 C 
HETATM   23  C   UNL     1      41.596  -8.803  12.249  1.00  0.00    -0.061 A 
HETATM   24  C   UNL     1      42.041  -9.207  13.623  1.00  0.00     0.048 C 
HETATM   25  C   UNL     1      40.660  -9.571  11.552  1.00  0.00     0.015 A 
HETATM   26  C   UNL     1      40.238  -9.230  10.251  1.00  0.00    -0.034 A 
HETATM   27  C   UNL     1      39.112 -10.054   9.690  1.00  0.00     0.050 C 
ENDBRANCH  16  19
ENDBRANCH  14  15
ENDBRANCH  10  14
ENDBRANCH   1   7
BRANCH   3  28
HETATM   28  N   UNL     1      43.612 -12.463   7.517  1.00  0.00    -0.187 N 
HETATM   29  H   UNL     1      43.585 -13.228   8.177  1.00  0.00     0.184 HD
BRANCH  28  30
HETATM   30  C   UNL     1      44.332 -11.336   7.935  1.00  0.00     0.049 A 
HETATM   31  C   UNL     1      45.533 -10.929   7.346  1.00  0.00     0.030 A 
HETATM   32  C   UNL     1      46.229  -9.811   7.821  1.00  0.00     0.002 A 
HETATM   33  C   UNL     1      45.739  -9.099   8.912  1.00  0.00     0.000 A 
HETATM   34  C   UNL     1      44.557  -9.501   9.527  1.00  0.00     0.002 A 
HETATM   35  C   UNL     1      43.863 -10.612   9.041  1.00  0.00     0.030 A 
ENDBRANCH  28  30
ENDBRANCH   3  28
BRANCH   5  36
HETATM   36  N   UNL     1      41.319 -15.402   4.810  1.00  0.00    -0.187 N 
HETATM   37  H   UNL     1      40.492 -15.764   5.264  1.00  0.00     0.184 HD
BRANCH  36  38
HETATM   38  C   UNL     1      42.168 -16.369   4.250  1.00  0.00     0.049 A 
HETATM   39  C   UNL     1      43.187 -17.015   4.960  1.00  0.00     0.030 A 
HETATM   40  C   UNL     1      44.028 -17.946   4.340  1.00  0.00     0.002 A 
HETATM   41  C   UNL     1      43.877 -18.230   2.987  1.00  0.00     0.000 A 
HETATM   42  C   UNL     1      42.888 -17.581   2.255  1.00  0.00     0.002 A 
HETATM   43  C   UNL     1      42.047 -16.656   2.881  1.00  0.00     0.030 A 
ENDBRANCH  36  38
ENDBRANCH   5  36
TORSDOF 8
ENDMDL
