MODEL 1
REMARK VINA RESULT:      -8.3      0.000      0.000
REMARK  9 active torsions:
REMARK  status: ('A' for Active; 'I' for Inactive)
REMARK    1  A    between atoms: C_7  and  O_8 
REMARK    2  A    between atoms: O_8  and  C_9 
REMARK    3  A    between atoms: C_9  and  C_10 
REMARK    4  A    between atoms: C_10  and  O_11 
REMARK    5  A    between atoms: C_10  and  C_12 
REMARK    6  A    between atoms: C_12  and  N_13 
REMARK    7  A    between atoms: N_18  and  C_19 
REMARK    8  A    between atoms: C_19  and  C_20 
REMARK    9  A    between atoms: C_20  and  N_21 
ROOT
HETATM    1  N   UNL     1      42.084 -16.449   5.468  1.00  0.00    -0.179 N 
HETATM    2  C   UNL     1      41.207 -15.860   4.577  1.00  0.00     0.681 A 
HETATM    3  N   UNL     1      40.227 -15.022   4.914  1.00  0.00    -0.234 N 
HETATM    4  H   UNL     1      39.531 -14.658   4.289  1.00  0.00     0.174 HD
HETATM    5  H   UNL     1      40.056 -14.873   5.916  1.00  0.00     0.174 HD
HETATM    6  N   UNL     1      41.426 -16.239   3.251  1.00  0.00    -0.180 N 
HETATM    7  C   UNL     1      42.470 -17.210   3.326  1.00  0.00     0.079 A 
HETATM    8  C   UNL     1      42.873 -17.332   4.664  1.00  0.00     0.079 A 
HETATM    9  C   UNL     1      43.037 -17.967   2.322  1.00  0.00     0.032 A 
HETATM   10  C   UNL     1      44.037 -18.872   2.695  1.00  0.00     0.002 A 
HETATM   11  C   UNL     1      44.443 -18.995   4.038  1.00  0.00     0.002 A 
HETATM   12  C   UNL     1      43.858 -18.219   5.044  1.00  0.00     0.032 A 
ENDROOT
BRANCH   1  13
HETATM   13  C   UNL     1      42.253 -16.318   6.939  1.00  0.00     0.181 C 
BRANCH  13  14
HETATM   14  C   UNL     1      42.768 -14.965   7.447  1.00  0.00     0.161 C 
BRANCH  14  15
HETATM   15  C   UNL     1      43.928 -14.440   6.583  1.00  0.00     0.209 C 
BRANCH  15  16
HETATM   16  O   UNL     1      43.442 -13.244   5.963  1.00  0.00    -0.349 OA
BRANCH  16  17
HETATM   17  C   UNL     1      43.736 -12.059   6.578  1.00  0.00     0.069 A 
HETATM   18  C   UNL     1      45.072 -11.913   6.951  1.00  0.00     0.038 A 
HETATM   19  C   UNL     1      45.506 -10.750   7.589  1.00  0.00     0.027 A 
HETATM   20  C   UNL     1      44.601  -9.724   7.862  1.00  0.00     0.040 A 
HETATM   21  C   UNL     1      43.251  -9.853   7.501  1.00  0.00    -0.038 A 
HETATM   22 CL   UNL     1      45.196  -8.314   8.660  1.00  0.00    -0.084 Cl
HETATM   23  C   UNL     1      42.248  -8.774   7.803  1.00  0.00     0.050 C 
HETATM   24  C   UNL     1      42.828 -11.034   6.860  1.00  0.00     0.045 A 
ENDBRANCH  16  17
ENDBRANCH  15  16
ENDBRANCH  14  15
BRANCH  14  25
HETATM   25  O   UNL     1      43.228 -15.106   8.808  1.00  0.00    -0.392 OA
HETATM   26  H   UNL     1      43.971 -15.755   8.763  1.00  0.00     0.210 HD
ENDBRANCH  14  25
ENDBRANCH  13  14
ENDBRANCH   1  13
BRANCH   6  27
HETATM   27  C   UNL     1      40.661 -15.875   2.054  1.00  0.00     0.175 C 
BRANCH  27  28
HETATM   28  C   UNL     1      41.416 -14.882   1.143  1.00  0.00     0.256 C 
BRANCH  28  29
HETATM   29  N   UNL     1      41.363 -13.454   1.654  1.00  0.00    -0.066 N 
HETATM   30  H   UNL     1      40.612 -13.357   2.353  1.00  0.00     0.280 HD
HETATM   31  C   UNL     1      42.670 -13.085   2.389  1.00  0.00     0.261 C 
HETATM   32  C   UNL     1      42.583 -11.645   2.905  1.00  0.00     0.195 C 
HETATM   33  O   UNL     1      42.342 -10.738   1.826  1.00  0.00    -0.388 OA
HETATM   34  C   UNL     1      41.102 -11.003   1.169  1.00  0.00     0.195 C 
HETATM   35  C   UNL     1      41.102 -12.411   0.558  1.00  0.00     0.261 C 
ENDBRANCH  28  29
ENDBRANCH  27  28
ENDBRANCH   6  27
TORSDOF 9
ENDMDL
MODEL 2
REMARK VINA RESULT:      -8.2      4.178      8.821
REMARK  9 active torsions:
REMARK  status: ('A' for Active; 'I' for Inactive)
REMARK    1  A    between atoms: C_7  and  O_8 
REMARK    2  A    between atoms: O_8  and  C_9 
REMARK    3  A    between atoms: C_9  and  C_10 
REMARK    4  A    between atoms: C_10  and  O_11 
REMARK    5  A    between atoms: C_10  and  C_12 
REMARK    6  A    between atoms: C_12  and  N_13 
REMARK    7  A    between atoms: N_18  and  C_19 
REMARK    8  A    between atoms: C_19  and  C_20 
REMARK    9  A    between atoms: C_20  and  N_21 
ROOT
HETATM    1  N   UNL     1      42.870 -11.222   6.436  1.00  0.00    -0.179 N 
HETATM    2  C   UNL     1      41.830 -10.423   6.869  1.00  0.00     0.681 A 
HETATM    3  N   UNL     1      40.570 -10.514   6.443  1.00  0.00    -0.234 N 
HETATM    4  H   UNL     1      39.827  -9.884   6.683  1.00  0.00     0.174 HD
HETATM    5  H   UNL     1      40.378 -11.166   5.673  1.00  0.00     0.174 HD
HETATM    6  N   UNL     1      42.220  -9.467   7.809  1.00  0.00    -0.180 N 
HETATM    7  C   UNL     1      43.635  -9.624   7.910  1.00  0.00     0.079 A 
HETATM    8  C   UNL     1      44.028 -10.689   7.087  1.00  0.00     0.079 A 
HETATM    9  C   UNL     1      44.548  -8.894   8.643  1.00  0.00     0.032 A 
HETATM   10  C   UNL     1      45.894  -9.259   8.528  1.00  0.00     0.002 A 
HETATM   11  C   UNL     1      46.290 -10.328   7.702  1.00  0.00     0.002 A 
HETATM   12  C   UNL     1      45.350 -11.059   6.967  1.00  0.00     0.032 A 
ENDROOT
BRANCH   1  13
HETATM   13  C   UNL     1      42.923 -12.370   5.493  1.00  0.00     0.181 C 
BRANCH  13  14
HETATM   14  C   UNL     1      42.493 -13.732   6.054  1.00  0.00     0.161 C 
BRANCH  14  15
HETATM   15  C   UNL     1      42.472 -14.814   4.962  1.00  0.00     0.209 C 
BRANCH  15  16
HETATM   16  O   UNL     1      43.553 -15.701   5.270  1.00  0.00    -0.349 OA
BRANCH  16  17
HETATM   17  C   UNL     1      43.622 -16.872   4.567  1.00  0.00     0.069 A 
HETATM   18  C   UNL     1      43.304 -16.756   3.213  1.00  0.00     0.038 A 
HETATM   19  C   UNL     1      43.333 -17.876   2.381  1.00  0.00     0.027 A 
HETATM   20  C   UNL     1      43.676 -19.124   2.901  1.00  0.00     0.040 A 
HETATM   21  C   UNL     1      43.993 -19.263   4.261  1.00  0.00    -0.038 A 
HETATM   22 CL   UNL     1      43.686 -20.472   1.824  1.00  0.00    -0.084 Cl
HETATM   23  C   UNL     1      44.344 -20.600   4.855  1.00  0.00     0.050 C 
HETATM   24  C   UNL     1      43.957 -18.124   5.089  1.00  0.00     0.045 A 
ENDBRANCH  16  17
ENDBRANCH  15  16
ENDBRANCH  14  15
BRANCH  14  25
HETATM   25  O   UNL     1      41.172 -13.621   6.625  1.00  0.00    -0.392 OA
HETATM   26  H   UNL     1      40.864 -14.551   6.746  1.00  0.00     0.210 HD
ENDBRANCH  14  25
ENDBRANCH  13  14
ENDBRANCH   1  13
BRANCH   6  27
HETATM   27  C   UNL     1      41.414  -8.413   8.437  1.00  0.00     0.175 C 
BRANCH  27  28
HETATM   28  C   UNL     1      40.296  -8.976   9.340  1.00  0.00     0.256 C 
BRANCH  28  29
HETATM   29  N   UNL     1      40.817  -9.522  10.656  1.00  0.00    -0.066 N 
HETATM   30  H   UNL     1      41.331 -10.400  10.495  1.00  0.00     0.280 HD
HETATM   31  C   UNL     1      41.836  -8.550  11.289  1.00  0.00     0.261 C 
HETATM   32  C   UNL     1      42.356  -9.133  12.607  1.00  0.00     0.195 C 
HETATM   33  O   UNL     1      41.273  -9.379  13.509  1.00  0.00    -0.388 OA
HETATM   34  C   UNL     1      40.347 -10.333  12.986  1.00  0.00     0.195 C 
HETATM   35  C   UNL     1      39.717  -9.821  11.685  1.00  0.00     0.261 C 
ENDBRANCH  28  29
ENDBRANCH  27  28
ENDBRANCH   6  27
TORSDOF 9
ENDMDL
MODEL 3
REMARK VINA RESULT:      -8.1      3.575      6.182
REMARK  9 active torsions:
REMARK  status: ('A' for Active; 'I' for Inactive)
REMARK    1  A    between atoms: C_7  and  O_8 
REMARK    2  A    between atoms: O_8  and  C_9 
REMARK    3  A    between atoms: C_9  and  C_10 
REMARK    4  A    between atoms: C_10  and  O_11 
REMARK    5  A    between atoms: C_10  and  C_12 
REMARK    6  A    between atoms: C_12  and  N_13 
REMARK    7  A    between atoms: N_18  and  C_19 
REMARK    8  A    between atoms: C_19  and  C_20 
REMARK    9  A    between atoms: C_20  and  N_21 
ROOT
HETATM    1  N   UNL     1      41.399 -13.087   4.213  1.00  0.00    -0.179 N 
HETATM    2  C   UNL     1      41.640 -11.982   3.419  1.00  0.00     0.681 A 
HETATM    3  N   UNL     1      42.025 -10.789   3.869  1.00  0.00    -0.234 N 
HETATM    4  H   UNL     1      42.117  -9.958   3.314  1.00  0.00     0.174 HD
HETATM    5  H   UNL     1      42.060 -10.656   4.888  1.00  0.00     0.174 HD
HETATM    6  N   UNL     1      41.423 -12.219   2.060  1.00  0.00    -0.180 N 
HETATM    7  C   UNL     1      40.924 -13.556   2.007  1.00  0.00     0.079 A 
HETATM    8  C   UNL     1      40.917 -14.084   3.307  1.00  0.00     0.079 A 
HETATM    9  C   UNL     1      40.480 -14.284   0.923  1.00  0.00     0.032 A 
HETATM   10  C   UNL     1      40.015 -15.579   1.173  1.00  0.00     0.002 A 
HETATM   11  C   UNL     1      40.007 -16.110   2.477  1.00  0.00     0.002 A 
HETATM   12  C   UNL     1      40.462 -15.358   3.566  1.00  0.00     0.032 A 
ENDROOT
BRANCH   1  13
HETATM   13  C   UNL     1      41.530 -13.313   5.677  1.00  0.00     0.181 C 
BRANCH  13  14
HETATM   14  C   UNL     1      42.871 -13.884   6.160  1.00  0.00     0.161 C 
BRANCH  14  15
HETATM   15  C   UNL     1      42.818 -15.414   6.299  1.00  0.00     0.209 C 
BRANCH  15  16
HETATM   16  O   UNL     1      44.028 -15.902   5.707  1.00  0.00    -0.349 OA
BRANCH  16  17
HETATM   17  C   UNL     1      43.929 -16.999   4.898  1.00  0.00     0.069 A 
HETATM   18  C   UNL     1      43.590 -16.717   3.574  1.00  0.00     0.038 A 
HETATM   19  C   UNL     1      43.455 -17.748   2.643  1.00  0.00     0.027 A 
HETATM   20  C   UNL     1      43.654 -19.072   3.033  1.00  0.00     0.040 A 
HETATM   21  C   UNL     1      43.990 -19.378   4.361  1.00  0.00    -0.038 A 
HETATM   22 CL   UNL     1      43.466 -20.302   1.838  1.00  0.00    -0.084 Cl
HETATM   23  C   UNL     1      44.189 -20.798   4.815  1.00  0.00     0.050 C 
HETATM   24  C   UNL     1      44.121 -18.327   5.289  1.00  0.00     0.045 A 
ENDBRANCH  16  17
ENDBRANCH  15  16
ENDBRANCH  14  15
BRANCH  14  25
HETATM   25  O   UNL     1      43.203 -13.311   7.442  1.00  0.00    -0.392 OA
HETATM   26  H   UNL     1      43.312 -14.082   8.049  1.00  0.00     0.210 HD
ENDBRANCH  14  25
ENDBRANCH  13  14
ENDBRANCH   1  13
BRANCH   6  27
HETATM   27  C   UNL     1      41.511 -11.278   0.938  1.00  0.00     0.175 C 
BRANCH  27  28
HETATM   28  C   UNL     1      40.125 -10.839   0.418  1.00  0.00     0.256 C 
BRANCH  28  29
HETATM   29  N   UNL     1      39.913 -11.166  -1.048  1.00  0.00    -0.066 N 
HETATM   30  H   UNL     1      39.712 -10.305  -1.577  1.00  0.00     0.280 HD
HETATM   31  C   UNL     1      41.199 -11.750  -1.673  1.00  0.00     0.261 C 
HETATM   32  C   UNL     1      40.961 -12.057  -3.155  1.00  0.00     0.195 C 
HETATM   33  O   UNL     1      39.871 -12.970  -3.309  1.00  0.00    -0.388 OA
HETATM   34  C   UNL     1      38.646 -12.432  -2.810  1.00  0.00     0.195 C 
HETATM   35  C   UNL     1      38.754 -12.140  -1.308  1.00  0.00     0.261 C 
ENDBRANCH  28  29
ENDBRANCH  27  28
ENDBRANCH   6  27
TORSDOF 9
ENDMDL
MODEL 4
REMARK VINA RESULT:      -8.0      3.620      6.883
REMARK  9 active torsions:
REMARK  status: ('A' for Active; 'I' for Inactive)
REMARK    1  A    between atoms: C_7  and  O_8 
REMARK    2  A    between atoms: O_8  and  C_9 
REMARK    3  A    between atoms: C_9  and  C_10 
REMARK    4  A    between atoms: C_10  and  O_11 
REMARK    5  A    between atoms: C_10  and  C_12 
REMARK    6  A    between atoms: C_12  and  N_13 
REMARK    7  A    between atoms: N_18  and  C_19 
REMARK    8  A    between atoms: C_19  and  C_20 
REMARK    9  A    between atoms: C_20  and  N_21 
ROOT
HETATM    1  N   UNL     1      40.100 -12.914   4.895  1.00  0.00    -0.179 N 
HETATM    2  C   UNL     1      39.642 -12.950   3.592  1.00  0.00     0.681 A 
HETATM    3  N   UNL     1      39.121 -14.023   2.996  1.00  0.00    -0.234 N 
HETATM    4  H   UNL     1      38.867 -14.086   2.027  1.00  0.00     0.174 HD
HETATM    5  H   UNL     1      39.142 -14.909   3.516  1.00  0.00     0.174 HD
HETATM    6  N   UNL     1      39.790 -11.736   2.919  1.00  0.00    -0.180 N 
HETATM    7  C   UNL     1      40.473 -10.895   3.848  1.00  0.00     0.079 A 
HETATM    8  C   UNL     1      40.654 -11.604   5.045  1.00  0.00     0.079 A 
HETATM    9  C   UNL     1      40.937  -9.606   3.687  1.00  0.00     0.032 A 
HETATM   10  C   UNL     1      41.604  -9.029   4.773  1.00  0.00     0.002 A 
HETATM   11  C   UNL     1      41.787  -9.740   5.976  1.00  0.00     0.002 A 
HETATM   12  C   UNL     1      41.308 -11.047   6.122  1.00  0.00     0.032 A 
ENDROOT
BRANCH   1  13
HETATM   13  C   UNL     1      40.112 -13.932   5.979  1.00  0.00     0.181 C 
BRANCH  13  14
HETATM   14  C   UNL     1      40.940 -15.197   5.715  1.00  0.00     0.161 C 
BRANCH  14  15
HETATM   15  C   UNL     1      42.194 -14.889   4.880  1.00  0.00     0.209 C 
BRANCH  15  16
HETATM   16  O   UNL     1      43.211 -15.774   5.364  1.00  0.00    -0.349 OA
BRANCH  16  17
HETATM   17  C   UNL     1      43.417 -16.931   4.666  1.00  0.00     0.069 A 
HETATM   18  C   UNL     1      43.187 -16.831   3.294  1.00  0.00     0.038 A 
HETATM   19  C   UNL     1      43.359 -17.940   2.464  1.00  0.00     0.027 A 
HETATM   20  C   UNL     1      43.758 -19.162   3.006  1.00  0.00     0.040 A 
HETATM   21  C   UNL     1      43.990 -19.285   4.385  1.00  0.00    -0.038 A 
HETATM   22 CL   UNL     1      43.946 -20.498   1.931  1.00  0.00    -0.084 Cl
HETATM   23  C   UNL     1      44.400 -20.595   5.000  1.00  0.00     0.050 C 
HETATM   24  C   UNL     1      43.810 -18.157   5.209  1.00  0.00     0.045 A 
ENDBRANCH  16  17
ENDBRANCH  15  16
ENDBRANCH  14  15
BRANCH  14  25
HETATM   25  O   UNL     1      40.132 -16.160   5.004  1.00  0.00    -0.392 OA
HETATM   26  H   UNL     1      40.777 -16.794   4.606  1.00  0.00     0.210 HD
ENDBRANCH  14  25
ENDBRANCH  13  14
ENDBRANCH   1  13
BRANCH   6  27
HETATM   27  C   UNL     1      39.482 -11.417   1.520  1.00  0.00     0.175 C 
BRANCH  27  28
HETATM   28  C   UNL     1      40.690 -11.625   0.581  1.00  0.00     0.256 C 
BRANCH  28  29
HETATM   29  N   UNL     1      40.291 -12.140  -0.789  1.00  0.00    -0.066 N 
HETATM   30  H   UNL     1      39.380 -11.745  -1.063  1.00  0.00     0.280 HD
HETATM   31  C   UNL     1      41.293 -11.670  -1.866  1.00  0.00     0.261 C 
HETATM   32  C   UNL     1      40.859 -12.191  -3.240  1.00  0.00     0.195 C 
HETATM   33  O   UNL     1      40.769 -13.619  -3.229  1.00  0.00    -0.388 OA
HETATM   34  C   UNL     1      39.795 -14.088  -2.296  1.00  0.00     0.195 C 
HETATM   35  C   UNL     1      40.166 -13.669  -0.867  1.00  0.00     0.261 C 
ENDBRANCH  28  29
ENDBRANCH  27  28
ENDBRANCH   6  27
TORSDOF 9
ENDMDL
MODEL 5
REMARK VINA RESULT:      -8.0      3.552      6.520
REMARK  9 active torsions:
REMARK  status: ('A' for Active; 'I' for Inactive)
REMARK    1  A    between atoms: C_7  and  O_8 
REMARK    2  A    between atoms: O_8  and  C_9 
REMARK    3  A    between atoms: C_9  and  C_10 
REMARK    4  A    between atoms: C_10  and  O_11 
REMARK    5  A    between atoms: C_10  and  C_12 
REMARK    6  A    between atoms: C_12  and  N_13 
REMARK    7  A    between atoms: N_18  and  C_19 
REMARK    8  A    between atoms: C_19  and  C_20 
REMARK    9  A    between atoms: C_20  and  N_21 
ROOT
HETATM    1  N   UNL     1      41.672 -14.415   5.926  1.00  0.00    -0.179 N 
HETATM    2  C   UNL     1      41.915 -13.060   5.818  1.00  0.00     0.681 A 
HETATM    3  N   UNL     1      42.365 -12.285   6.805  1.00  0.00    -0.234 N 
HETATM    4  H   UNL     1      42.460 -11.287   6.765  1.00  0.00     0.174 HD
HETATM    5  H   UNL     1      42.453 -12.710   7.737  1.00  0.00     0.174 HD
HETATM    6  N   UNL     1      41.625 -12.543   4.553  1.00  0.00    -0.180 N 
HETATM    7  C   UNL     1      41.076 -13.648   3.835  1.00  0.00     0.079 A 
HETATM    8  C   UNL     1      41.111 -14.782   4.661  1.00  0.00     0.079 A 
HETATM    9  C   UNL     1      40.555 -13.693   2.559  1.00  0.00     0.032 A 
HETATM   10  C   UNL     1      40.055 -14.922   2.118  1.00  0.00     0.002 A 
HETATM   11  C   UNL     1      40.089 -16.061   2.946  1.00  0.00     0.002 A 
HETATM   12  C   UNL     1      40.623 -15.999   4.238  1.00  0.00     0.032 A 
ENDROOT
BRANCH   1  13
HETATM   13  C   UNL     1      41.864 -15.380   7.041  1.00  0.00     0.181 C 
BRANCH  13  14
HETATM   14  C   UNL     1      43.294 -15.524   7.578  1.00  0.00     0.161 C 
BRANCH  14  15
HETATM   15  C   UNL     1      43.998 -16.759   6.991  1.00  0.00     0.209 C 
BRANCH  15  16
HETATM   16  O   UNL     1      44.212 -16.465   5.606  1.00  0.00    -0.349 OA
BRANCH  16  17
HETATM   17  C   UNL     1      44.043 -17.489   4.716  1.00  0.00     0.069 A 
HETATM   18  C   UNL     1      43.718 -17.086   3.421  1.00  0.00     0.038 A 
HETATM   19  C   UNL     1      43.517 -18.033   2.415  1.00  0.00     0.027 A 
HETATM   20  C   UNL     1      43.634 -19.393   2.702  1.00  0.00     0.040 A 
HETATM   21  C   UNL     1      43.955 -19.819   4.000  1.00  0.00    -0.038 A 
HETATM   22 CL   UNL     1      43.366 -20.515   1.418  1.00  0.00    -0.084 Cl
HETATM   23  C   UNL     1      44.067 -21.279   4.344  1.00  0.00     0.050 C 
HETATM   24  C   UNL     1      44.153 -18.852   5.004  1.00  0.00     0.045 A 
ENDBRANCH  16  17
ENDBRANCH  15  16
ENDBRANCH  14  15
BRANCH  14  25
HETATM   25  O   UNL     1      43.258 -15.648   9.015  1.00  0.00    -0.392 OA
HETATM   26  H   UNL     1      43.944 -16.324   9.234  1.00  0.00     0.210 HD
ENDBRANCH  14  25
ENDBRANCH  13  14
ENDBRANCH   1  13
BRANCH   6  27
HETATM   27  C   UNL     1      41.694 -11.153   4.091  1.00  0.00     0.175 C 
BRANCH  27  28
HETATM   28  C   UNL     1      40.342 -10.417   4.208  1.00  0.00     0.256 C 
BRANCH  28  29
HETATM   29  N   UNL     1      40.273  -9.496   5.411  1.00  0.00    -0.066 N 
HETATM   30  H   UNL     1      39.697  -8.670   5.191  1.00  0.00     0.280 HD
HETATM   31  C   UNL     1      39.569 -10.192   6.597  1.00  0.00     0.261 C 
HETATM   32  C   UNL     1      39.501  -9.235   7.791  1.00  0.00     0.195 C 
HETATM   33  O   UNL     1      40.812  -8.808   8.168  1.00  0.00    -0.388 OA
HETATM   34  C   UNL     1      41.466  -8.092   7.119  1.00  0.00     0.195 C 
HETATM   35  C   UNL     1      41.641  -8.983   5.882  1.00  0.00     0.261 C 
ENDBRANCH  28  29
ENDBRANCH  27  28
ENDBRANCH   6  27
TORSDOF 9
ENDMDL
MODEL 6
REMARK VINA RESULT:      -8.0      4.618      7.627
REMARK  9 active torsions:
REMARK  status: ('A' for Active; 'I' for Inactive)
REMARK    1  A    between atoms: C_7  and  O_8 
REMARK    2  A    between atoms: O_8  and  C_9 
REMARK    3  A    between atoms: C_9  and  C_10 
REMARK    4  A    between atoms: C_10  and  O_11 
REMARK    5  A    between atoms: C_10  and  C_12 
REMARK    6  A    between atoms: C_12  and  N_13 
REMARK    7  A    between atoms: N_18  and  C_19 
REMARK    8  A    between atoms: C_19  and  C_20 
REMARK    9  A    between atoms: C_20  and  N_21 
ROOT
HETATM    1  N   UNL     1      40.712 -13.262   0.076  1.00  0.00    -0.179 N 
HETATM    2  C   UNL     1      40.759 -11.889  -0.079  1.00  0.00     0.681 A 
HETATM    3  N   UNL     1      41.348 -11.047   0.770  1.00  0.00    -0.234 N 
HETATM    4  H   UNL     1      41.313 -10.045   0.715  1.00  0.00     0.174 HD
HETATM    5  H   UNL     1      41.716 -11.438   1.645  1.00  0.00     0.174 HD
HETATM    6  N   UNL     1      40.103 -11.438  -1.225  1.00  0.00    -0.180 N 
HETATM    7  C   UNL     1      39.525 -12.614  -1.791  1.00  0.00     0.079 A 
HETATM    8  C   UNL     1      39.898 -13.718  -1.010  1.00  0.00     0.079 A 
HETATM    9  C   UNL     1      38.709 -12.746  -2.896  1.00  0.00     0.032 A 
HETATM   10  C   UNL     1      38.262 -14.034  -3.207  1.00  0.00     0.002 A 
HETATM   11  C   UNL     1      38.636 -15.143  -2.423  1.00  0.00     0.002 A 
HETATM   12  C   UNL     1      39.466 -14.992  -1.307  1.00  0.00     0.032 A 
ENDROOT
BRANCH   1  13
HETATM   13  C   UNL     1      41.289 -14.173   1.099  1.00  0.00     0.181 C 
BRANCH  13  14
HETATM   14  C   UNL     1      40.569 -14.219   2.453  1.00  0.00     0.161 C 
BRANCH  14  15
HETATM   15  C   UNL     1      41.466 -14.812   3.552  1.00  0.00     0.209 C 
BRANCH  15  16
HETATM   16  O   UNL     1      42.610 -15.347   2.875  1.00  0.00    -0.349 OA
BRANCH  16  17
HETATM   17  C   UNL     1      43.036 -16.589   3.255  1.00  0.00     0.069 A 
HETATM   18  C   UNL     1      43.498 -16.669   4.569  1.00  0.00     0.038 A 
HETATM   19  C   UNL     1      43.964 -17.880   5.083  1.00  0.00     0.027 A 
HETATM   20  C   UNL     1      43.975 -19.021   4.281  1.00  0.00     0.040 A 
HETATM   21  C   UNL     1      43.521 -18.961   2.954  1.00  0.00    -0.038 A 
HETATM   22 CL   UNL     1      44.570 -20.487   4.970  1.00  0.00    -0.084 Cl
HETATM   23  C   UNL     1      43.543 -20.170   2.059  1.00  0.00     0.050 C 
HETATM   24  C   UNL     1      43.056 -17.731   2.450  1.00  0.00     0.045 A 
ENDBRANCH  16  17
ENDBRANCH  15  16
ENDBRANCH  14  15
BRANCH  14  25
HETATM   25  O   UNL     1      39.379 -15.028   2.337  1.00  0.00    -0.392 OA
HETATM   26  H   UNL     1      38.771 -14.695   3.040  1.00  0.00     0.210 HD
ENDBRANCH  14  25
ENDBRANCH  13  14
ENDBRANCH   1  13
BRANCH   6  27
HETATM   27  C   UNL     1      39.890 -10.059  -1.679  1.00  0.00     0.175 C 
BRANCH  27  28
HETATM   28  C   UNL     1      40.909  -9.620  -2.753  1.00  0.00     0.256 C 
BRANCH  28  29
HETATM   29  N   UNL     1      41.506  -8.252  -2.477  1.00  0.00    -0.066 N 
HETATM   30  H   UNL     1      40.780  -7.616  -2.118  1.00  0.00     0.280 HD
HETATM   31  C   UNL     1      42.577  -8.333  -1.367  1.00  0.00     0.261 C 
HETATM   32  C   UNL     1      43.152  -6.938  -1.101  1.00  0.00     0.195 C 
HETATM   33  O   UNL     1      43.710  -6.388  -2.297  1.00  0.00    -0.388 OA
HETATM   34  C   UNL     1      42.730  -6.228  -3.322  1.00  0.00     0.195 C 
HETATM   35  C   UNL     1      42.126  -7.583  -3.712  1.00  0.00     0.261 C 
ENDBRANCH  28  29
ENDBRANCH  27  28
ENDBRANCH   6  27
TORSDOF 9
ENDMDL
MODEL 7
REMARK VINA RESULT:      -8.0      3.251      6.999
REMARK  9 active torsions:
REMARK  status: ('A' for Active; 'I' for Inactive)
REMARK    1  A    between atoms: C_7  and  O_8 
REMARK    2  A    between atoms: O_8  and  C_9 
REMARK    3  A    between atoms: C_9  and  C_10 
REMARK    4  A    between atoms: C_10  and  O_11 
REMARK    5  A    between atoms: C_10  and  C_12 
REMARK    6  A    between atoms: C_12  and  N_13 
REMARK    7  A    between atoms: N_18  and  C_19 
REMARK    8  A    between atoms: C_19  and  C_20 
REMARK    9  A    between atoms: C_20  and  N_21 
ROOT
HETATM    1  N   UNL     1      40.807 -13.680   3.521  1.00  0.00    -0.179 N 
HETATM    2  C   UNL     1      41.738 -12.682   3.737  1.00  0.00     0.681 A 
HETATM    3  N   UNL     1      42.015 -11.700   2.879  1.00  0.00    -0.234 N 
HETATM    4  H   UNL     1      42.748 -11.023   2.986  1.00  0.00     0.174 HD
HETATM    5  H   UNL     1      41.567 -11.739   1.955  1.00  0.00     0.174 HD
HETATM    6  N   UNL     1      42.401 -12.797   4.960  1.00  0.00    -0.180 N 
HETATM    7  C   UNL     1      41.907 -14.014   5.519  1.00  0.00     0.079 A 
HETATM    8  C   UNL     1      40.939 -14.545   4.655  1.00  0.00     0.079 A 
HETATM    9  C   UNL     1      42.270 -14.653   6.687  1.00  0.00     0.032 A 
HETATM   10  C   UNL     1      41.630 -15.863   6.975  1.00  0.00     0.002 A 
HETATM   11  C   UNL     1      40.657 -16.397   6.108  1.00  0.00     0.002 A 
HETATM   12  C   UNL     1      40.300 -15.735   4.928  1.00  0.00     0.032 A 
ENDROOT
BRANCH   1  13
HETATM   13  C   UNL     1      39.858 -13.939   2.406  1.00  0.00     0.181 C 
BRANCH  13  14
HETATM   14  C   UNL     1      40.443 -14.613   1.158  1.00  0.00     0.161 C 
BRANCH  14  15
HETATM   15  C   UNL     1      40.843 -16.071   1.437  1.00  0.00     0.209 C 
BRANCH  15  16
HETATM   16  O   UNL     1      42.275 -16.083   1.471  1.00  0.00    -0.349 OA
BRANCH  16  17
HETATM   17  C   UNL     1      42.872 -16.952   2.341  1.00  0.00     0.069 A 
HETATM   18  C   UNL     1      42.831 -18.290   1.946  1.00  0.00     0.038 A 
HETATM   19  C   UNL     1      43.403 -19.281   2.744  1.00  0.00     0.027 A 
HETATM   20  C   UNL     1      44.017 -18.940   3.949  1.00  0.00     0.040 A 
HETATM   21  C   UNL     1      44.064 -17.601   4.368  1.00  0.00    -0.038 A 
HETATM   22 CL   UNL     1      44.699 -20.211   4.896  1.00  0.00    -0.084 Cl
HETATM   23  C   UNL     1      44.699 -17.206   5.673  1.00  0.00     0.050 C 
HETATM   24  C   UNL     1      43.480 -16.612   3.552  1.00  0.00     0.045 A 
ENDBRANCH  16  17
ENDBRANCH  15  16
ENDBRANCH  14  15
BRANCH  14  25
HETATM   25  O   UNL     1      41.610 -13.885   0.721  1.00  0.00    -0.392 OA
HETATM   26  H   UNL     1      41.491 -12.970   1.074  1.00  0.00     0.210 HD
ENDBRANCH  14  25
ENDBRANCH  13  14
ENDBRANCH   1  13
BRANCH   6  27
HETATM   27  C   UNL     1      43.487 -11.970   5.497  1.00  0.00     0.175 C 
BRANCH  27  28
HETATM   28  C   UNL     1      43.041 -11.102   6.693  1.00  0.00     0.256 C 
BRANCH  28  29
HETATM   29  N   UNL     1      44.096 -10.101   7.124  1.00  0.00    -0.066 N 
HETATM   30  H   UNL     1      44.247  -9.405   6.380  1.00  0.00     0.280 HD
HETATM   31  C   UNL     1      43.624  -9.300   8.357  1.00  0.00     0.261 C 
HETATM   32  C   UNL     1      44.702  -8.289   8.760  1.00  0.00     0.195 C 
HETATM   33  O   UNL     1      45.936  -8.955   9.039  1.00  0.00    -0.388 OA
HETATM   34  C   UNL     1      46.443  -9.646   7.896  1.00  0.00     0.195 C 
HETATM   35  C   UNL     1      45.461 -10.732   7.439  1.00  0.00     0.261 C 
ENDBRANCH  28  29
ENDBRANCH  27  28
ENDBRANCH   6  27
TORSDOF 9
ENDMDL
MODEL 8
REMARK VINA RESULT:      -7.6      4.584      7.403
REMARK  9 active torsions:
REMARK  status: ('A' for Active; 'I' for Inactive)
REMARK    1  A    between atoms: C_7  and  O_8 
REMARK    2  A    between atoms: O_8  and  C_9 
REMARK    3  A    between atoms: C_9  and  C_10 
REMARK    4  A    between atoms: C_10  and  O_11 
REMARK    5  A    between atoms: C_10  and  C_12 
REMARK    6  A    between atoms: C_12  and  N_13 
REMARK    7  A    between atoms: N_18  and  C_19 
REMARK    8  A    between atoms: C_19  and  C_20 
REMARK    9  A    between atoms: C_20  and  N_21 
ROOT
HETATM    1  N   UNL     1      40.720 -13.636   0.291  1.00  0.00    -0.179 N 
HETATM    2  C   UNL     1      40.965 -12.276   0.289  1.00  0.00     0.681 A 
HETATM    3  N   UNL     1      41.570 -11.609   1.270  1.00  0.00    -0.234 N 
HETATM    4  H   UNL     1      41.675 -10.612   1.319  1.00  0.00     0.174 HD
HETATM    5  H   UNL     1      41.792 -12.128   2.129  1.00  0.00     0.174 HD
HETATM    6  N   UNL     1      40.496 -11.631  -0.857  1.00  0.00    -0.180 N 
HETATM    7  C   UNL     1      39.827 -12.655  -1.594  1.00  0.00     0.079 A 
HETATM    8  C   UNL     1      39.968 -13.869  -0.904  1.00  0.00     0.079 A 
HETATM    9  C   UNL     1      39.119 -12.566  -2.774  1.00  0.00     0.032 A 
HETATM   10  C   UNL     1      38.538 -13.743  -3.259  1.00  0.00     0.002 A 
HETATM   11  C   UNL     1      38.679 -14.962  -2.567  1.00  0.00     0.002 A 
HETATM   12  C   UNL     1      39.403 -15.035  -1.372  1.00  0.00     0.032 A 
ENDROOT
BRANCH   1  13
HETATM   13  C   UNL     1      41.063 -14.712   1.259  1.00  0.00     0.181 C 
BRANCH  13  14
HETATM   14  C   UNL     1      40.340 -14.666   2.612  1.00  0.00     0.161 C 
BRANCH  14  15
HETATM   15  C   UNL     1      41.221 -15.220   3.744  1.00  0.00     0.209 C 
BRANCH  15  16
HETATM   16  O   UNL     1      42.452 -15.611   3.124  1.00  0.00    -0.349 OA
BRANCH  16  17
HETATM   17  C   UNL     1      42.952 -16.841   3.450  1.00  0.00     0.069 A 
HETATM   18  C   UNL     1      43.383 -16.962   4.772  1.00  0.00     0.038 A 
HETATM   19  C   UNL     1      43.916 -18.166   5.235  1.00  0.00     0.027 A 
HETATM   20  C   UNL     1      44.028 -19.257   4.373  1.00  0.00     0.040 A 
HETATM   21  C   UNL     1      43.607 -19.154   3.039  1.00  0.00    -0.038 A 
HETATM   22 CL   UNL     1      44.704 -20.715   5.002  1.00  0.00    -0.084 Cl
HETATM   23  C   UNL     1      43.736 -20.308   2.081  1.00  0.00     0.050 C 
HETATM   24  C   UNL     1      43.072 -17.932   2.586  1.00  0.00     0.045 A 
ENDBRANCH  16  17
ENDBRANCH  15  16
ENDBRANCH  14  15
BRANCH  14  25
HETATM   25  O   UNL     1      39.130 -15.450   2.537  1.00  0.00    -0.392 OA
HETATM   26  H   UNL     1      39.254 -16.042   1.757  1.00  0.00     0.210 HD
ENDBRANCH  14  25
ENDBRANCH  13  14
ENDBRANCH   1  13
BRANCH   6  27
HETATM   27  C   UNL     1      40.516 -10.200  -1.179  1.00  0.00     0.175 C 
BRANCH  27  28
HETATM   28  C   UNL     1      39.218  -9.476  -0.761  1.00  0.00     0.256 C 
BRANCH  28  29
HETATM   29  N   UNL     1      39.194  -9.108   0.710  1.00  0.00    -0.066 N 
HETATM   30  H   UNL     1      40.140  -9.187   1.110  1.00  0.00     0.280 HD
HETATM   31  C   UNL     1      38.780  -7.633   0.902  1.00  0.00     0.261 C 
HETATM   32  C   UNL     1      38.778  -7.286   2.394  1.00  0.00     0.195 C 
HETATM   33  O   UNL     1      37.891  -8.151   3.109  1.00  0.00    -0.388 OA
HETATM   34  C   UNL     1      38.287  -9.520   3.017  1.00  0.00     0.195 C 
HETATM   35  C   UNL     1      38.268  -9.993   1.558  1.00  0.00     0.261 C 
ENDBRANCH  28  29
ENDBRANCH  27  28
ENDBRANCH   6  27
TORSDOF 9
ENDMDL
MODEL 9
REMARK VINA RESULT:      -7.4      3.268      6.707
REMARK  9 active torsions:
REMARK  status: ('A' for Active; 'I' for Inactive)
REMARK    1  A    between atoms: C_7  and  O_8 
REMARK    2  A    between atoms: O_8  and  C_9 
REMARK    3  A    between atoms: C_9  and  C_10 
REMARK    4  A    between atoms: C_10  and  O_11 
REMARK    5  A    between atoms: C_10  and  C_12 
REMARK    6  A    between atoms: C_12  and  N_13 
REMARK    7  A    between atoms: N_18  and  C_19 
REMARK    8  A    between atoms: C_19  and  C_20 
REMARK    9  A    between atoms: C_20  and  N_21 
ROOT
HETATM    1  N   UNL     1      41.058 -15.951   3.157  1.00  0.00    -0.179 N 
HETATM    2  C   UNL     1      40.901 -15.327   4.380  1.00  0.00     0.681 A 
HETATM    3  N   UNL     1      40.049 -14.332   4.625  1.00  0.00    -0.234 N 
HETATM    4  H   UNL     1      39.989 -13.814   5.482  1.00  0.00     0.174 HD
HETATM    5  H   UNL     1      39.536 -13.942   3.825  1.00  0.00     0.174 HD
HETATM    6  N   UNL     1      41.748 -15.829   5.371  1.00  0.00    -0.180 N 
HETATM    7  C   UNL     1      42.561 -16.787   4.693  1.00  0.00     0.079 A 
HETATM    8  C   UNL     1      42.140 -16.866   3.357  1.00  0.00     0.079 A 
HETATM    9  C   UNL     1      43.615 -17.537   5.170  1.00  0.00     0.032 A 
HETATM   10  C   UNL     1      44.255 -18.386   4.262  1.00  0.00     0.002 A 
HETATM   11  C   UNL     1      43.834 -18.467   2.920  1.00  0.00     0.002 A 
HETATM   12  C   UNL     1      42.762 -17.700   2.452  1.00  0.00     0.032 A 
ENDROOT
BRANCH   1  13
HETATM   13  C   UNL     1      40.365 -15.782   1.853  1.00  0.00     0.181 C 
BRANCH  13  14
HETATM   14  C   UNL     1      40.702 -14.511   1.063  1.00  0.00     0.161 C 
BRANCH  14  15
HETATM   15  C   UNL     1      39.959 -14.467  -0.284  1.00  0.00     0.209 C 
BRANCH  15  16
HETATM   16  O   UNL     1      39.230 -13.235  -0.287  1.00  0.00    -0.349 OA
BRANCH  16  17
HETATM   17  C   UNL     1      39.704 -12.230  -1.085  1.00  0.00     0.069 A 
HETATM   18  C   UNL     1      39.123 -12.171  -2.352  1.00  0.00     0.038 A 
HETATM   19  C   UNL     1      39.518 -11.193  -3.266  1.00  0.00     0.027 A 
HETATM   20  C   UNL     1      40.504 -10.270  -2.919  1.00  0.00     0.040 A 
HETATM   21  C   UNL     1      41.106 -10.316  -1.652  1.00  0.00    -0.038 A 
HETATM   22 CL   UNL     1      40.955  -9.091  -4.095  1.00  0.00    -0.084 Cl
HETATM   23  C   UNL     1      42.187  -9.348  -1.258  1.00  0.00     0.050 C 
HETATM   24  C   UNL     1      40.697 -11.310  -0.741  1.00  0.00     0.045 A 
ENDBRANCH  16  17
ENDBRANCH  15  16
ENDBRANCH  14  15
BRANCH  14  25
HETATM   25  O   UNL     1      42.122 -14.463   0.813  1.00  0.00    -0.392 OA
HETATM   26  H   UNL     1      42.220 -13.945  -0.023  1.00  0.00     0.210 HD
ENDBRANCH  14  25
ENDBRANCH  13  14
ENDBRANCH   1  13
BRANCH   6  27
HETATM   27  C   UNL     1      41.910 -15.376   6.757  1.00  0.00     0.175 C 
BRANCH  27  28
HETATM   28  C   UNL     1      43.181 -14.524   6.962  1.00  0.00     0.256 C 
BRANCH  28  29
HETATM   29  N   UNL     1      42.983 -13.067   6.590  1.00  0.00    -0.066 N 
HETATM   30  H   UNL     1      42.004 -12.791   6.755  1.00  0.00     0.280 HD
HETATM   31  C   UNL     1      43.835 -12.148   7.491  1.00  0.00     0.261 C 
HETATM   32  C   UNL     1      43.605 -10.684   7.103  1.00  0.00     0.195 C 
HETATM   33  O   UNL     1      43.928 -10.474   5.725  1.00  0.00    -0.388 OA
HETATM   34  C   UNL     1      43.105 -11.253   4.856  1.00  0.00     0.195 C 
HETATM   35  C   UNL     1      43.303 -12.751   5.121  1.00  0.00     0.261 C 
ENDBRANCH  28  29
ENDBRANCH  27  28
ENDBRANCH   6  27
TORSDOF 9
ENDMDL
MODEL 10
REMARK VINA RESULT:      -7.4      4.093      8.666
REMARK  9 active torsions:
REMARK  status: ('A' for Active; 'I' for Inactive)
REMARK    1  A    between atoms: C_7  and  O_8 
REMARK    2  A    between atoms: O_8  and  C_9 
REMARK    3  A    between atoms: C_9  and  C_10 
REMARK    4  A    between atoms: C_10  and  O_11 
REMARK    5  A    between atoms: C_10  and  C_12 
REMARK    6  A    between atoms: C_12  and  N_13 
REMARK    7  A    between atoms: N_18  and  C_19 
REMARK    8  A    between atoms: C_19  and  C_20 
REMARK    9  A    between atoms: C_20  and  N_21 
ROOT
HETATM    1  N   UNL     1      43.176 -11.321   6.367  1.00  0.00    -0.179 N 
HETATM    2  C   UNL     1      42.014 -10.643   6.682  1.00  0.00     0.681 A 
HETATM    3  N   UNL     1      40.813 -10.912   6.171  1.00  0.00    -0.234 N 
HETATM    4  H   UNL     1      39.981 -10.372   6.323  1.00  0.00     0.174 HD
HETATM    5  H   UNL     1      40.764 -11.615   5.423  1.00  0.00     0.174 HD
HETATM    6  N   UNL     1      42.208  -9.607   7.597  1.00  0.00    -0.180 N 
HETATM    7  C   UNL     1      43.619  -9.578   7.809  1.00  0.00     0.079 A 
HETATM    8  C   UNL     1      44.205 -10.619   7.072  1.00  0.00     0.079 A 
HETATM    9  C   UNL     1      44.375  -8.708   8.567  1.00  0.00     0.032 A 
HETATM   10  C   UNL     1      45.760  -8.903   8.570  1.00  0.00     0.002 A 
HETATM   11  C   UNL     1      46.349  -9.947   7.830  1.00  0.00     0.002 A 
HETATM   12  C   UNL     1      45.567 -10.822   7.068  1.00  0.00     0.032 A 
ENDROOT
BRANCH   1  13
HETATM   13  C   UNL     1      43.445 -12.492   5.491  1.00  0.00     0.181 C 
BRANCH  13  14
HETATM   14  C   UNL     1      43.264 -12.270   3.984  1.00  0.00     0.161 C 
BRANCH  14  15
HETATM   15  C   UNL     1      43.214 -13.602   3.217  1.00  0.00     0.209 C 
BRANCH  15  16
HETATM   16  O   UNL     1      42.477 -14.504   4.049  1.00  0.00    -0.349 OA
BRANCH  16  17
HETATM   17  C   UNL     1      42.913 -15.799   4.107  1.00  0.00     0.069 A 
HETATM   18  C   UNL     1      43.495 -16.163   5.321  1.00  0.00     0.038 A 
HETATM   19  C   UNL     1      43.983 -17.456   5.512  1.00  0.00     0.027 A 
HETATM   20  C   UNL     1      43.897 -18.394   4.483  1.00  0.00     0.040 A 
HETATM   21  C   UNL     1      43.321 -18.047   3.252  1.00  0.00    -0.038 A 
HETATM   22 CL   UNL     1      44.526 -19.974   4.777  1.00  0.00    -0.084 Cl
HETATM   23  C   UNL     1      43.235 -19.031   2.117  1.00  0.00     0.050 C 
HETATM   24  C   UNL     1      42.834 -16.737   3.074  1.00  0.00     0.045 A 
ENDBRANCH  16  17
ENDBRANCH  15  16
ENDBRANCH  14  15
BRANCH  14  25
HETATM   25  O   UNL     1      44.363 -11.483   3.479  1.00  0.00    -0.392 OA
HETATM   26  H   UNL     1      44.957 -11.341   4.255  1.00  0.00     0.210 HD
ENDBRANCH  14  25
ENDBRANCH  13  14
ENDBRANCH   1  13
BRANCH   6  27
HETATM   27  C   UNL     1      41.231  -8.639   8.109  1.00  0.00     0.175 C 
BRANCH  27  28
HETATM   28  C   UNL     1      40.334  -9.227   9.219  1.00  0.00     0.256 C 
BRANCH  28  29
HETATM   29  N   UNL     1      40.260  -8.343  10.450  1.00  0.00    -0.066 N 
HETATM   30  H   UNL     1      39.505  -7.650  10.342  1.00  0.00     0.280 HD
HETATM   31  C   UNL     1      39.892  -9.171  11.700  1.00  0.00     0.261 C 
HETATM   32  C   UNL     1      39.811  -8.252  12.923  1.00  0.00     0.195 C 
HETATM   33  O   UNL     1      41.052  -7.569  13.122  1.00  0.00    -0.388 OA
HETATM   34  C   UNL     1      41.387  -6.733  12.014  1.00  0.00     0.195 C 
HETATM   35  C   UNL     1      41.553  -7.566  10.736  1.00  0.00     0.261 C 
ENDBRANCH  28  29
ENDBRANCH  27  28
ENDBRANCH   6  27
TORSDOF 9
ENDMDL
