MODEL 1
REMARK VINA RESULT:      -8.0      0.000      0.000
REMARK  3 active torsions:
REMARK  status: ('A' for Active; 'I' for Inactive)
REMARK    1  A    between atoms: C_4  and  N_5 
REMARK       I    between atoms: N_5  and  C_6 
REMARK    2  A    between atoms: C_6  and  C_7 
REMARK    3  A    between atoms: C_7  and  C_8 
ROOT
HETATM    1  C   UNL     1      41.643 -15.174   4.849  1.00  0.00     0.286 C 
HETATM    2  N   UNL     1      41.478 -15.548   3.376  1.00  0.00    -0.056 N 
HETATM    3  H   UNL     1      42.378 -15.983   3.080  1.00  0.00     0.278 HD
HETATM    4  H   UNL     1      40.760 -16.274   3.267  1.00  0.00     0.278 HD
HETATM    5  C   UNL     1      41.170 -14.333   2.557  1.00  0.00     0.209 C 
HETATM    6  C   UNL     1      39.831 -13.743   3.059  1.00  0.00     0.115 C 
HETATM    7  N   UNL     1      39.827 -13.516   4.502  1.00  0.00    -0.353 N 
HETATM    8  C   UNL     1      40.420 -14.400   5.384  1.00  0.00     0.249 C 
HETATM    9  O   UNL     1      40.025 -14.481   6.540  1.00  0.00    -0.271 OA
HETATM   10  C   UNL     1      41.092 -14.687   1.079  1.00  0.00     0.035 C 
HETATM   11  C   UNL     1      40.742 -13.438   0.265  1.00  0.00     0.002 C 
HETATM   12  C   UNL     1      39.469 -12.752   0.770  1.00  0.00     0.002 C 
HETATM   13  C   UNL     1      39.504 -12.472   2.275  1.00  0.00     0.027 C 
HETATM   14  H   UNL     1      39.013 -13.055   4.906  1.00  0.00     0.163 HD
ENDROOT
BRANCH   1  15
HETATM   15  C   UNL     1      41.962 -16.405   5.704  1.00  0.00     0.146 C 
BRANCH  15  16
HETATM   16  C   UNL     1      43.443 -16.461   5.981  1.00  0.00     0.224 C 
HETATM   17  N   UNL     1      44.246 -17.426   5.466  1.00  0.00    -0.327 N 
HETATM   18  H   UNL     1      45.180 -17.397   5.867  1.00  0.00     0.169 HD
HETATM   19  O   UNL     1      43.938 -15.597   6.718  1.00  0.00    -0.273 OA
BRANCH  17  20
HETATM   20  C   UNL     1      44.035 -18.463   4.538  1.00  0.00     0.034 A 
HETATM   21  C   UNL     1      43.783 -18.287   3.177  1.00  0.00     0.029 A 
HETATM   22  C   UNL     1      43.584 -19.394   2.344  1.00  0.00     0.002 A 
HETATM   23  C   UNL     1      43.647 -20.686   2.860  1.00  0.00     0.000 A 
HETATM   24  C   UNL     1      43.926 -20.875   4.208  1.00  0.00     0.002 A 
HETATM   25  C   UNL     1      44.129 -19.770   5.039  1.00  0.00     0.029 A 
ENDBRANCH  17  20
ENDBRANCH  15  16
ENDBRANCH   1  15
TORSDOF 3
ENDMDL
MODEL 2
REMARK VINA RESULT:      -7.9      1.133      5.765
REMARK  3 active torsions:
REMARK  status: ('A' for Active; 'I' for Inactive)
REMARK    1  A    between atoms: C_4  and  N_5 
REMARK       I    between atoms: N_5  and  C_6 
REMARK    2  A    between atoms: C_6  and  C_7 
REMARK    3  A    between atoms: C_7  and  C_8 
ROOT
HETATM    1  C   UNL     1      41.992 -15.628   5.565  1.00  0.00     0.286 C 
HETATM    2  N   UNL     1      42.761 -16.045   4.312  1.00  0.00    -0.056 N 
HETATM    3  H   UNL     1      42.217 -15.687   3.499  1.00  0.00     0.278 HD
HETATM    4  H   UNL     1      43.673 -15.573   4.276  1.00  0.00     0.278 HD
HETATM    5  C   UNL     1      42.903 -17.535   4.255  1.00  0.00     0.209 C 
HETATM    6  C   UNL     1      43.712 -17.988   5.492  1.00  0.00     0.115 C 
HETATM    7  N   UNL     1      43.150 -17.483   6.743  1.00  0.00    -0.353 N 
HETATM    8  C   UNL     1      42.626 -16.208   6.847  1.00  0.00     0.249 C 
HETATM    9  O   UNL     1      42.609 -15.631   7.927  1.00  0.00    -0.271 OA
HETATM   10  C   UNL     1      43.592 -17.959   2.965  1.00  0.00     0.035 C 
HETATM   11  C   UNL     1      43.757 -19.481   2.943  1.00  0.00     0.002 C 
HETATM   12  C   UNL     1      44.475 -20.007   4.189  1.00  0.00     0.002 C 
HETATM   13  C   UNL     1      43.840 -19.512   5.492  1.00  0.00     0.027 C 
HETATM   14  H   UNL     1      43.574 -17.799   7.614  1.00  0.00     0.163 HD
ENDROOT
BRANCH   1  15
HETATM   15  C   UNL     1      41.834 -14.106   5.641  1.00  0.00     0.146 C 
BRANCH  15  16
HETATM   16  C   UNL     1      40.375 -13.740   5.532  1.00  0.00     0.224 C 
HETATM   17  N   UNL     1      39.733 -13.647   4.340  1.00  0.00    -0.327 N 
HETATM   18  H   UNL     1      38.801 -13.253   4.441  1.00  0.00     0.169 HD
HETATM   19  O   UNL     1      39.746 -13.506   6.574  1.00  0.00    -0.273 OA
BRANCH  17  20
HETATM   20  C   UNL     1      40.110 -13.940   3.016  1.00  0.00     0.034 A 
HETATM   21  C   UNL     1      40.833 -13.091   2.178  1.00  0.00     0.029 A 
HETATM   22  C   UNL     1      41.151 -13.486   0.873  1.00  0.00     0.002 A 
HETATM   23  C   UNL     1      40.760 -14.735   0.398  1.00  0.00     0.000 A 
HETATM   24  C   UNL     1      40.064 -15.600   1.233  1.00  0.00     0.002 A 
HETATM   25  C   UNL     1      39.750 -15.208   2.537  1.00  0.00     0.029 A 
ENDBRANCH  17  20
ENDBRANCH  15  16
ENDBRANCH   1  15
TORSDOF 3
ENDMDL
MODEL 3
REMARK VINA RESULT:      -7.8      2.643      4.040
REMARK  3 active torsions:
REMARK  status: ('A' for Active; 'I' for Inactive)
REMARK    1  A    between atoms: C_4  and  N_5 
REMARK       I    between atoms: N_5  and  C_6 
REMARK    2  A    between atoms: C_6  and  C_7 
REMARK    3  A    between atoms: C_7  and  C_8 
ROOT
HETATM    1  C   UNL     1      40.021 -13.371   2.161  1.00  0.00     0.286 C 
HETATM    2  N   UNL     1      40.679 -12.674   0.971  1.00  0.00    -0.056 N 
HETATM    3  H   UNL     1      40.677 -11.655   1.188  1.00  0.00     0.278 HD
HETATM    4  H   UNL     1      41.666 -12.948   0.894  1.00  0.00     0.278 HD
HETATM    5  C   UNL     1      39.923 -12.960  -0.290  1.00  0.00     0.209 C 
HETATM    6  C   UNL     1      39.965 -14.486  -0.539  1.00  0.00     0.115 C 
HETATM    7  N   UNL     1      39.519 -15.254   0.621  1.00  0.00    -0.353 N 
HETATM    8  C   UNL     1      39.843 -14.884   1.912  1.00  0.00     0.249 C 
HETATM    9  O   UNL     1      39.900 -15.723   2.802  1.00  0.00    -0.271 OA
HETATM   10  C   UNL     1      40.524 -12.197  -1.461  1.00  0.00     0.035 C 
HETATM   11  C   UNL     1      39.758 -12.531  -2.744  1.00  0.00     0.002 C 
HETATM   12  C   UNL     1      39.685 -14.038  -3.004  1.00  0.00     0.002 C 
HETATM   13  C   UNL     1      39.164 -14.823  -1.797  1.00  0.00     0.027 C 
HETATM   14  H   UNL     1      39.439 -16.265   0.517  1.00  0.00     0.163 HD
ENDROOT
BRANCH   1  15
HETATM   15  C   UNL     1      40.780 -13.089   3.462  1.00  0.00     0.146 C 
BRANCH  15  16
HETATM   16  C   UNL     1      42.205 -12.711   3.147  1.00  0.00     0.224 C 
HETATM   17  N   UNL     1      43.206 -13.626   3.082  1.00  0.00    -0.327 N 
HETATM   18  H   UNL     1      44.119 -13.185   3.003  1.00  0.00     0.169 HD
HETATM   19  O   UNL     1      42.470 -11.516   2.952  1.00  0.00    -0.273 OA
BRANCH  17  20
HETATM   20  C   UNL     1      43.233 -15.032   3.145  1.00  0.00     0.034 A 
HETATM   21  C   UNL     1      43.178 -15.787   4.317  1.00  0.00     0.029 A 
HETATM   22  C   UNL     1      43.216 -17.185   4.263  1.00  0.00     0.002 A 
HETATM   23  C   UNL     1      43.296 -17.841   3.037  1.00  0.00     0.000 A 
HETATM   24  C   UNL     1      43.322 -17.101   1.861  1.00  0.00     0.002 A 
HETATM   25  C   UNL     1      43.280 -15.705   1.916  1.00  0.00     0.029 A 
ENDBRANCH  17  20
ENDBRANCH  15  16
ENDBRANCH   1  15
TORSDOF 3
ENDMDL
MODEL 4
REMARK VINA RESULT:      -7.8      2.522      6.817
REMARK  3 active torsions:
REMARK  status: ('A' for Active; 'I' for Inactive)
REMARK    1  A    between atoms: C_4  and  N_5 
REMARK       I    between atoms: N_5  and  C_6 
REMARK    2  A    between atoms: C_6  and  C_7 
REMARK    3  A    between atoms: C_7  and  C_8 
ROOT
HETATM    1  C   UNL     1      40.529 -15.360   2.771  1.00  0.00     0.286 C 
HETATM    2  N   UNL     1      41.658 -16.094   2.049  1.00  0.00    -0.056 N 
HETATM    3  H   UNL     1      41.243 -16.488   1.178  1.00  0.00     0.278 HD
HETATM    4  H   UNL     1      42.382 -15.432   1.746  1.00  0.00     0.278 HD
HETATM    5  C   UNL     1      42.222 -17.176   2.918  1.00  0.00     0.209 C 
HETATM    6  C   UNL     1      42.809 -16.516   4.187  1.00  0.00     0.115 C 
HETATM    7  N   UNL     1      41.848 -15.641   4.857  1.00  0.00    -0.353 N 
HETATM    8  C   UNL     1      40.978 -14.833   4.150  1.00  0.00     0.249 C 
HETATM    9  O   UNL     1      40.545 -13.803   4.651  1.00  0.00    -0.271 OA
HETATM   10  C   UNL     1      43.286 -17.966   2.170  1.00  0.00     0.035 C 
HETATM   11  C   UNL     1      43.872 -19.042   3.087  1.00  0.00     0.002 C 
HETATM   12  C   UNL     1      44.392 -18.464   4.405  1.00  0.00     0.002 C 
HETATM   13  C   UNL     1      43.355 -17.595   5.122  1.00  0.00     0.027 C 
HETATM   14  H   UNL     1      42.125 -15.228   5.746  1.00  0.00     0.163 HD
ENDROOT
BRANCH   1  15
HETATM   15  C   UNL     1      39.937 -14.250   1.897  1.00  0.00     0.146 C 
BRANCH  15  16
HETATM   16  C   UNL     1      41.022 -13.639   1.047  1.00  0.00     0.224 C 
HETATM   17  N   UNL     1      40.859 -13.384  -0.276  1.00  0.00    -0.327 N 
HETATM   18  H   UNL     1      41.730 -13.109  -0.720  1.00  0.00     0.169 HD
HETATM   19  O   UNL     1      42.109 -13.372   1.581  1.00  0.00    -0.273 OA
BRANCH  17  20
HETATM   20  C   UNL     1      39.754 -13.465  -1.143  1.00  0.00     0.034 A 
HETATM   21  C   UNL     1      38.662 -12.597  -1.141  1.00  0.00     0.029 A 
HETATM   22  C   UNL     1      37.612 -12.774  -2.051  1.00  0.00     0.002 A 
HETATM   23  C   UNL     1      37.650 -13.812  -2.977  1.00  0.00     0.000 A 
HETATM   24  C   UNL     1      38.745 -14.666  -3.009  1.00  0.00     0.002 A 
HETATM   25  C   UNL     1      39.795 -14.487  -2.103  1.00  0.00     0.029 A 
ENDBRANCH  17  20
ENDBRANCH  15  16
ENDBRANCH   1  15
TORSDOF 3
ENDMDL
MODEL 5
REMARK VINA RESULT:      -7.7      2.606      3.818
REMARK  3 active torsions:
REMARK  status: ('A' for Active; 'I' for Inactive)
REMARK    1  A    between atoms: C_4  and  N_5 
REMARK       I    between atoms: N_5  and  C_6 
REMARK    2  A    between atoms: C_6  and  C_7 
REMARK    3  A    between atoms: C_7  and  C_8 
ROOT
HETATM    1  C   UNL     1      41.275 -15.006   4.390  1.00  0.00     0.286 C 
HETATM    2  N   UNL     1      42.688 -14.626   4.832  1.00  0.00    -0.056 N 
HETATM    3  H   UNL     1      43.116 -15.491   5.224  1.00  0.00     0.278 HD
HETATM    4  H   UNL     1      43.261 -14.365   4.021  1.00  0.00     0.278 HD
HETATM    5  C   UNL     1      42.641 -13.532   5.855  1.00  0.00     0.209 C 
HETATM    6  C   UNL     1      41.989 -12.292   5.202  1.00  0.00     0.115 C 
HETATM    7  N   UNL     1      40.700 -12.598   4.586  1.00  0.00    -0.353 N 
HETATM    8  C   UNL     1      40.477 -13.778   3.902  1.00  0.00     0.249 C 
HETATM    9  O   UNL     1      39.631 -13.833   3.019  1.00  0.00    -0.271 OA
HETATM   10  C   UNL     1      44.040 -13.212   6.362  1.00  0.00     0.035 C 
HETATM   11  C   UNL     1      43.973 -12.070   7.379  1.00  0.00     0.002 C 
HETATM   12  C   UNL     1      43.256 -10.837   6.824  1.00  0.00     0.002 C 
HETATM   13  C   UNL     1      41.883 -11.166   6.232  1.00  0.00     0.027 C 
HETATM   14  H   UNL     1      40.162 -11.821   4.202  1.00  0.00     0.163 HD
ENDROOT
BRANCH   1  15
HETATM   15  C   UNL     1      41.301 -16.125   3.344  1.00  0.00     0.146 C 
BRANCH  15  16
HETATM   16  C   UNL     1      42.517 -15.973   2.466  1.00  0.00     0.224 C 
HETATM   17  N   UNL     1      43.515 -16.892   2.433  1.00  0.00    -0.327 N 
HETATM   18  H   UNL     1      44.317 -16.564   1.902  1.00  0.00     0.169 HD
HETATM   19  O   UNL     1      42.610 -14.960   1.757  1.00  0.00    -0.273 OA
BRANCH  17  20
HETATM   20  C   UNL     1      43.673 -18.165   3.013  1.00  0.00     0.034 A 
HETATM   21  C   UNL     1      44.075 -18.407   4.327  1.00  0.00     0.029 A 
HETATM   22  C   UNL     1      44.203 -19.719   4.799  1.00  0.00     0.002 A 
HETATM   23  C   UNL     1      43.917 -20.799   3.968  1.00  0.00     0.000 A 
HETATM   24  C   UNL     1      43.487 -20.570   2.666  1.00  0.00     0.002 A 
HETATM   25  C   UNL     1      43.357 -19.260   2.196  1.00  0.00     0.029 A 
ENDBRANCH  17  20
ENDBRANCH  15  16
ENDBRANCH   1  15
TORSDOF 3
ENDMDL
MODEL 6
REMARK VINA RESULT:      -7.4      3.567      6.528
REMARK  3 active torsions:
REMARK  status: ('A' for Active; 'I' for Inactive)
REMARK    1  A    between atoms: C_4  and  N_5 
REMARK       I    between atoms: N_5  and  C_6 
REMARK    2  A    between atoms: C_6  and  C_7 
REMARK    3  A    between atoms: C_7  and  C_8 
ROOT
HETATM    1  C   UNL     1      42.755 -14.150   3.838  1.00  0.00     0.286 C 
HETATM    2  N   UNL     1      43.136 -15.304   4.765  1.00  0.00    -0.056 N 
HETATM    3  H   UNL     1      43.884 -14.942   5.395  1.00  0.00     0.278 HD
HETATM    4  H   UNL     1      42.346 -15.553   5.373  1.00  0.00     0.278 HD
HETATM    5  C   UNL     1      43.618 -16.479   3.972  1.00  0.00     0.209 C 
HETATM    6  C   UNL     1      42.461 -16.952   3.062  1.00  0.00     0.115 C 
HETATM    7  N   UNL     1      41.904 -15.866   2.257  1.00  0.00    -0.353 N 
HETATM    8  C   UNL     1      41.740 -14.591   2.763  1.00  0.00     0.249 C 
HETATM    9  O   UNL     1      40.880 -13.849   2.306  1.00  0.00    -0.271 OA
HETATM   10  C   UNL     1      44.081 -17.597   4.894  1.00  0.00     0.035 C 
HETATM   11  C   UNL     1      44.537 -18.799   4.063  1.00  0.00     0.002 C 
HETATM   12  C   UNL     1      43.465 -19.264   3.074  1.00  0.00     0.002 C 
HETATM   13  C   UNL     1      42.931 -18.125   2.201  1.00  0.00     0.027 C 
HETATM   14  H   UNL     1      41.190 -16.105   1.570  1.00  0.00     0.163 HD
ENDROOT
BRANCH   1  15
HETATM   15  C   UNL     1      42.261 -12.937   4.632  1.00  0.00     0.146 C 
BRANCH  15  16
HETATM   16  C   UNL     1      41.986 -13.341   6.059  1.00  0.00     0.224 C 
HETATM   17  N   UNL     1      42.756 -12.926   7.097  1.00  0.00    -0.327 N 
HETATM   18  H   UNL     1      42.518 -13.405   7.962  1.00  0.00     0.169 HD
HETATM   19  O   UNL     1      41.025 -14.090   6.285  1.00  0.00    -0.273 OA
BRANCH  17  20
HETATM   20  C   UNL     1      43.825 -12.017   7.201  1.00  0.00     0.034 A 
HETATM   21  C   UNL     1      45.061 -12.150   6.568  1.00  0.00     0.029 A 
HETATM   22  C   UNL     1      46.057 -11.182   6.746  1.00  0.00     0.002 A 
HETATM   23  C   UNL     1      45.823 -10.068   7.548  1.00  0.00     0.000 A 
HETATM   24  C   UNL     1      44.586  -9.910   8.161  1.00  0.00     0.002 A 
HETATM   25  C   UNL     1      43.591 -10.874   7.980  1.00  0.00     0.029 A 
ENDBRANCH  17  20
ENDBRANCH  15  16
ENDBRANCH   1  15
TORSDOF 3
ENDMDL
MODEL 7
REMARK VINA RESULT:      -7.3      2.559      6.297
REMARK  3 active torsions:
REMARK  status: ('A' for Active; 'I' for Inactive)
REMARK    1  A    between atoms: C_4  and  N_5 
REMARK       I    between atoms: N_5  and  C_6 
REMARK    2  A    between atoms: C_6  and  C_7 
REMARK    3  A    between atoms: C_7  and  C_8 
ROOT
HETATM    1  C   UNL     1      40.444 -15.625   3.061  1.00  0.00     0.286 C 
HETATM    2  N   UNL     1      41.531 -16.315   2.239  1.00  0.00    -0.056 N 
HETATM    3  H   UNL     1      41.057 -16.722   1.405  1.00  0.00     0.278 HD
HETATM    4  H   UNL     1      42.202 -15.625   1.878  1.00  0.00     0.278 HD
HETATM    5  C   UNL     1      42.209 -17.377   3.049  1.00  0.00     0.209 C 
HETATM    6  C   UNL     1      42.880 -16.698   4.266  1.00  0.00     0.115 C 
HETATM    7  N   UNL     1      41.950 -15.862   5.022  1.00  0.00    -0.353 N 
HETATM    8  C   UNL     1      40.992 -15.085   4.399  1.00  0.00     0.249 C 
HETATM    9  O   UNL     1      40.566 -14.073   4.941  1.00  0.00    -0.271 OA
HETATM   10  C   UNL     1      43.232 -18.125   2.207  1.00  0.00     0.035 C 
HETATM   11  C   UNL     1      43.935 -19.181   3.063  1.00  0.00     0.002 C 
HETATM   12  C   UNL     1      44.547 -18.587   4.335  1.00  0.00     0.002 C 
HETATM   13  C   UNL     1      43.545 -17.759   5.144  1.00  0.00     0.027 C 
HETATM   14  H   UNL     1      42.288 -15.440   5.886  1.00  0.00     0.163 HD
ENDROOT
BRANCH   1  15
HETATM   15  C   UNL     1      39.737 -14.535   2.248  1.00  0.00     0.146 C 
BRANCH  15  16
HETATM   16  C   UNL     1      40.610 -14.118   1.092  1.00  0.00     0.224 C 
HETATM   17  N   UNL     1      41.498 -13.095   1.178  1.00  0.00    -0.327 N 
HETATM   18  H   UNL     1      41.894 -12.859   0.272  1.00  0.00     0.169 HD
HETATM   19  O   UNL     1      40.499 -14.729   0.019  1.00  0.00    -0.273 OA
BRANCH  17  20
HETATM   20  C   UNL     1      41.936 -12.286   2.243  1.00  0.00     0.034 A 
HETATM   21  C   UNL     1      41.252 -11.181   2.750  1.00  0.00     0.029 A 
HETATM   22  C   UNL     1      41.785 -10.444   3.814  1.00  0.00     0.002 A 
HETATM   23  C   UNL     1      42.999 -10.811   4.389  1.00  0.00     0.000 A 
HETATM   24  C   UNL     1      43.676 -11.927   3.911  1.00  0.00     0.002 A 
HETATM   25  C   UNL     1      43.142 -12.665   2.852  1.00  0.00     0.029 A 
ENDBRANCH  17  20
ENDBRANCH  15  16
ENDBRANCH   1  15
TORSDOF 3
ENDMDL
MODEL 8
REMARK VINA RESULT:      -7.3      2.249      3.261
REMARK  3 active torsions:
REMARK  status: ('A' for Active; 'I' for Inactive)
REMARK    1  A    between atoms: C_4  and  N_5 
REMARK       I    between atoms: N_5  and  C_6 
REMARK    2  A    between atoms: C_6  and  C_7 
REMARK    3  A    between atoms: C_7  and  C_8 
ROOT
HETATM    1  C   UNL     1      42.430 -13.236   2.239  1.00  0.00     0.286 C 
HETATM    2  N   UNL     1      41.283 -14.096   1.711  1.00  0.00    -0.056 N 
HETATM    3  H   UNL     1      41.628 -15.079   1.712  1.00  0.00     0.278 HD
HETATM    4  H   UNL     1      40.487 -14.071   2.360  1.00  0.00     0.278 HD
HETATM    5  C   UNL     1      40.891 -13.660   0.333  1.00  0.00     0.209 C 
HETATM    6  C   UNL     1      40.400 -12.196   0.413  1.00  0.00     0.115 C 
HETATM    7  N   UNL     1      41.365 -11.319   1.073  1.00  0.00    -0.353 N 
HETATM    8  C   UNL     1      42.097 -11.730   2.170  1.00  0.00     0.249 C 
HETATM    9  O   UNL     1      42.511 -10.912   2.981  1.00  0.00    -0.271 OA
HETATM   10  C   UNL     1      39.808 -14.570  -0.230  1.00  0.00     0.035 C 
HETATM   11  C   UNL     1      39.399 -14.087  -1.623  1.00  0.00     0.002 C 
HETATM   12  C   UNL     1      38.985 -12.613  -1.631  1.00  0.00     0.002 C 
HETATM   13  C   UNL     1      40.032 -11.700  -0.985  1.00  0.00     0.027 C 
HETATM   14  H   UNL     1      41.158 -10.322   1.097  1.00  0.00     0.163 HD
ENDROOT
BRANCH   1  15
HETATM   15  C   UNL     1      42.848 -13.667   3.649  1.00  0.00     0.146 C 
BRANCH  15  16
HETATM   16  C   UNL     1      41.702 -14.379   4.323  1.00  0.00     0.224 C 
HETATM   17  N   UNL     1      41.626 -15.732   4.397  1.00  0.00    -0.327 N 
HETATM   18  H   UNL     1      40.725 -16.042   4.754  1.00  0.00     0.169 HD
HETATM   19  O   UNL     1      40.792 -13.697   4.815  1.00  0.00    -0.273 OA
BRANCH  17  20
HETATM   20  C   UNL     1      42.510 -16.769   4.046  1.00  0.00     0.034 A 
HETATM   21  C   UNL     1      43.502 -17.296   4.874  1.00  0.00     0.029 A 
HETATM   22  C   UNL     1      44.331 -18.328   4.418  1.00  0.00     0.002 A 
HETATM   23  C   UNL     1      44.168 -18.851   3.138  1.00  0.00     0.000 A 
HETATM   24  C   UNL     1      43.165 -18.353   2.315  1.00  0.00     0.002 A 
HETATM   25  C   UNL     1      42.336 -17.325   2.771  1.00  0.00     0.029 A 
ENDBRANCH  17  20
ENDBRANCH  15  16
ENDBRANCH   1  15
TORSDOF 3
ENDMDL
MODEL 9
REMARK VINA RESULT:      -7.2     13.689     16.419
REMARK  3 active torsions:
REMARK  status: ('A' for Active; 'I' for Inactive)
REMARK    1  A    between atoms: C_4  and  N_5 
REMARK       I    between atoms: N_5  and  C_6 
REMARK    2  A    between atoms: C_6  and  C_7 
REMARK    3  A    between atoms: C_7  and  C_8 
ROOT
HETATM    1  C   UNL     1      48.672 -29.791   0.589  1.00  0.00     0.286 C 
HETATM    2  N   UNL     1      49.155 -29.240   1.930  1.00  0.00    -0.056 N 
HETATM    3  H   UNL     1      49.860 -28.506   1.709  1.00  0.00     0.278 HD
HETATM    4  H   UNL     1      48.389 -28.762   2.420  1.00  0.00     0.278 HD
HETATM    5  C   UNL     1      49.752 -30.332   2.763  1.00  0.00     0.209 C 
HETATM    6  C   UNL     1      48.650 -31.381   3.040  1.00  0.00     0.115 C 
HETATM    7  N   UNL     1      47.997 -31.842   1.817  1.00  0.00    -0.353 N 
HETATM    8  C   UNL     1      47.709 -30.984   0.773  1.00  0.00     0.249 C 
HETATM    9  O   UNL     1      46.785 -31.227   0.008  1.00  0.00    -0.271 OA
HETATM   10  C   UNL     1      50.313 -29.771   4.061  1.00  0.00     0.035 C 
HETATM   11  C   UNL     1      50.887 -30.908   4.911  1.00  0.00     0.002 C 
HETATM   12  C   UNL     1      49.870 -32.028   5.149  1.00  0.00     0.002 C 
HETATM   13  C   UNL     1      49.235 -32.538   3.852  1.00  0.00     0.027 C 
HETATM   14  H   UNL     1      47.314 -32.593   1.900  1.00  0.00     0.163 HD
ENDROOT
BRANCH   1  15
HETATM   15  C   UNL     1      48.058 -28.688  -0.279  1.00  0.00     0.146 C 
BRANCH  15  16
HETATM   16  C   UNL     1      46.821 -28.143   0.390  1.00  0.00     0.224 C 
HETATM   17  N   UNL     1      45.619 -28.080  -0.237  1.00  0.00    -0.327 N 
HETATM   18  H   UNL     1      44.936 -27.558   0.304  1.00  0.00     0.169 HD
HETATM   19  O   UNL     1      46.915 -27.729   1.554  1.00  0.00    -0.273 OA
BRANCH  17  20
HETATM   20  C   UNL     1      45.155 -28.546  -1.481  1.00  0.00     0.034 A 
HETATM   21  C   UNL     1      44.371 -29.685  -1.674  1.00  0.00     0.029 A 
HETATM   22  C   UNL     1      43.968 -30.059  -2.961  1.00  0.00     0.002 A 
HETATM   23  C   UNL     1      44.332 -29.293  -4.065  1.00  0.00     0.000 A 
HETATM   24  C   UNL     1      45.088 -28.141  -3.883  1.00  0.00     0.002 A 
HETATM   25  C   UNL     1      45.488 -27.766  -2.598  1.00  0.00     0.029 A 
ENDBRANCH  17  20
ENDBRANCH  15  16
ENDBRANCH   1  15
TORSDOF 3
ENDMDL
MODEL 10
REMARK VINA RESULT:      -7.2      3.759      5.627
REMARK  3 active torsions:
REMARK  status: ('A' for Active; 'I' for Inactive)
REMARK    1  A    between atoms: C_4  and  N_5 
REMARK       I    between atoms: N_5  and  C_6 
REMARK    2  A    between atoms: C_6  and  C_7 
REMARK    3  A    between atoms: C_7  and  C_8 
ROOT
HETATM    1  C   UNL     1      41.785 -11.673   4.814  1.00  0.00     0.286 C 
HETATM    2  N   UNL     1      42.032 -11.722   6.321  1.00  0.00    -0.056 N 
HETATM    3  H   UNL     1      41.211 -11.263   6.769  1.00  0.00     0.278 HD
HETATM    4  H   UNL     1      42.033 -12.694   6.654  1.00  0.00     0.278 HD
HETATM    5  C   UNL     1      43.305 -11.014   6.669  1.00  0.00     0.209 C 
HETATM    6  C   UNL     1      44.470 -11.746   5.964  1.00  0.00     0.115 C 
HETATM    7  N   UNL     1      44.241 -11.909   4.530  1.00  0.00    -0.353 N 
HETATM    8  C   UNL     1      42.994 -12.209   4.018  1.00  0.00     0.249 C 
HETATM    9  O   UNL     1      42.887 -12.798   2.950  1.00  0.00    -0.271 OA
HETATM   10  C   UNL     1      43.509 -10.985   8.177  1.00  0.00     0.035 C 
HETATM   11  C   UNL     1      44.831 -10.287   8.507  1.00  0.00     0.002 C 
HETATM   12  C   UNL     1      46.019 -10.910   7.769  1.00  0.00     0.002 C 
HETATM   13  C   UNL     1      45.785 -11.023   6.259  1.00  0.00     0.027 C 
HETATM   14  H   UNL     1      44.995 -12.310   3.973  1.00  0.00     0.163 HD
ENDROOT
BRANCH   1  15
HETATM   15  C   UNL     1      40.485 -12.391   4.438  1.00  0.00     0.146 C 
BRANCH  15  16
HETATM   16  C   UNL     1      40.134 -13.397   5.505  1.00  0.00     0.224 C 
HETATM   17  N   UNL     1      40.425 -14.717   5.390  1.00  0.00    -0.327 N 
HETATM   18  H   UNL     1      39.992 -15.268   6.127  1.00  0.00     0.169 HD
HETATM   19  O   UNL     1      39.545 -12.998   6.520  1.00  0.00    -0.273 OA
BRANCH  17  20
HETATM   20  C   UNL     1      41.155 -15.465   4.447  1.00  0.00     0.034 A 
HETATM   21  C   UNL     1      40.679 -15.878   3.203  1.00  0.00     0.029 A 
HETATM   22  C   UNL     1      41.494 -16.624   2.343  1.00  0.00     0.002 A 
HETATM   23  C   UNL     1      42.796 -16.951   2.713  1.00  0.00     0.000 A 
HETATM   24  C   UNL     1      43.292 -16.520   3.937  1.00  0.00     0.002 A 
HETATM   25  C   UNL     1      42.479 -15.773   4.794  1.00  0.00     0.029 A 
ENDBRANCH  17  20
ENDBRANCH  15  16
ENDBRANCH   1  15
TORSDOF 3
ENDMDL
