MODEL 1
REMARK VINA RESULT:      -8.2      0.000      0.000
REMARK  9 active torsions:
REMARK  status: ('A' for Active; 'I' for Inactive)
REMARK    1  A    between atoms: C_2  and  C_3 
REMARK    2  A    between atoms: C_3  and  O_4 
REMARK    3  A    between atoms: O_4  and  C_5 
REMARK    4  A    between atoms: C_8  and  C_9 
REMARK    5  A    between atoms: N_11  and  C_12 
REMARK    6  A    between atoms: C_19  and  C_20 
REMARK    7  A    between atoms: C_20  and  S_21 
REMARK    8  A    between atoms: S_21  and  C_22 
REMARK    9  A    between atoms: C_22  and  N_23 
ROOT
HETATM    1  C   UNL     1      42.727 -14.830   4.253  1.00  0.00     0.096 C 
HETATM    2  N   UNL     1      43.441 -15.961   4.295  1.00  0.00    -0.167 NA
HETATM    3  N   UNL     1      42.765 -16.868   3.556  1.00  0.00    -0.244 N 
HETATM    4  C   UNL     1      41.727 -16.263   2.884  1.00  0.00     0.129 C 
HETATM    5  C   UNL     1      41.684 -14.940   3.281  1.00  0.00     0.001 C 
ENDROOT
BRANCH   1   6
HETATM    6  C   UNL     1      43.162 -13.660   5.021  1.00  0.00    -0.005 A 
HETATM    7  C   UNL     1      43.384 -13.773   6.402  1.00  0.00     0.016 A 
HETATM    8  C   UNL     1      43.873 -12.691   7.144  1.00  0.00     0.037 A 
HETATM    9  C   UNL     1      44.147 -11.480   6.515  1.00  0.00     0.068 A 
HETATM   10  C   UNL     1      43.879 -11.346   5.151  1.00  0.00     0.037 A 
HETATM   11  C   UNL     1      43.381 -12.423   4.408  1.00  0.00     0.016 A 
BRANCH   9  12
HETATM   12  O   UNL     1      44.664 -10.363   7.105  1.00  0.00    -0.351 OA
BRANCH  12  13
HETATM   13  C   UNL     1      45.744 -10.547   8.025  1.00  0.00     0.179 C 
BRANCH  13  14
HETATM   14  C   UNL     1      45.663  -9.461   9.108  1.00  0.00     0.002 C 
HETATM   15  C   UNL     1      45.120 -10.032  10.420  1.00  0.00     0.011 C 
HETATM   16  C   UNL     1      44.789  -8.301   8.633  1.00  0.00     0.011 C 
ENDBRANCH  13  14
ENDBRANCH  12  13
ENDBRANCH   9  12
ENDBRANCH   1   6
BRANCH   5  17
HETATM   17  C   UNL     1      40.753 -13.901   2.755  1.00  0.00     0.125 C 
BRANCH  17  18
HETATM   18  S   UNL     1      41.375 -13.078   1.256  1.00  0.00    -0.090 SA
BRANCH  18  19
HETATM   19  C   UNL     1      40.486 -13.867   0.022  1.00  0.00     0.131 C 
HETATM   20  N   UNL     1      40.729 -13.537  -1.220  1.00  0.00    -0.380 N 
HETATM   21  H   UNL     1      41.441 -12.837  -1.401  1.00  0.00     0.158 HD
HETATM   22  H   UNL     1      40.271 -13.977  -2.005  1.00  0.00     0.158 HD
BRANCH  19  23
HETATM   23  N   UNL     1      39.630 -14.805   0.334  1.00  0.00    -0.380 N 
HETATM   24  H   UNL     1      39.718 -15.714  -0.109  1.00  0.00     0.158 HD
HETATM   25  H   UNL     1      38.878 -14.678   0.998  1.00  0.00     0.158 HD
ENDBRANCH  19  23
ENDBRANCH  18  19
ENDBRANCH  17  18
ENDBRANCH   5  17
BRANCH   3  26
HETATM   26  C   UNL     1      43.206 -18.217   3.468  1.00  0.00     0.058 A 
HETATM   27  C   UNL     1      43.060 -18.910   2.256  1.00  0.00     0.031 A 
HETATM   28  C   UNL     1      43.472 -20.241   2.151  1.00  0.00     0.002 A 
HETATM   29  C   UNL     1      44.033 -20.886   3.249  1.00  0.00     0.000 A 
HETATM   30  C   UNL     1      44.189 -20.202   4.455  1.00  0.00     0.002 A 
HETATM   31  C   UNL     1      43.779 -18.870   4.568  1.00  0.00     0.031 A 
ENDBRANCH   3  26
TORSDOF 9
ENDMDL
MODEL 2
REMARK VINA RESULT:      -7.9      3.811      7.025
REMARK  9 active torsions:
REMARK  status: ('A' for Active; 'I' for Inactive)
REMARK    1  A    between atoms: C_2  and  C_3 
REMARK    2  A    between atoms: C_3  and  O_4 
REMARK    3  A    between atoms: O_4  and  C_5 
REMARK    4  A    between atoms: C_8  and  C_9 
REMARK    5  A    between atoms: N_11  and  C_12 
REMARK    6  A    between atoms: C_19  and  C_20 
REMARK    7  A    between atoms: C_20  and  S_21 
REMARK    8  A    between atoms: S_21  and  C_22 
REMARK    9  A    between atoms: C_22  and  N_23 
ROOT
HETATM    1  C   UNL     1      42.333 -15.527   2.750  1.00  0.00     0.096 C 
HETATM    2  N   UNL     1      42.400 -16.863   2.718  1.00  0.00    -0.167 NA
HETATM    3  N   UNL     1      43.170 -17.234   3.765  1.00  0.00    -0.244 N 
HETATM    4  C   UNL     1      43.432 -16.152   4.575  1.00  0.00     0.129 C 
HETATM    5  C   UNL     1      42.884 -15.034   3.974  1.00  0.00     0.001 C 
ENDROOT
BRANCH   1   6
HETATM    6  C   UNL     1      41.617 -14.804   1.695  1.00  0.00    -0.005 A 
HETATM    7  C   UNL     1      40.585 -15.439   0.989  1.00  0.00     0.016 A 
HETATM    8  C   UNL     1      39.836 -14.747   0.030  1.00  0.00     0.037 A 
HETATM    9  C   UNL     1      40.109 -13.408  -0.236  1.00  0.00     0.068 A 
HETATM   10  C   UNL     1      41.168 -12.785   0.427  1.00  0.00     0.037 A 
HETATM   11  C   UNL     1      41.925 -13.477   1.379  1.00  0.00     0.016 A 
BRANCH   9  12
HETATM   12  O   UNL     1      39.433 -12.605  -1.109  1.00  0.00    -0.351 OA
BRANCH  12  13
HETATM   13  C   UNL     1      39.700 -12.779  -2.503  1.00  0.00     0.179 C 
BRANCH  13  14
HETATM   14  C   UNL     1      38.431 -13.308  -3.188  1.00  0.00     0.002 C 
HETATM   15  C   UNL     1      37.173 -12.854  -2.442  1.00  0.00     0.011 C 
HETATM   16  C   UNL     1      38.471 -14.832  -3.279  1.00  0.00     0.011 C 
ENDBRANCH  13  14
ENDBRANCH  12  13
ENDBRANCH   9  12
ENDBRANCH   1   6
BRANCH   5  17
HETATM   17  C   UNL     1      42.876 -13.655   4.540  1.00  0.00     0.125 C 
BRANCH  17  18
HETATM   18  S   UNL     1      41.958 -13.531   6.106  1.00  0.00    -0.090 SA
BRANCH  18  19
HETATM   19  C   UNL     1      40.406 -14.101   5.655  1.00  0.00     0.131 C 
HETATM   20  N   UNL     1      39.904 -15.111   6.318  1.00  0.00    -0.380 N 
HETATM   21  H   UNL     1      40.448 -15.507   7.076  1.00  0.00     0.158 HD
HETATM   22  H   UNL     1      38.984 -15.485   6.135  1.00  0.00     0.158 HD
BRANCH  19  23
HETATM   23  N   UNL     1      39.740 -13.495   4.707  1.00  0.00    -0.380 N 
HETATM   24  H   UNL     1      39.752 -12.480   4.673  1.00  0.00     0.158 HD
HETATM   25  H   UNL     1      39.209 -13.982   3.998  1.00  0.00     0.158 HD
ENDBRANCH  19  23
ENDBRANCH  18  19
ENDBRANCH  17  18
ENDBRANCH   5  17
BRANCH   3  26
HETATM   26  C   UNL     1      43.524 -18.596   3.969  1.00  0.00     0.058 A 
HETATM   27  C   UNL     1      43.541 -19.473   2.873  1.00  0.00     0.031 A 
HETATM   28  C   UNL     1      43.872 -20.818   3.053  1.00  0.00     0.002 A 
HETATM   29  C   UNL     1      44.189 -21.295   4.322  1.00  0.00     0.000 A 
HETATM   30  C   UNL     1      44.182 -20.428   5.414  1.00  0.00     0.002 A 
HETATM   31  C   UNL     1      43.853 -19.080   5.243  1.00  0.00     0.031 A 
ENDBRANCH   3  26
TORSDOF 9
ENDMDL
MODEL 3
REMARK VINA RESULT:      -7.6      3.898      7.712
REMARK  9 active torsions:
REMARK  status: ('A' for Active; 'I' for Inactive)
REMARK    1  A    between atoms: C_2  and  C_3 
REMARK    2  A    between atoms: C_3  and  O_4 
REMARK    3  A    between atoms: O_4  and  C_5 
REMARK    4  A    between atoms: C_8  and  C_9 
REMARK    5  A    between atoms: N_11  and  C_12 
REMARK    6  A    between atoms: C_19  and  C_20 
REMARK    7  A    between atoms: C_20  and  S_21 
REMARK    8  A    between atoms: S_21  and  C_22 
REMARK    9  A    between atoms: C_22  and  N_23 
ROOT
HETATM    1  C   UNL     1      41.065 -14.414   1.348  1.00  0.00     0.096 C 
HETATM    2  N   UNL     1      40.375 -14.794   0.266  1.00  0.00    -0.167 NA
HETATM    3  N   UNL     1      39.860 -13.668  -0.274  1.00  0.00    -0.244 N 
HETATM    4  C   UNL     1      40.380 -12.555   0.347  1.00  0.00     0.129 C 
HETATM    5  C   UNL     1      41.187 -12.990   1.382  1.00  0.00     0.001 C 
ENDROOT
BRANCH   1   6
HETATM    6  C   UNL     1      41.697 -15.421   2.205  1.00  0.00    -0.005 A 
HETATM    7  C   UNL     1      42.880 -16.050   1.788  1.00  0.00     0.016 A 
HETATM    8  C   UNL     1      43.544 -16.960   2.620  1.00  0.00     0.037 A 
HETATM    9  C   UNL     1      43.034 -17.252   3.882  1.00  0.00     0.068 A 
HETATM   10  C   UNL     1      41.830 -16.669   4.281  1.00  0.00     0.037 A 
HETATM   11  C   UNL     1      41.159 -15.767   3.448  1.00  0.00     0.016 A 
BRANCH   9  12
HETATM   12  O   UNL     1      43.599 -18.082   4.807  1.00  0.00    -0.351 OA
BRANCH  12  13
HETATM   13  C   UNL     1      44.761 -18.814   4.411  1.00  0.00     0.179 C 
BRANCH  13  14
HETATM   14  C   UNL     1      44.446 -20.316   4.475  1.00  0.00     0.002 C 
HETATM   15  C   UNL     1      43.691 -20.774   3.225  1.00  0.00     0.011 C 
HETATM   16  C   UNL     1      43.636 -20.636   5.730  1.00  0.00     0.011 C 
ENDBRANCH  13  14
ENDBRANCH  12  13
ENDBRANCH   9  12
ENDBRANCH   1   6
BRANCH   5  17
HETATM   17  C   UNL     1      42.001 -12.121   2.278  1.00  0.00     0.125 C 
BRANCH  17  18
HETATM   18  S   UNL     1      40.996 -11.198   3.482  1.00  0.00    -0.090 SA
BRANCH  18  19
HETATM   19  C   UNL     1      40.605 -12.414   4.625  1.00  0.00     0.131 C 
HETATM   20  N   UNL     1      41.544 -12.819   5.441  1.00  0.00    -0.380 N 
HETATM   21  H   UNL     1      42.460 -12.389   5.370  1.00  0.00     0.158 HD
HETATM   22  H   UNL     1      41.385 -13.507   6.162  1.00  0.00     0.158 HD
BRANCH  19  23
HETATM   23  N   UNL     1      39.382 -12.872   4.695  1.00  0.00    -0.380 N 
HETATM   24  H   UNL     1      38.648 -12.256   5.033  1.00  0.00     0.158 HD
HETATM   25  H   UNL     1      39.121 -13.811   4.430  1.00  0.00     0.158 HD
ENDBRANCH  19  23
ENDBRANCH  18  19
ENDBRANCH  17  18
ENDBRANCH   5  17
BRANCH   3  26
HETATM   26  C   UNL     1      38.986 -13.725  -1.395  1.00  0.00     0.058 A 
HETATM   27  C   UNL     1      39.087 -14.802  -2.291  1.00  0.00     0.031 A 
HETATM   28  C   UNL     1      38.250 -14.871  -3.406  1.00  0.00     0.002 A 
HETATM   29  C   UNL     1      37.307 -13.872  -3.634  1.00  0.00     0.000 A 
HETATM   30  C   UNL     1      37.195 -12.804  -2.745  1.00  0.00     0.002 A 
HETATM   31  C   UNL     1      38.029 -12.727  -1.626  1.00  0.00     0.031 A 
ENDBRANCH   3  26
TORSDOF 9
ENDMDL
MODEL 4
REMARK VINA RESULT:      -7.5      1.792      2.360
REMARK  9 active torsions:
REMARK  status: ('A' for Active; 'I' for Inactive)
REMARK    1  A    between atoms: C_2  and  C_3 
REMARK    2  A    between atoms: C_3  and  O_4 
REMARK    3  A    between atoms: O_4  and  C_5 
REMARK    4  A    between atoms: C_8  and  C_9 
REMARK    5  A    between atoms: N_11  and  C_12 
REMARK    6  A    between atoms: C_19  and  C_20 
REMARK    7  A    between atoms: C_20  and  S_21 
REMARK    8  A    between atoms: S_21  and  C_22 
REMARK    9  A    between atoms: C_22  and  N_23 
ROOT
HETATM    1  C   UNL     1      43.052 -13.274   4.959  1.00  0.00     0.096 C 
HETATM    2  N   UNL     1      43.597 -14.495   5.001  1.00  0.00    -0.167 NA
HETATM    3  N   UNL     1      43.046 -15.195   3.984  1.00  0.00    -0.244 N 
HETATM    4  C   UNL     1      42.302 -14.364   3.178  1.00  0.00     0.129 C 
HETATM    5  C   UNL     1      42.303 -13.107   3.753  1.00  0.00     0.001 C 
ENDROOT
BRANCH   1   6
HETATM    6  C   UNL     1      43.395 -12.284   5.985  1.00  0.00    -0.005 A 
HETATM    7  C   UNL     1      44.672 -12.292   6.566  1.00  0.00     0.016 A 
HETATM    8  C   UNL     1      45.049 -11.311   7.491  1.00  0.00     0.037 A 
HETATM    9  C   UNL     1      44.153 -10.308   7.848  1.00  0.00     0.068 A 
HETATM   10  C   UNL     1      42.863 -10.324   7.313  1.00  0.00     0.037 A 
HETATM   11  C   UNL     1      42.480 -11.309   6.395  1.00  0.00     0.016 A 
BRANCH   9  12
HETATM   12  O   UNL     1      44.401  -9.270   8.701  1.00  0.00    -0.351 OA
BRANCH  12  13
HETATM   13  C   UNL     1      43.431  -9.009   9.718  1.00  0.00     0.179 C 
BRANCH  13  14
HETATM   14  C   UNL     1      44.041  -9.356  11.085  1.00  0.00     0.002 C 
HETATM   15  C   UNL     1      43.757 -10.813  11.460  1.00  0.00     0.011 C 
HETATM   16  C   UNL     1      43.500  -8.417  12.161  1.00  0.00     0.011 C 
ENDBRANCH  13  14
ENDBRANCH  12  13
ENDBRANCH   9  12
ENDBRANCH   1   6
BRANCH   5  17
HETATM   17  C   UNL     1      41.672 -11.885   3.180  1.00  0.00     0.125 C 
BRANCH  17  18
HETATM   18  S   UNL     1      40.720 -12.216   1.665  1.00  0.00    -0.090 SA
BRANCH  18  19
HETATM   19  C   UNL     1      39.127 -12.378   2.274  1.00  0.00     0.131 C 
HETATM   20  N   UNL     1      38.756 -13.549   2.727  1.00  0.00    -0.380 N 
HETATM   21  H   UNL     1      39.430 -14.307   2.708  1.00  0.00     0.158 HD
HETATM   22  H   UNL     1      37.847 -13.718   3.131  1.00  0.00     0.158 HD
BRANCH  19  23
HETATM   23  N   UNL     1      38.338 -11.336   2.322  1.00  0.00    -0.380 N 
HETATM   24  H   UNL     1      38.700 -10.436   2.022  1.00  0.00     0.158 HD
HETATM   25  H   UNL     1      37.381 -11.374   2.643  1.00  0.00     0.158 HD
ENDBRANCH  19  23
ENDBRANCH  18  19
ENDBRANCH  17  18
ENDBRANCH   5  17
BRANCH   3  26
HETATM   26  C   UNL     1      43.339 -16.574   3.800  1.00  0.00     0.058 A 
HETATM   27  C   UNL     1      42.939 -17.209   2.613  1.00  0.00     0.031 A 
HETATM   28  C   UNL     1      43.203 -18.566   2.417  1.00  0.00     0.002 A 
HETATM   29  C   UNL     1      43.867 -19.297   3.398  1.00  0.00     0.000 A 
HETATM   30  C   UNL     1      44.275 -18.672   4.576  1.00  0.00     0.002 A 
HETATM   31  C   UNL     1      44.015 -17.314   4.781  1.00  0.00     0.031 A 
ENDBRANCH   3  26
TORSDOF 9
ENDMDL
MODEL 5
REMARK VINA RESULT:      -7.4      3.835      6.922
REMARK  9 active torsions:
REMARK  status: ('A' for Active; 'I' for Inactive)
REMARK    1  A    between atoms: C_2  and  C_3 
REMARK    2  A    between atoms: C_3  and  O_4 
REMARK    3  A    between atoms: O_4  and  C_5 
REMARK    4  A    between atoms: C_8  and  C_9 
REMARK    5  A    between atoms: N_11  and  C_12 
REMARK    6  A    between atoms: C_19  and  C_20 
REMARK    7  A    between atoms: C_20  and  S_21 
REMARK    8  A    between atoms: S_21  and  C_22 
REMARK    9  A    between atoms: C_22  and  N_23 
ROOT
HETATM    1  C   UNL     1      42.033 -15.118   2.157  1.00  0.00     0.096 C 
HETATM    2  N   UNL     1      42.111 -16.453   2.101  1.00  0.00    -0.167 NA
HETATM    3  N   UNL     1      42.943 -16.830   3.097  1.00  0.00    -0.244 N 
HETATM    4  C   UNL     1      43.240 -15.757   3.907  1.00  0.00     0.129 C 
HETATM    5  C   UNL     1      42.648 -14.637   3.354  1.00  0.00     0.001 C 
ENDROOT
BRANCH   1   6
HETATM    6  C   UNL     1      41.252 -14.387   1.155  1.00  0.00    -0.005 A 
HETATM    7  C   UNL     1      41.518 -13.031   0.914  1.00  0.00     0.016 A 
HETATM    8  C   UNL     1      40.839 -12.330  -0.090  1.00  0.00     0.037 A 
HETATM    9  C   UNL     1      39.883 -12.978  -0.868  1.00  0.00     0.068 A 
HETATM   10  C   UNL     1      39.578 -14.314  -0.599  1.00  0.00     0.037 A 
HETATM   11  C   UNL     1      40.248 -15.013   0.410  1.00  0.00     0.016 A 
BRANCH   9  12
HETATM   12  O   UNL     1      39.180 -12.431  -1.903  1.00  0.00    -0.351 OA
BRANCH  12  13
HETATM   13  C   UNL     1      39.921 -11.714  -2.894  1.00  0.00     0.179 C 
BRANCH  13  14
HETATM   14  C   UNL     1      39.627 -10.214  -2.745  1.00  0.00     0.002 C 
HETATM   15  C   UNL     1      38.854  -9.682  -3.955  1.00  0.00     0.011 C 
HETATM   16  C   UNL     1      40.927  -9.433  -2.562  1.00  0.00     0.011 C 
ENDBRANCH  13  14
ENDBRANCH  12  13
ENDBRANCH   9  12
ENDBRANCH   1   6
BRANCH   5  17
HETATM   17  C   UNL     1      42.660 -13.266   3.940  1.00  0.00     0.125 C 
BRANCH  17  18
HETATM   18  S   UNL     1      41.078 -12.806   4.711  1.00  0.00    -0.090 SA
BRANCH  18  19
HETATM   19  C   UNL     1      40.997 -13.893   6.034  1.00  0.00     0.131 C 
HETATM   20  N   UNL     1      39.947 -14.667   6.133  1.00  0.00    -0.380 N 
HETATM   21  H   UNL     1      39.231 -14.600   5.417  1.00  0.00     0.158 HD
HETATM   22  H   UNL     1      39.839 -15.356   6.863  1.00  0.00     0.158 HD
BRANCH  19  23
HETATM   23  N   UNL     1      41.992 -13.964   6.880  1.00  0.00    -0.380 N 
HETATM   24  H   UNL     1      42.583 -13.148   7.009  1.00  0.00     0.158 HD
HETATM   25  H   UNL     1      42.209 -14.791   7.418  1.00  0.00     0.158 HD
ENDBRANCH  19  23
ENDBRANCH  18  19
ENDBRANCH  17  18
ENDBRANCH   5  17
BRANCH   3  26
HETATM   26  C   UNL     1      43.320 -18.191   3.261  1.00  0.00     0.058 A 
HETATM   27  C   UNL     1      43.141 -19.087   2.195  1.00  0.00     0.031 A 
HETATM   28  C   UNL     1      43.492 -20.432   2.339  1.00  0.00     0.002 A 
HETATM   29  C   UNL     1      44.023 -20.889   3.541  1.00  0.00     0.000 A 
HETATM   30  C   UNL     1      44.211 -20.004   4.602  1.00  0.00     0.002 A 
HETATM   31  C   UNL     1      43.864 -18.657   4.467  1.00  0.00     0.031 A 
ENDBRANCH   3  26
TORSDOF 9
ENDMDL
MODEL 6
REMARK VINA RESULT:      -7.2      7.102     10.372
REMARK  9 active torsions:
REMARK  status: ('A' for Active; 'I' for Inactive)
REMARK    1  A    between atoms: C_2  and  C_3 
REMARK    2  A    between atoms: C_3  and  O_4 
REMARK    3  A    between atoms: O_4  and  C_5 
REMARK    4  A    between atoms: C_8  and  C_9 
REMARK    5  A    between atoms: N_11  and  C_12 
REMARK    6  A    between atoms: C_19  and  C_20 
REMARK    7  A    between atoms: C_20  and  S_21 
REMARK    8  A    between atoms: S_21  and  C_22 
REMARK    9  A    between atoms: C_22  and  N_23 
ROOT
HETATM    1  C   UNL     1      42.413  -8.626  11.641  1.00  0.00     0.096 C 
HETATM    2  N   UNL     1      43.602  -8.896  11.090  1.00  0.00    -0.167 NA
HETATM    3  N   UNL     1      43.360  -9.243   9.807  1.00  0.00    -0.244 N 
HETATM    4  C   UNL     1      42.042  -9.008   9.486  1.00  0.00     0.129 C 
HETATM    5  C   UNL     1      41.400  -8.579  10.633  1.00  0.00     0.001 C 
ENDROOT
BRANCH   1   6
HETATM    6  C   UNL     1      42.326  -8.280  13.063  1.00  0.00    -0.005 A 
HETATM    7  C   UNL     1      43.142  -7.266  13.587  1.00  0.00     0.016 A 
HETATM    8  C   UNL     1      43.025  -6.864  14.923  1.00  0.00     0.037 A 
HETATM    9  C   UNL     1      42.088  -7.472  15.754  1.00  0.00     0.068 A 
HETATM   10  C   UNL     1      41.309  -8.516  15.253  1.00  0.00     0.037 A 
HETATM   11  C   UNL     1      41.431  -8.927  13.920  1.00  0.00     0.016 A 
BRANCH   9  12
HETATM   12  O   UNL     1      41.839  -7.151  17.057  1.00  0.00    -0.351 OA
BRANCH  12  13
HETATM   13  C   UNL     1      40.548  -7.477  17.579  1.00  0.00     0.179 C 
BRANCH  13  14
HETATM   14  C   UNL     1      40.659  -7.655  19.101  1.00  0.00     0.002 C 
HETATM   15  C   UNL     1      42.006  -8.272  19.486  1.00  0.00     0.011 C 
HETATM   16  C   UNL     1      39.512  -8.520  19.619  1.00  0.00     0.011 C 
ENDBRANCH  13  14
ENDBRANCH  12  13
ENDBRANCH   9  12
ENDBRANCH   1   6
BRANCH   5  17
HETATM   17  C   UNL     1      39.976  -8.150  10.727  1.00  0.00     0.125 C 
BRANCH  17  18
HETATM   18  S   UNL     1      39.041  -8.437   9.193  1.00  0.00    -0.090 SA
BRANCH  18  19
HETATM   19  C   UNL     1      38.908 -10.145   9.172  1.00  0.00     0.131 C 
HETATM   20  N   UNL     1      39.181 -10.771   8.056  1.00  0.00    -0.380 N 
HETATM   21  H   UNL     1      39.470 -10.221   7.255  1.00  0.00     0.158 HD
HETATM   22  H   UNL     1      39.157 -11.776   7.970  1.00  0.00     0.158 HD
BRANCH  19  23
HETATM   23  N   UNL     1      38.590 -10.787  10.266  1.00  0.00    -0.380 N 
HETATM   24  H   UNL     1      39.225 -10.747  11.058  1.00  0.00     0.158 HD
HETATM   25  H   UNL     1      37.742 -11.326  10.372  1.00  0.00     0.158 HD
ENDBRANCH  19  23
ENDBRANCH  18  19
ENDBRANCH  17  18
ENDBRANCH   5  17
BRANCH   3  26
HETATM   26  C   UNL     1      44.410  -9.686   8.956  1.00  0.00     0.058 A 
HETATM   27  C   UNL     1      44.274 -10.906   8.274  1.00  0.00     0.031 A 
HETATM   28  C   UNL     1      45.299 -11.367   7.445  1.00  0.00     0.002 A 
HETATM   29  C   UNL     1      46.460 -10.616   7.288  1.00  0.00     0.000 A 
HETATM   30  C   UNL     1      46.600  -9.400   7.956  1.00  0.00     0.002 A 
HETATM   31  C   UNL     1      45.579  -8.931   8.788  1.00  0.00     0.031 A 
ENDBRANCH   3  26
TORSDOF 9
ENDMDL
MODEL 7
REMARK VINA RESULT:      -7.1      9.339     14.059
REMARK  9 active torsions:
REMARK  status: ('A' for Active; 'I' for Inactive)
REMARK    1  A    between atoms: C_2  and  C_3 
REMARK    2  A    between atoms: C_3  and  O_4 
REMARK    3  A    between atoms: O_4  and  C_5 
REMARK    4  A    between atoms: C_8  and  C_9 
REMARK    5  A    between atoms: N_11  and  C_12 
REMARK    6  A    between atoms: C_19  and  C_20 
REMARK    7  A    between atoms: C_20  and  S_21 
REMARK    8  A    between atoms: S_21  and  C_22 
REMARK    9  A    between atoms: C_22  and  N_23 
ROOT
HETATM    1  C   UNL     1      41.217  -7.347  15.207  1.00  0.00     0.096 C 
HETATM    2  N   UNL     1      41.031  -7.903  16.410  1.00  0.00    -0.167 NA
HETATM    3  N   UNL     1      40.471  -6.950  17.189  1.00  0.00    -0.244 N 
HETATM    4  C   UNL     1      40.122  -5.855  16.432  1.00  0.00     0.129 C 
HETATM    5  C   UNL     1      40.557  -6.081  15.139  1.00  0.00     0.001 C 
ENDROOT
BRANCH   1   6
HETATM    6  C   UNL     1      41.877  -8.109  14.143  1.00  0.00    -0.005 A 
HETATM    7  C   UNL     1      41.355  -9.349  13.744  1.00  0.00     0.016 A 
HETATM    8  C   UNL     1      41.921 -10.061  12.680  1.00  0.00     0.037 A 
HETATM    9  C   UNL     1      43.018  -9.541  11.998  1.00  0.00     0.068 A 
HETATM   10  C   UNL     1      43.574  -8.333  12.424  1.00  0.00     0.037 A 
HETATM   11  C   UNL     1      43.016  -7.624  13.494  1.00  0.00     0.016 A 
BRANCH   9  12
HETATM   12  O   UNL     1      43.639 -10.105  10.921  1.00  0.00    -0.351 OA
BRANCH  12  13
HETATM   13  C   UNL     1      44.867  -9.515  10.487  1.00  0.00     0.179 C 
BRANCH  13  14
HETATM   14  C   UNL     1      44.742  -9.148   9.001  1.00  0.00     0.002 C 
HETATM   15  C   UNL     1      46.105  -9.195   8.306  1.00  0.00     0.011 C 
HETATM   16  C   UNL     1      44.117  -7.762   8.847  1.00  0.00     0.011 C 
ENDBRANCH  13  14
ENDBRANCH  12  13
ENDBRANCH   9  12
ENDBRANCH   1   6
BRANCH   5  17
HETATM   17  C   UNL     1      40.331  -5.181  13.973  1.00  0.00     0.125 C 
BRANCH  17  18
HETATM   18  S   UNL     1      38.687  -5.384  13.222  1.00  0.00    -0.090 SA
BRANCH  18  19
HETATM   19  C   UNL     1      38.858  -6.869  12.384  1.00  0.00     0.131 C 
HETATM   20  N   UNL     1      39.772  -6.948  11.451  1.00  0.00    -0.380 N 
HETATM   21  H   UNL     1      40.346  -6.132  11.270  1.00  0.00     0.158 HD
HETATM   22  H   UNL     1      39.957  -7.795  10.935  1.00  0.00     0.158 HD
BRANCH  19  23
HETATM   23  N   UNL     1      38.121  -7.895  12.721  1.00  0.00    -0.380 N 
HETATM   24  H   UNL     1      37.614  -7.865  13.600  1.00  0.00     0.158 HD
HETATM   25  H   UNL     1      38.025  -8.724  12.151  1.00  0.00     0.158 HD
ENDBRANCH  19  23
ENDBRANCH  18  19
ENDBRANCH  17  18
ENDBRANCH   5  17
BRANCH   3  26
HETATM   26  C   UNL     1      40.226  -7.183  18.571  1.00  0.00     0.058 A 
HETATM   27  C   UNL     1      40.649  -6.231  19.513  1.00  0.00     0.031 A 
HETATM   28  C   UNL     1      40.432  -6.446  20.876  1.00  0.00     0.002 A 
HETATM   29  C   UNL     1      39.793  -7.605  21.307  1.00  0.00     0.000 A 
HETATM   30  C   UNL     1      39.364  -8.551  20.377  1.00  0.00     0.002 A 
HETATM   31  C   UNL     1      39.576  -8.344  19.011  1.00  0.00     0.031 A 
ENDBRANCH   3  26
TORSDOF 9
ENDMDL
MODEL 8
REMARK VINA RESULT:      -7.1      7.934     13.088
REMARK  9 active torsions:
REMARK  status: ('A' for Active; 'I' for Inactive)
REMARK    1  A    between atoms: C_2  and  C_3 
REMARK    2  A    between atoms: C_3  and  O_4 
REMARK    3  A    between atoms: O_4  and  C_5 
REMARK    4  A    between atoms: C_8  and  C_9 
REMARK    5  A    between atoms: N_11  and  C_12 
REMARK    6  A    between atoms: C_19  and  C_20 
REMARK    7  A    between atoms: C_20  and  S_21 
REMARK    8  A    between atoms: S_21  and  C_22 
REMARK    9  A    between atoms: C_22  and  N_23 
ROOT
HETATM    1  C   UNL     1      41.586  -7.947  14.303  1.00  0.00     0.096 C 
HETATM    2  N   UNL     1      41.724  -8.339  15.575  1.00  0.00    -0.167 NA
HETATM    3  N   UNL     1      41.019  -7.462  16.324  1.00  0.00    -0.244 N 
HETATM    4  C   UNL     1      40.276  -6.630  15.518  1.00  0.00     0.129 C 
HETATM    5  C   UNL     1      40.588  -6.928  14.205  1.00  0.00     0.001 C 
ENDROOT
BRANCH   1   6
HETATM    6  C   UNL     1      42.294  -8.660  13.237  1.00  0.00    -0.005 A 
HETATM    7  C   UNL     1      43.260  -7.992  12.470  1.00  0.00     0.016 A 
HETATM    8  C   UNL     1      44.004  -8.670  11.497  1.00  0.00     0.037 A 
HETATM    9  C   UNL     1      43.792 -10.028  11.278  1.00  0.00     0.068 A 
HETATM   10  C   UNL     1      42.797 -10.687  12.002  1.00  0.00     0.037 A 
HETATM   11  C   UNL     1      42.045 -10.009  12.968  1.00  0.00     0.016 A 
BRANCH   9  12
HETATM   12  O   UNL     1      44.472 -10.818  10.396  1.00  0.00    -0.351 OA
BRANCH  12  13
HETATM   13  C   UNL     1      44.288 -10.558   9.002  1.00  0.00     0.179 C 
BRANCH  13  14
HETATM   14  C   UNL     1      45.657 -10.591   8.307  1.00  0.00     0.002 C 
HETATM   15  C   UNL     1      46.216  -9.178   8.125  1.00  0.00     0.011 C 
HETATM   16  C   UNL     1      45.549 -11.296   6.956  1.00  0.00     0.011 C 
ENDBRANCH  13  14
ENDBRANCH  12  13
ENDBRANCH   9  12
ENDBRANCH   1   6
BRANCH   5  17
HETATM   17  C   UNL     1      39.966  -6.312  12.999  1.00  0.00     0.125 C 
BRANCH  17  18
HETATM   18  S   UNL     1      38.601  -7.302  12.315  1.00  0.00    -0.090 SA
BRANCH  18  19
HETATM   19  C   UNL     1      39.365  -8.110  11.011  1.00  0.00     0.131 C 
HETATM   20  N   UNL     1      40.351  -7.503  10.403  1.00  0.00    -0.380 N 
HETATM   21  H   UNL     1      40.628  -6.586  10.734  1.00  0.00     0.158 HD
HETATM   22  H   UNL     1      40.873  -7.924   9.648  1.00  0.00     0.158 HD
BRANCH  19  23
HETATM   23  N   UNL     1      38.990  -9.320  10.686  1.00  0.00    -0.380 N 
HETATM   24  H   UNL     1      39.290  -9.701   9.793  1.00  0.00     0.158 HD
HETATM   25  H   UNL     1      38.415  -9.905  11.276  1.00  0.00     0.158 HD
ENDBRANCH  19  23
ENDBRANCH  18  19
ENDBRANCH  17  18
ENDBRANCH   5  17
BRANCH   3  26
HETATM   26  C   UNL     1      41.031  -7.535  17.745  1.00  0.00     0.058 A 
HETATM   27  C   UNL     1      39.876  -7.957  18.421  1.00  0.00     0.031 A 
HETATM   28  C   UNL     1      39.860  -8.022  19.816  1.00  0.00     0.002 A 
HETATM   29  C   UNL     1      40.993  -7.670  20.543  1.00  0.00     0.000 A 
HETATM   30  C   UNL     1      42.148  -7.257  19.879  1.00  0.00     0.002 A 
HETATM   31  C   UNL     1      42.172  -7.189  18.483  1.00  0.00     0.031 A 
ENDBRANCH   3  26
TORSDOF 9
ENDMDL
MODEL 9
REMARK VINA RESULT:      -7.0      2.955      7.941
REMARK  9 active torsions:
REMARK  status: ('A' for Active; 'I' for Inactive)
REMARK    1  A    between atoms: C_2  and  C_3 
REMARK    2  A    between atoms: C_3  and  O_4 
REMARK    3  A    between atoms: O_4  and  C_5 
REMARK    4  A    between atoms: C_8  and  C_9 
REMARK    5  A    between atoms: N_11  and  C_12 
REMARK    6  A    between atoms: C_19  and  C_20 
REMARK    7  A    between atoms: C_20  and  S_21 
REMARK    8  A    between atoms: S_21  and  C_22 
REMARK    9  A    between atoms: C_22  and  N_23 
ROOT
HETATM    1  C   UNL     1      41.950 -13.532   2.194  1.00  0.00     0.096 C 
HETATM    2  N   UNL     1      41.226 -13.686   1.079  1.00  0.00    -0.167 NA
HETATM    3  N   UNL     1      40.895 -12.444   0.663  1.00  0.00    -0.244 N 
HETATM    4  C   UNL     1      41.568 -11.495   1.398  1.00  0.00     0.129 C 
HETATM    5  C   UNL     1      42.286 -12.154   2.378  1.00  0.00     0.001 C 
ENDROOT
BRANCH   1   6
HETATM    6  C   UNL     1      42.411 -14.708   2.937  1.00  0.00    -0.005 A 
HETATM    7  C   UNL     1      42.043 -14.876   4.280  1.00  0.00     0.016 A 
HETATM    8  C   UNL     1      42.406 -16.027   4.989  1.00  0.00     0.037 A 
HETATM    9  C   UNL     1      43.144 -17.028   4.363  1.00  0.00     0.068 A 
HETATM   10  C   UNL     1      43.558 -16.844   3.042  1.00  0.00     0.037 A 
HETATM   11  C   UNL     1      43.204 -15.690   2.334  1.00  0.00     0.016 A 
BRANCH   9  12
HETATM   12  O   UNL     1      43.527 -18.214   4.919  1.00  0.00    -0.351 OA
BRANCH  12  13
HETATM   13  C   UNL     1      44.688 -18.849   4.378  1.00  0.00     0.179 C 
BRANCH  13  14
HETATM   14  C   UNL     1      44.383 -20.339   4.163  1.00  0.00     0.002 C 
HETATM   15  C   UNL     1      43.588 -20.557   2.873  1.00  0.00     0.011 C 
HETATM   16  C   UNL     1      43.618 -20.903   5.358  1.00  0.00     0.011 C 
ENDBRANCH  13  14
ENDBRANCH  12  13
ENDBRANCH   9  12
ENDBRANCH   1   6
BRANCH   5  17
HETATM   17  C   UNL     1      43.210 -11.518   3.360  1.00  0.00     0.125 C 
BRANCH  17  18
HETATM   18  S   UNL     1      42.418 -11.163   4.959  1.00  0.00    -0.090 SA
BRANCH  18  19
HETATM   19  C   UNL     1      43.575 -11.764   6.071  1.00  0.00     0.131 C 
HETATM   20  N   UNL     1      43.165 -12.579   7.008  1.00  0.00    -0.380 N 
HETATM   21  H   UNL     1      42.182 -12.830   7.030  1.00  0.00     0.158 HD
HETATM   22  H   UNL     1      43.788 -13.001   7.680  1.00  0.00     0.158 HD
BRANCH  19  23
HETATM   23  N   UNL     1      44.836 -11.443   5.936  1.00  0.00    -0.380 N 
HETATM   24  H   UNL     1      45.218 -11.349   5.000  1.00  0.00     0.158 HD
HETATM   25  H   UNL     1      45.458 -11.281   6.715  1.00  0.00     0.158 HD
ENDBRANCH  19  23
ENDBRANCH  18  19
ENDBRANCH  17  18
ENDBRANCH   5  17
BRANCH   3  26
HETATM   26  C   UNL     1      40.038 -12.250  -0.456  1.00  0.00     0.058 A 
HETATM   27  C   UNL     1      38.678 -11.973  -0.240  1.00  0.00     0.031 A 
HETATM   28  C   UNL     1      37.816 -11.794  -1.324  1.00  0.00     0.002 A 
HETATM   29  C   UNL     1      38.302 -11.885  -2.625  1.00  0.00     0.000 A 
HETATM   30  C   UNL     1      39.652 -12.152  -2.848  1.00  0.00     0.002 A 
HETATM   31  C   UNL     1      40.523 -12.333  -1.769  1.00  0.00     0.031 A 
ENDBRANCH   3  26
TORSDOF 9
ENDMDL
MODEL 10
REMARK VINA RESULT:      -6.9      2.565      5.341
REMARK  9 active torsions:
REMARK  status: ('A' for Active; 'I' for Inactive)
REMARK    1  A    between atoms: C_2  and  C_3 
REMARK    2  A    between atoms: C_3  and  O_4 
REMARK    3  A    between atoms: O_4  and  C_5 
REMARK    4  A    between atoms: C_8  and  C_9 
REMARK    5  A    between atoms: N_11  and  C_12 
REMARK    6  A    between atoms: C_19  and  C_20 
REMARK    7  A    between atoms: C_20  and  S_21 
REMARK    8  A    between atoms: S_21  and  C_22 
REMARK    9  A    between atoms: C_22  and  N_23 
ROOT
HETATM    1  C   UNL     1      41.635 -13.753   2.853  1.00  0.00     0.096 C 
HETATM    2  N   UNL     1      41.240 -13.199   1.700  1.00  0.00    -0.167 NA
HETATM    3  N   UNL     1      40.694 -14.193   0.965  1.00  0.00    -0.244 N 
HETATM    4  C   UNL     1      40.563 -15.335   1.723  1.00  0.00     0.129 C 
HETATM    5  C   UNL     1      41.129 -15.086   2.959  1.00  0.00     0.001 C 
ENDROOT
BRANCH   1   6
HETATM    6  C   UNL     1      42.336 -12.942   3.852  1.00  0.00    -0.005 A 
HETATM    7  C   UNL     1      41.853 -12.883   5.168  1.00  0.00     0.016 A 
HETATM    8  C   UNL     1      42.546 -12.177   6.159  1.00  0.00     0.037 A 
HETATM    9  C   UNL     1      43.733 -11.521   5.847  1.00  0.00     0.068 A 
HETATM   10  C   UNL     1      44.192 -11.533   4.528  1.00  0.00     0.037 A 
HETATM   11  C   UNL     1      43.495 -12.229   3.534  1.00  0.00     0.016 A 
BRANCH   9  12
HETATM   12  O   UNL     1      44.529 -10.836   6.720  1.00  0.00    -0.351 OA
BRANCH  12  13
HETATM   13  C   UNL     1      43.966 -10.486   7.987  1.00  0.00     0.179 C 
BRANCH  13  14
HETATM   14  C   UNL     1      44.932  -9.539   8.714  1.00  0.00     0.002 C 
HETATM   15  C   UNL     1      46.264  -9.432   7.967  1.00  0.00     0.011 C 
HETATM   16  C   UNL     1      45.166 -10.015  10.147  1.00  0.00     0.011 C 
ENDBRANCH  13  14
ENDBRANCH  12  13
ENDBRANCH   9  12
ENDBRANCH   1   6
BRANCH   5  17
HETATM   17  C   UNL     1      41.151 -16.027   4.115  1.00  0.00     0.125 C 
BRANCH  17  18
HETATM   18  S   UNL     1      42.827 -16.583   4.552  1.00  0.00    -0.090 SA
BRANCH  18  19
HETATM   19  C   UNL     1      42.665 -16.921   6.224  1.00  0.00     0.131 C 
HETATM   20  N   UNL     1      41.877 -16.156   6.934  1.00  0.00    -0.380 N 
HETATM   21  H   UNL     1      41.386 -15.403   6.464  1.00  0.00     0.158 HD
HETATM   22  H   UNL     1      41.703 -16.308   7.917  1.00  0.00     0.158 HD
BRANCH  19  23
HETATM   23  N   UNL     1      43.282 -17.951   6.743  1.00  0.00    -0.380 N 
HETATM   24  H   UNL     1      43.717 -17.851   7.656  1.00  0.00     0.158 HD
HETATM   25  H   UNL     1      43.352 -18.849   6.286  1.00  0.00     0.158 HD
ENDBRANCH  19  23
ENDBRANCH  18  19
ENDBRANCH  17  18
ENDBRANCH   5  17
BRANCH   3  26
HETATM   26  C   UNL     1      40.255 -13.964  -0.368  1.00  0.00     0.058 A 
HETATM   27  C   UNL     1      40.613 -12.769  -1.013  1.00  0.00     0.031 A 
HETATM   28  C   UNL     1      40.180 -12.516  -2.317  1.00  0.00     0.002 A 
HETATM   29  C   UNL     1      39.392 -13.450  -2.984  1.00  0.00     0.000 A 
HETATM   30  C   UNL     1      39.039 -14.642  -2.353  1.00  0.00     0.002 A 
HETATM   31  C   UNL     1      39.468 -14.904  -1.048  1.00  0.00     0.031 A 
ENDBRANCH   3  26
TORSDOF 9
ENDMDL
