MODEL 1
REMARK VINA RESULT:      -8.6      0.000      0.000
REMARK  7 active torsions:
REMARK  status: ('A' for Active; 'I' for Inactive)
REMARK    1  A    between atoms: N_3  and  N_4 
REMARK       I    between atoms: N_4  and  C_5 
REMARK    2  A    between atoms: C_5  and  C_6 
REMARK    3  A    between atoms: C_9  and  O_10 
REMARK    4  A    between atoms: O_10  and  C_11 
REMARK    5  A    between atoms: C_11  and  C_12 
REMARK       I    between atoms: C_12  and  N_13 
REMARK    6  A    between atoms: N_13  and  C_14 
REMARK    7  A    between atoms: C_16  and  O_17 
ROOT
HETATM    1  C   UNL     1      42.791 -13.953   5.711  1.00  0.00     0.033 A 
HETATM    2  C   UNL     1      43.942 -13.709   6.469  1.00  0.00     0.020 A 
HETATM    3  C   UNL     1      44.151 -12.441   7.022  1.00  0.00     0.038 A 
HETATM    4  C   UNL     1      43.229 -11.412   6.812  1.00  0.00     0.069 A 
HETATM    5  C   UNL     1      42.070 -11.666   6.077  1.00  0.00     0.038 A 
HETATM    6  C   UNL     1      41.849 -12.935   5.532  1.00  0.00     0.020 A 
ENDROOT
BRANCH   4   7
HETATM    7  O   UNL     1      43.544 -10.215   7.399  1.00  0.00    -0.342 OA
BRANCH   7   8
HETATM    8  C   UNL     1      44.745 -10.210   8.168  1.00  0.00     0.278 C 
BRANCH   8   9
HETATM    9  C   UNL     1      44.449 -10.252   9.669  1.00  0.00     0.246 C 
HETATM   10  N   UNL     1      43.334  -9.510  10.018  1.00  0.00    -0.325 N 
HETATM   11  H   UNL     1      42.819  -9.117   9.236  1.00  0.00     0.169 HD
HETATM   12  O   UNL     1      45.203 -10.847  10.435  1.00  0.00    -0.271 OA
BRANCH  10  13
HETATM   13  C   UNL     1      42.832  -9.251  11.309  1.00  0.00     0.037 A 
HETATM   14  C   UNL     1      41.687  -9.858  11.837  1.00  0.00     0.066 A 
HETATM   15  C   UNL     1      41.256  -9.561  13.135  1.00  0.00     0.070 A 
HETATM   16  C   UNL     1      41.981  -8.654  13.908  1.00  0.00     0.037 A 
HETATM   17  C   UNL     1      43.121  -8.041  13.394  1.00  0.00     0.005 A 
HETATM   18  C   UNL     1      43.544  -8.338  12.097  1.00  0.00     0.029 A 
BRANCH  15  19
HETATM   19  O   UNL     1      40.157 -10.088  13.758  1.00  0.00    -0.356 OA
HETATM   20  C   UNL     1      39.351 -10.980  12.993  1.00  0.00     0.210 C 
ENDBRANCH  15  19
ENDBRANCH  10  13
ENDBRANCH   8   9
ENDBRANCH   7   8
ENDBRANCH   4   7
BRANCH   1  21
HETATM   21  C   UNL     1      42.523 -15.281   5.102  1.00  0.00     0.270 C 
HETATM   22  N   UNL     1      43.610 -15.875   4.507  1.00  0.00    -0.259 N 
HETATM   23  H   UNL     1      44.477 -15.391   4.331  1.00  0.00     0.191 HD
HETATM   24  O   UNL     1      41.386 -15.733   5.127  1.00  0.00    -0.266 OA
BRANCH  22  25
HETATM   25  N   UNL     1      43.449 -17.019   3.816  1.00  0.00    -0.263 N 
HETATM   26  C   UNL     1      43.632 -18.256   4.368  1.00  0.00     0.030 A 
HETATM   27  C   UNL     1      43.828 -18.482   5.821  1.00  0.00     0.070 C 
HETATM   28  C   UNL     1      43.573 -19.163   3.325  1.00  0.00     0.028 A 
HETATM   29  C   UNL     1      43.384 -18.430   2.126  1.00  0.00     0.028 A 
HETATM   30  C   UNL     1      43.332 -17.087   2.454  1.00  0.00     0.030 A 
HETATM   31  C   UNL     1      43.140 -15.902   1.582  1.00  0.00     0.070 C 
ENDBRANCH  22  25
ENDBRANCH   1  21
TORSDOF 7
ENDMDL
MODEL 2
REMARK VINA RESULT:      -8.1      1.380      1.985
REMARK  7 active torsions:
REMARK  status: ('A' for Active; 'I' for Inactive)
REMARK    1  A    between atoms: N_3  and  N_4 
REMARK       I    between atoms: N_4  and  C_5 
REMARK    2  A    between atoms: C_5  and  C_6 
REMARK    3  A    between atoms: C_9  and  O_10 
REMARK    4  A    between atoms: O_10  and  C_11 
REMARK    5  A    between atoms: C_11  and  C_12 
REMARK       I    between atoms: C_12  and  N_13 
REMARK    6  A    between atoms: N_13  and  C_14 
REMARK    7  A    between atoms: C_16  and  O_17 
ROOT
HETATM    1  C   UNL     1      42.867 -12.855   6.012  1.00  0.00     0.033 A 
HETATM    2  C   UNL     1      44.056 -12.825   6.750  1.00  0.00     0.020 A 
HETATM    3  C   UNL     1      44.392 -11.677   7.476  1.00  0.00     0.038 A 
HETATM    4  C   UNL     1      43.559 -10.554   7.457  1.00  0.00     0.069 A 
HETATM    5  C   UNL     1      42.362 -10.597   6.740  1.00  0.00     0.038 A 
HETATM    6  C   UNL     1      42.015 -11.746   6.023  1.00  0.00     0.020 A 
ENDROOT
BRANCH   4   7
HETATM    7  O   UNL     1      43.994  -9.490   8.201  1.00  0.00    -0.342 OA
BRANCH   7   8
HETATM    8  C   UNL     1      44.973  -9.798   9.192  1.00  0.00     0.278 C 
BRANCH   8   9
HETATM    9  C   UNL     1      44.332 -10.025  10.563  1.00  0.00     0.246 C 
HETATM   10  N   UNL     1      43.532  -8.969  10.962  1.00  0.00    -0.325 N 
HETATM   11  H   UNL     1      43.408  -8.238  10.268  1.00  0.00     0.169 HD
HETATM   12  O   UNL     1      44.598 -11.031  11.214  1.00  0.00    -0.271 OA
BRANCH  10  13
HETATM   13  C   UNL     1      42.869  -8.799  12.195  1.00  0.00     0.037 A 
HETATM   14  C   UNL     1      43.289  -7.909  13.190  1.00  0.00     0.066 A 
HETATM   15  C   UNL     1      42.572  -7.785  14.384  1.00  0.00     0.070 A 
HETATM   16  C   UNL     1      41.425  -8.554  14.579  1.00  0.00     0.037 A 
HETATM   17  C   UNL     1      40.997  -9.445  13.598  1.00  0.00     0.005 A 
HETATM   18  C   UNL     1      41.719  -9.568  12.411  1.00  0.00     0.029 A 
BRANCH  15  19
HETATM   19  O   UNL     1      42.883  -6.953  15.426  1.00  0.00    -0.356 OA
HETATM   20  C   UNL     1      41.792  -6.414  16.166  1.00  0.00     0.210 C 
ENDBRANCH  15  19
ENDBRANCH  10  13
ENDBRANCH   8   9
ENDBRANCH   7   8
ENDBRANCH   4   7
BRANCH   1  21
HETATM   21  C   UNL     1      42.466 -14.049   5.224  1.00  0.00     0.270 C 
HETATM   22  N   UNL     1      43.507 -14.834   4.793  1.00  0.00    -0.259 N 
HETATM   23  H   UNL     1      44.473 -14.548   4.841  1.00  0.00     0.191 HD
HETATM   24  O   UNL     1      41.281 -14.234   4.980  1.00  0.00    -0.266 OA
BRANCH  22  25
HETATM   25  N   UNL     1      43.263 -15.868   3.966  1.00  0.00    -0.263 N 
HETATM   26  C   UNL     1      43.273 -17.172   4.379  1.00  0.00     0.030 A 
HETATM   27  C   UNL     1      43.353 -17.578   5.803  1.00  0.00     0.070 C 
HETATM   28  C   UNL     1      43.179 -17.945   3.235  1.00  0.00     0.028 A 
HETATM   29  C   UNL     1      43.148 -17.067   2.121  1.00  0.00     0.028 A 
HETATM   30  C   UNL     1      43.225 -15.772   2.602  1.00  0.00     0.030 A 
HETATM   31  C   UNL     1      43.220 -14.483   1.865  1.00  0.00     0.070 C 
ENDBRANCH  22  25
ENDBRANCH   1  21
TORSDOF 7
ENDMDL
MODEL 3
REMARK VINA RESULT:      -8.1      1.628      2.221
REMARK  7 active torsions:
REMARK  status: ('A' for Active; 'I' for Inactive)
REMARK    1  A    between atoms: N_3  and  N_4 
REMARK       I    between atoms: N_4  and  C_5 
REMARK    2  A    between atoms: C_5  and  C_6 
REMARK    3  A    between atoms: C_9  and  O_10 
REMARK    4  A    between atoms: O_10  and  C_11 
REMARK    5  A    between atoms: C_11  and  C_12 
REMARK       I    between atoms: C_12  and  N_13 
REMARK    6  A    between atoms: N_13  and  C_14 
REMARK    7  A    between atoms: C_16  and  O_17 
ROOT
HETATM    1  C   UNL     1      42.831 -12.571   6.176  1.00  0.00     0.033 A 
HETATM    2  C   UNL     1      44.163 -12.715   6.582  1.00  0.00     0.020 A 
HETATM    3  C   UNL     1      44.825 -11.638   7.182  1.00  0.00     0.038 A 
HETATM    4  C   UNL     1      44.174 -10.415   7.365  1.00  0.00     0.069 A 
HETATM    5  C   UNL     1      42.838 -10.283   6.982  1.00  0.00     0.038 A 
HETATM    6  C   UNL     1      42.167 -11.359   6.395  1.00  0.00     0.020 A 
ENDROOT
BRANCH   4   7
HETATM    7  O   UNL     1      44.924  -9.436   7.958  1.00  0.00    -0.342 OA
BRANCH   7   8
HETATM    8  C   UNL     1      45.639  -9.837   9.126  1.00  0.00     0.278 C 
BRANCH   8   9
HETATM    9  C   UNL     1      44.697 -10.059  10.311  1.00  0.00     0.246 C 
HETATM   10  N   UNL     1      43.926  -8.947  10.600  1.00  0.00    -0.325 N 
HETATM   11  H   UNL     1      44.022  -8.176   9.945  1.00  0.00     0.169 HD
HETATM   12  O   UNL     1      44.723 -11.116  10.937  1.00  0.00    -0.271 OA
BRANCH  10  13
HETATM   13  C   UNL     1      43.030  -8.766  11.673  1.00  0.00     0.037 A 
HETATM   14  C   UNL     1      41.710  -9.230  11.673  1.00  0.00     0.066 A 
HETATM   15  C   UNL     1      40.882  -9.025  12.782  1.00  0.00     0.070 A 
HETATM   16  C   UNL     1      41.383  -8.353  13.898  1.00  0.00     0.037 A 
HETATM   17  C   UNL     1      42.694  -7.884  13.910  1.00  0.00     0.005 A 
HETATM   18  C   UNL     1      43.514  -8.088  12.799  1.00  0.00     0.029 A 
BRANCH  15  19
HETATM   19  O   UNL     1      39.579  -9.431  12.899  1.00  0.00    -0.356 OA
HETATM   20  C   UNL     1      39.345 -10.835  12.943  1.00  0.00     0.210 C 
ENDBRANCH  15  19
ENDBRANCH  10  13
ENDBRANCH   8   9
ENDBRANCH   7   8
ENDBRANCH   4   7
BRANCH   1  21
HETATM   21  C   UNL     1      42.084 -13.683   5.534  1.00  0.00     0.270 C 
HETATM   22  N   UNL     1      42.213 -13.753   4.168  1.00  0.00    -0.259 N 
HETATM   23  H   UNL     1      42.626 -13.020   3.613  1.00  0.00     0.191 HD
HETATM   24  O   UNL     1      41.392 -14.418   6.226  1.00  0.00    -0.266 OA
BRANCH  22  25
HETATM   25  N   UNL     1      41.478 -14.644   3.475  1.00  0.00    -0.263 N 
HETATM   26  C   UNL     1      41.965 -15.853   3.064  1.00  0.00     0.030 A 
HETATM   27  C   UNL     1      43.273 -16.401   3.503  1.00  0.00     0.070 C 
HETATM   28  C   UNL     1      41.006 -16.397   2.227  1.00  0.00     0.028 A 
HETATM   29  C   UNL     1      39.946 -15.462   2.121  1.00  0.00     0.028 A 
HETATM   30  C   UNL     1      40.273 -14.361   2.892  1.00  0.00     0.030 A 
HETATM   31  C   UNL     1      39.511 -13.111   3.135  1.00  0.00     0.070 C 
ENDBRANCH  22  25
ENDBRANCH   1  21
TORSDOF 7
ENDMDL
MODEL 4
REMARK VINA RESULT:      -8.1      1.016      2.081
REMARK  7 active torsions:
REMARK  status: ('A' for Active; 'I' for Inactive)
REMARK    1  A    between atoms: N_3  and  N_4 
REMARK       I    between atoms: N_4  and  C_5 
REMARK    2  A    between atoms: C_5  and  C_6 
REMARK    3  A    between atoms: C_9  and  O_10 
REMARK    4  A    between atoms: O_10  and  C_11 
REMARK    5  A    between atoms: C_11  and  C_12 
REMARK       I    between atoms: C_12  and  N_13 
REMARK    6  A    between atoms: N_13  and  C_14 
REMARK    7  A    between atoms: C_16  and  O_17 
ROOT
HETATM    1  C   UNL     1      42.978 -12.938   5.927  1.00  0.00     0.033 A 
HETATM    2  C   UNL     1      42.179 -11.790   5.968  1.00  0.00     0.020 A 
HETATM    3  C   UNL     1      42.636 -10.652   6.641  1.00  0.00     0.038 A 
HETATM    4  C   UNL     1      43.876 -10.656   7.287  1.00  0.00     0.069 A 
HETATM    5  C   UNL     1      44.681 -11.796   7.223  1.00  0.00     0.038 A 
HETATM    6  C   UNL     1      44.235 -12.931   6.541  1.00  0.00     0.020 A 
ENDROOT
BRANCH   4   7
HETATM    7  O   UNL     1      44.213  -9.488   7.915  1.00  0.00    -0.342 OA
BRANCH   7   8
HETATM    8  C   UNL     1      45.204  -9.606   8.934  1.00  0.00     0.278 C 
BRANCH   8   9
HETATM    9  C   UNL     1      44.574  -9.909  10.296  1.00  0.00     0.246 C 
HETATM   10  N   UNL     1      43.624  -8.974  10.668  1.00  0.00    -0.325 N 
HETATM   11  H   UNL     1      43.412  -8.274   9.963  1.00  0.00     0.169 HD
HETATM   12  O   UNL     1      44.966 -10.862  10.964  1.00  0.00    -0.271 OA
BRANCH  10  13
HETATM   13  C   UNL     1      42.921  -8.888  11.886  1.00  0.00     0.037 A 
HETATM   14  C   UNL     1      41.782  -9.645  12.185  1.00  0.00     0.066 A 
HETATM   15  C   UNL     1      41.144  -9.515  13.423  1.00  0.00     0.070 A 
HETATM   16  C   UNL     1      41.654  -8.624  14.368  1.00  0.00     0.037 A 
HETATM   17  C   UNL     1      42.785  -7.863  14.083  1.00  0.00     0.005 A 
HETATM   18  C   UNL     1      43.415  -7.994  12.844  1.00  0.00     0.029 A 
BRANCH  15  19
HETATM   19  O   UNL     1      40.029 -10.198  13.828  1.00  0.00    -0.356 OA
HETATM   20  C   UNL     1      39.346 -10.960  12.837  1.00  0.00     0.210 C 
ENDBRANCH  15  19
ENDBRANCH  10  13
ENDBRANCH   8   9
ENDBRANCH   7   8
ENDBRANCH   4   7
BRANCH   1  21
HETATM   21  C   UNL     1      42.538 -14.173   5.227  1.00  0.00     0.270 C 
HETATM   22  N   UNL     1      43.326 -14.547   4.165  1.00  0.00    -0.259 N 
HETATM   23  H   UNL     1      44.038 -13.954   3.768  1.00  0.00     0.191 HD
HETATM   24  O   UNL     1      41.518 -14.739   5.596  1.00  0.00    -0.266 OA
BRANCH  22  25
HETATM   25  N   UNL     1      42.946 -15.576   3.385  1.00  0.00    -0.263 N 
HETATM   26  C   UNL     1      42.084 -15.436   2.333  1.00  0.00     0.030 A 
HETATM   27  C   UNL     1      41.634 -14.121   1.814  1.00  0.00     0.070 C 
HETATM   28  C   UNL     1      41.781 -16.716   1.902  1.00  0.00     0.028 A 
HETATM   29  C   UNL     1      42.460 -17.629   2.749  1.00  0.00     0.028 A 
HETATM   30  C   UNL     1      43.165 -16.893   3.685  1.00  0.00     0.030 A 
HETATM   31  C   UNL     1      44.044 -17.353   4.789  1.00  0.00     0.070 C 
ENDBRANCH  22  25
ENDBRANCH   1  21
TORSDOF 7
ENDMDL
MODEL 5
REMARK VINA RESULT:      -8.0      1.586      2.067
REMARK  7 active torsions:
REMARK  status: ('A' for Active; 'I' for Inactive)
REMARK    1  A    between atoms: N_3  and  N_4 
REMARK       I    between atoms: N_4  and  C_5 
REMARK    2  A    between atoms: C_5  and  C_6 
REMARK    3  A    between atoms: C_9  and  O_10 
REMARK    4  A    between atoms: O_10  and  C_11 
REMARK    5  A    between atoms: C_11  and  C_12 
REMARK       I    between atoms: C_12  and  N_13 
REMARK    6  A    between atoms: N_13  and  C_14 
REMARK    7  A    between atoms: C_16  and  O_17 
ROOT
HETATM    1  C   UNL     1      42.662 -14.054   5.519  1.00  0.00     0.033 A 
HETATM    2  C   UNL     1      41.848 -12.964   5.191  1.00  0.00     0.020 A 
HETATM    3  C   UNL     1      42.097 -11.715   5.770  1.00  0.00     0.038 A 
HETATM    4  C   UNL     1      43.140 -11.550   6.685  1.00  0.00     0.069 A 
HETATM    5  C   UNL     1      43.966 -12.634   6.990  1.00  0.00     0.038 A 
HETATM    6  C   UNL     1      43.730 -13.881   6.405  1.00  0.00     0.020 A 
ENDROOT
BRANCH   4   7
HETATM    7  O   UNL     1      43.283 -10.284   7.187  1.00  0.00    -0.342 OA
BRANCH   7   8
HETATM    8  C   UNL     1      44.582  -9.968   7.685  1.00  0.00     0.278 C 
BRANCH   8   9
HETATM    9  C   UNL     1      44.529  -8.826   8.702  1.00  0.00     0.246 C 
HETATM   10  N   UNL     1      43.565  -9.017   9.676  1.00  0.00    -0.325 N 
HETATM   11  H   UNL     1      43.091  -9.915   9.638  1.00  0.00     0.169 HD
HETATM   12  O   UNL     1      45.251  -7.840   8.568  1.00  0.00    -0.271 OA
BRANCH  10  13
HETATM   13  C   UNL     1      43.180  -8.132  10.703  1.00  0.00     0.037 A 
HETATM   14  C   UNL     1      43.353  -8.396  12.066  1.00  0.00     0.066 A 
HETATM   15  C   UNL     1      42.957  -7.462  13.029  1.00  0.00     0.070 A 
HETATM   16  C   UNL     1      42.389  -6.254  12.622  1.00  0.00     0.037 A 
HETATM   17  C   UNL     1      42.210  -5.980  11.269  1.00  0.00     0.005 A 
HETATM   18  C   UNL     1      42.602  -6.918  10.312  1.00  0.00     0.029 A 
BRANCH  15  19
HETATM   19  O   UNL     1      43.075  -7.606  14.386  1.00  0.00    -0.356 OA
HETATM   20  C   UNL     1      42.271  -6.754  15.195  1.00  0.00     0.210 C 
ENDBRANCH  15  19
ENDBRANCH  10  13
ENDBRANCH   8   9
ENDBRANCH   7   8
ENDBRANCH   4   7
BRANCH   1  21
HETATM   21  C   UNL     1      42.439 -15.401   4.933  1.00  0.00     0.270 C 
HETATM   22  N   UNL     1      43.567 -16.011   4.439  1.00  0.00    -0.259 N 
HETATM   23  H   UNL     1      44.445 -15.532   4.313  1.00  0.00     0.191 HD
HETATM   24  O   UNL     1      41.303 -15.855   4.889  1.00  0.00    -0.266 OA
BRANCH  22  25
HETATM   25  N   UNL     1      43.456 -17.176   3.774  1.00  0.00    -0.263 N 
HETATM   26  C   UNL     1      43.671 -18.393   4.360  1.00  0.00     0.030 A 
HETATM   27  C   UNL     1      43.847 -18.577   5.821  1.00  0.00     0.070 C 
HETATM   28  C   UNL     1      43.661 -19.326   3.338  1.00  0.00     0.028 A 
HETATM   29  C   UNL     1      43.470 -18.629   2.118  1.00  0.00     0.028 A 
HETATM   30  C   UNL     1      43.367 -17.281   2.412  1.00  0.00     0.030 A 
HETATM   31  C   UNL     1      43.152 -16.124   1.507  1.00  0.00     0.070 C 
ENDBRANCH  22  25
ENDBRANCH   1  21
TORSDOF 7
ENDMDL
MODEL 6
REMARK VINA RESULT:      -7.9      1.738      1.909
REMARK  7 active torsions:
REMARK  status: ('A' for Active; 'I' for Inactive)
REMARK    1  A    between atoms: N_3  and  N_4 
REMARK       I    between atoms: N_4  and  C_5 
REMARK    2  A    between atoms: C_5  and  C_6 
REMARK    3  A    between atoms: C_9  and  O_10 
REMARK    4  A    between atoms: O_10  and  C_11 
REMARK    5  A    between atoms: C_11  and  C_12 
REMARK       I    between atoms: C_12  and  N_13 
REMARK    6  A    between atoms: N_13  and  C_14 
REMARK    7  A    between atoms: C_16  and  O_17 
ROOT
HETATM    1  C   UNL     1      41.471 -14.030   5.110  1.00  0.00     0.033 A 
HETATM    2  C   UNL     1      42.462 -13.073   4.862  1.00  0.00     0.020 A 
HETATM    3  C   UNL     1      42.224 -11.732   5.183  1.00  0.00     0.038 A 
HETATM    4  C   UNL     1      41.002 -11.337   5.735  1.00  0.00     0.069 A 
HETATM    5  C   UNL     1      40.026 -12.299   6.004  1.00  0.00     0.038 A 
HETATM    6  C   UNL     1      40.262 -13.642   5.697  1.00  0.00     0.020 A 
ENDROOT
BRANCH   4   7
HETATM    7  O   UNL     1      40.885 -10.000   6.002  1.00  0.00    -0.342 OA
BRANCH   7   8
HETATM    8  C   UNL     1      41.995  -9.414   6.680  1.00  0.00     0.278 C 
BRANCH   8   9
HETATM    9  C   UNL     1      41.617  -8.970   8.095  1.00  0.00     0.246 C 
HETATM   10  N   UNL     1      42.547  -9.353   9.045  1.00  0.00    -0.325 N 
HETATM   11  H   UNL     1      43.384  -9.792   8.672  1.00  0.00     0.169 HD
HETATM   12  O   UNL     1      40.550  -8.397   8.302  1.00  0.00    -0.271 OA
BRANCH  10  13
HETATM   13  C   UNL     1      42.475  -9.198  10.444  1.00  0.00     0.037 A 
HETATM   14  C   UNL     1      41.492  -9.790  11.245  1.00  0.00     0.066 A 
HETATM   15  C   UNL     1      41.493  -9.601  12.631  1.00  0.00     0.070 A 
HETATM   16  C   UNL     1      42.487  -8.817  13.217  1.00  0.00     0.037 A 
HETATM   17  C   UNL     1      43.469  -8.220  12.431  1.00  0.00     0.005 A 
HETATM   18  C   UNL     1      43.461  -8.408  11.048  1.00  0.00     0.029 A 
BRANCH  15  19
HETATM   19  O   UNL     1      40.588 -10.126  13.515  1.00  0.00    -0.356 OA
HETATM   20  C   UNL     1      39.398 -10.680  12.963  1.00  0.00     0.210 C 
ENDBRANCH  15  19
ENDBRANCH  10  13
ENDBRANCH   8   9
ENDBRANCH   7   8
ENDBRANCH   4   7
BRANCH   1  21
HETATM   21  C   UNL     1      41.673 -15.466   4.786  1.00  0.00     0.270 C 
HETATM   22  N   UNL     1      42.985 -15.846   4.634  1.00  0.00    -0.259 N 
HETATM   23  H   UNL     1      43.746 -15.189   4.566  1.00  0.00     0.191 HD
HETATM   24  O   UNL     1      40.696 -16.190   4.640  1.00  0.00    -0.266 OA
BRANCH  22  25
HETATM   25  N   UNL     1      43.272 -17.093   4.216  1.00  0.00    -0.263 N 
HETATM   26  C   UNL     1      43.619 -18.104   5.069  1.00  0.00     0.030 A 
HETATM   27  C   UNL     1      43.522 -17.998   6.545  1.00  0.00     0.070 C 
HETATM   28  C   UNL     1      44.027 -19.163   4.275  1.00  0.00     0.028 A 
HETATM   29  C   UNL     1      43.947 -18.744   2.923  1.00  0.00     0.028 A 
HETATM   30  C   UNL     1      43.494 -17.436   2.910  1.00  0.00     0.030 A 
HETATM   31  C   UNL     1      43.226 -16.535   1.762  1.00  0.00     0.070 C 
ENDBRANCH  22  25
ENDBRANCH   1  21
TORSDOF 7
ENDMDL
MODEL 7
REMARK VINA RESULT:      -7.9      2.459      9.685
REMARK  7 active torsions:
REMARK  status: ('A' for Active; 'I' for Inactive)
REMARK    1  A    between atoms: N_3  and  N_4 
REMARK       I    between atoms: N_4  and  C_5 
REMARK    2  A    between atoms: C_5  and  C_6 
REMARK    3  A    between atoms: C_9  and  O_10 
REMARK    4  A    between atoms: O_10  and  C_11 
REMARK    5  A    between atoms: C_11  and  C_12 
REMARK       I    between atoms: C_12  and  N_13 
REMARK    6  A    between atoms: N_13  and  C_14 
REMARK    7  A    between atoms: C_16  and  O_17 
ROOT
HETATM    1  C   UNL     1      42.883 -11.798   5.845  1.00  0.00     0.033 A 
HETATM    2  C   UNL     1      41.579 -12.283   5.689  1.00  0.00     0.020 A 
HETATM    3  C   UNL     1      41.097 -12.575   4.409  1.00  0.00     0.038 A 
HETATM    4  C   UNL     1      41.900 -12.372   3.282  1.00  0.00     0.069 A 
HETATM    5  C   UNL     1      43.208 -11.912   3.444  1.00  0.00     0.038 A 
HETATM    6  C   UNL     1      43.699 -11.630   4.722  1.00  0.00     0.020 A 
ENDROOT
BRANCH   4   7
HETATM    7  O   UNL     1      41.318 -12.689   2.084  1.00  0.00    -0.342 OA
BRANCH   7   8
HETATM    8  C   UNL     1      41.882 -13.813   1.411  1.00  0.00     0.278 C 
BRANCH   8   9
HETATM    9  C   UNL     1      41.820 -15.074   2.277  1.00  0.00     0.246 C 
HETATM   10  N   UNL     1      43.072 -15.534   2.644  1.00  0.00    -0.325 N 
HETATM   11  H   UNL     1      43.847 -14.936   2.370  1.00  0.00     0.169 HD
HETATM   12  O   UNL     1      40.741 -15.606   2.524  1.00  0.00    -0.271 OA
BRANCH  10  13
HETATM   13  C   UNL     1      43.392 -16.710   3.352  1.00  0.00     0.037 A 
HETATM   14  C   UNL     1      43.421 -17.985   2.776  1.00  0.00     0.066 A 
HETATM   15  C   UNL     1      43.762 -19.106   3.540  1.00  0.00     0.070 A 
HETATM   16  C   UNL     1      44.078 -18.946   4.890  1.00  0.00     0.037 A 
HETATM   17  C   UNL     1      44.050 -17.684   5.477  1.00  0.00     0.005 A 
HETATM   18  C   UNL     1      43.706 -16.570   4.710  1.00  0.00     0.029 A 
BRANCH  15  19
HETATM   19  O   UNL     1      43.825 -20.398   3.090  1.00  0.00    -0.356 OA
HETATM   20  C   UNL     1      43.743 -20.592   1.682  1.00  0.00     0.210 C 
ENDBRANCH  15  19
ENDBRANCH  10  13
ENDBRANCH   8   9
ENDBRANCH   7   8
ENDBRANCH   4   7
BRANCH   1  21
HETATM   21  C   UNL     1      43.441 -11.472   7.182  1.00  0.00     0.270 C 
HETATM   22  N   UNL     1      43.434 -10.135   7.503  1.00  0.00    -0.259 N 
HETATM   23  H   UNL     1      43.238  -9.407   6.833  1.00  0.00     0.191 HD
HETATM   24  O   UNL     1      43.895 -12.371   7.877  1.00  0.00    -0.266 OA
BRANCH  22  25
HETATM   25  N   UNL     1      44.032  -9.719   8.635  1.00  0.00    -0.263 N 
HETATM   26  C   UNL     1      45.389  -9.712   8.803  1.00  0.00     0.030 A 
HETATM   27  C   UNL     1      46.350  -9.968   7.703  1.00  0.00     0.070 C 
HETATM   28  C   UNL     1      45.616  -9.414  10.135  1.00  0.00     0.028 A 
HETATM   29  C   UNL     1      44.355  -9.276  10.768  1.00  0.00     0.028 A 
HETATM   30  C   UNL     1      43.376  -9.494   9.815  1.00  0.00     0.030 A 
HETATM   31  C   UNL     1      41.898  -9.460   9.945  1.00  0.00     0.070 C 
ENDBRANCH  22  25
ENDBRANCH   1  21
TORSDOF 7
ENDMDL
MODEL 8
REMARK VINA RESULT:      -7.9      2.245      9.840
REMARK  7 active torsions:
REMARK  status: ('A' for Active; 'I' for Inactive)
REMARK    1  A    between atoms: N_3  and  N_4 
REMARK       I    between atoms: N_4  and  C_5 
REMARK    2  A    between atoms: C_5  and  C_6 
REMARK    3  A    between atoms: C_9  and  O_10 
REMARK    4  A    between atoms: O_10  and  C_11 
REMARK    5  A    between atoms: C_11  and  C_12 
REMARK       I    between atoms: C_12  and  N_13 
REMARK    6  A    between atoms: N_13  and  C_14 
REMARK    7  A    between atoms: C_16  and  O_17 
ROOT
HETATM    1  C   UNL     1      42.753 -10.070   6.507  1.00  0.00     0.033 A 
HETATM    2  C   UNL     1      43.727 -11.005   6.135  1.00  0.00     0.020 A 
HETATM    3  C   UNL     1      43.633 -11.647   4.896  1.00  0.00     0.038 A 
HETATM    4  C   UNL     1      42.567 -11.376   4.033  1.00  0.00     0.069 A 
HETATM    5  C   UNL     1      41.612 -10.425   4.396  1.00  0.00     0.038 A 
HETATM    6  C   UNL     1      41.708  -9.770   5.628  1.00  0.00     0.020 A 
ENDROOT
BRANCH   4   7
HETATM    7  O   UNL     1      42.580 -12.068   2.852  1.00  0.00    -0.342 OA
BRANCH   7   8
HETATM    8  C   UNL     1      41.412 -12.842   2.585  1.00  0.00     0.278 C 
BRANCH   8   9
HETATM    9  C   UNL     1      41.508 -14.236   3.207  1.00  0.00     0.246 C 
HETATM   10  N   UNL     1      42.773 -14.786   3.099  1.00  0.00    -0.325 N 
HETATM   11  H   UNL     1      43.478 -14.167   2.709  1.00  0.00     0.169 HD
HETATM   12  O   UNL     1      40.510 -14.778   3.676  1.00  0.00    -0.271 OA
BRANCH  10  13
HETATM   13  C   UNL     1      43.194 -16.079   3.474  1.00  0.00     0.037 A 
HETATM   14  C   UNL     1      43.182 -17.182   2.614  1.00  0.00     0.066 A 
HETATM   15  C   UNL     1      43.628 -18.433   3.053  1.00  0.00     0.070 A 
HETATM   16  C   UNL     1      44.092 -18.576   4.362  1.00  0.00     0.037 A 
HETATM   17  C   UNL     1      44.107 -17.486   5.228  1.00  0.00     0.005 A 
HETATM   18  C   UNL     1      43.656 -16.242   4.786  1.00  0.00     0.029 A 
BRANCH  15  19
HETATM   19  O   UNL     1      43.665 -19.581   2.308  1.00  0.00    -0.356 OA
HETATM   20  C   UNL     1      43.788 -20.807   3.023  1.00  0.00     0.210 C 
ENDBRANCH  15  19
ENDBRANCH  10  13
ENDBRANCH   8   9
ENDBRANCH   7   8
ENDBRANCH   4   7
BRANCH   1  21
HETATM   21  C   UNL     1      42.807  -9.362   7.812  1.00  0.00     0.270 C 
HETATM   22  N   UNL     1      42.746 -10.177   8.916  1.00  0.00    -0.259 N 
HETATM   23  H   UNL     1      42.505 -11.155   8.869  1.00  0.00     0.191 HD
HETATM   24  O   UNL     1      42.859  -8.139   7.828  1.00  0.00    -0.266 OA
BRANCH  22  25
HETATM   25  N   UNL     1      42.659  -9.631  10.144  1.00  0.00    -0.263 N 
HETATM   26  C   UNL     1      43.736  -9.488  10.974  1.00  0.00     0.030 A 
HETATM   27  C   UNL     1      45.136  -9.729  10.547  1.00  0.00     0.070 C 
HETATM   28  C   UNL     1      43.235  -9.080  12.198  1.00  0.00     0.028 A 
HETATM   29  C   UNL     1      41.822  -9.015  12.086  1.00  0.00     0.028 A 
HETATM   30  C   UNL     1      41.482  -9.387  10.797  1.00  0.00     0.030 A 
HETATM   31  C   UNL     1      40.147  -9.479  10.156  1.00  0.00     0.070 C 
ENDBRANCH  22  25
ENDBRANCH   1  21
TORSDOF 7
ENDMDL
MODEL 9
REMARK VINA RESULT:      -7.8      3.805      7.274
REMARK  7 active torsions:
REMARK  status: ('A' for Active; 'I' for Inactive)
REMARK    1  A    between atoms: N_3  and  N_4 
REMARK       I    between atoms: N_4  and  C_5 
REMARK    2  A    between atoms: C_5  and  C_6 
REMARK    3  A    between atoms: C_9  and  O_10 
REMARK    4  A    between atoms: O_10  and  C_11 
REMARK    5  A    between atoms: C_11  and  C_12 
REMARK       I    between atoms: C_12  and  N_13 
REMARK    6  A    between atoms: N_13  and  C_14 
REMARK    7  A    between atoms: C_16  and  O_17 
ROOT
HETATM    1  C   UNL     1      41.294 -14.921   1.670  1.00  0.00     0.033 A 
HETATM    2  C   UNL     1      42.663 -15.187   1.547  1.00  0.00     0.020 A 
HETATM    3  C   UNL     1      43.260 -16.142   2.377  1.00  0.00     0.038 A 
HETATM    4  C   UNL     1      42.506 -16.820   3.340  1.00  0.00     0.069 A 
HETATM    5  C   UNL     1      41.136 -16.570   3.442  1.00  0.00     0.038 A 
HETATM    6  C   UNL     1      40.531 -15.627   2.606  1.00  0.00     0.020 A 
ENDROOT
BRANCH   4   7
HETATM    7  O   UNL     1      43.201 -17.726   4.095  1.00  0.00    -0.342 OA
BRANCH   7   8
HETATM    8  C   UNL     1      43.123 -17.532   5.506  1.00  0.00     0.278 C 
BRANCH   8   9
HETATM    9  C   UNL     1      43.814 -16.234   5.931  1.00  0.00     0.246 C 
HETATM   10  N   UNL     1      43.008 -15.120   5.772  1.00  0.00    -0.325 N 
HETATM   11  H   UNL     1      42.055 -15.318   5.484  1.00  0.00     0.169 HD
HETATM   12  O   UNL     1      44.985 -16.246   6.301  1.00  0.00    -0.271 OA
BRANCH  10  13
HETATM   13  C   UNL     1      43.348 -13.767   5.972  1.00  0.00     0.037 A 
HETATM   14  C   UNL     1      43.816 -13.251   7.185  1.00  0.00     0.066 A 
HETATM   15  C   UNL     1      44.147 -11.897   7.304  1.00  0.00     0.070 A 
HETATM   16  C   UNL     1      44.012 -11.057   6.198  1.00  0.00     0.037 A 
HETATM   17  C   UNL     1      43.545 -11.557   4.985  1.00  0.00     0.005 A 
HETATM   18  C   UNL     1      43.212 -12.908   4.873  1.00  0.00     0.029 A 
BRANCH  15  19
HETATM   19  O   UNL     1      44.613 -11.278   8.433  1.00  0.00    -0.356 OA
HETATM   20  C   UNL     1      45.761 -10.449   8.285  1.00  0.00     0.210 C 
ENDBRANCH  15  19
ENDBRANCH  10  13
ENDBRANCH   8   9
ENDBRANCH   7   8
ENDBRANCH   4   7
BRANCH   1  21
HETATM   21  C   UNL     1      40.612 -13.917   0.814  1.00  0.00     0.270 C 
HETATM   22  N   UNL     1      41.413 -13.325  -0.134  1.00  0.00    -0.259 N 
HETATM   23  H   UNL     1      42.417 -13.418  -0.145  1.00  0.00     0.191 HD
HETATM   24  O   UNL     1      39.434 -13.655   1.020  1.00  0.00    -0.266 OA
BRANCH  22  25
HETATM   25  N   UNL     1      40.928 -12.313  -0.877  1.00  0.00    -0.263 N 
HETATM   26  C   UNL     1      40.472 -12.477  -2.155  1.00  0.00     0.030 A 
HETATM   27  C   UNL     1      40.272 -13.805  -2.787  1.00  0.00     0.070 C 
HETATM   28  C   UNL     1      40.244 -11.207  -2.656  1.00  0.00     0.028 A 
HETATM   29  C   UNL     1      40.612 -10.275  -1.652  1.00  0.00     0.028 A 
HETATM   30  C   UNL     1      41.059 -10.989  -0.554  1.00  0.00     0.030 A 
HETATM   31  C   UNL     1      41.548 -10.504   0.760  1.00  0.00     0.070 C 
ENDBRANCH  22  25
ENDBRANCH   1  21
TORSDOF 7
ENDMDL
MODEL 10
REMARK VINA RESULT:      -7.7      1.759      2.747
REMARK  7 active torsions:
REMARK  status: ('A' for Active; 'I' for Inactive)
REMARK    1  A    between atoms: N_3  and  N_4 
REMARK       I    between atoms: N_4  and  C_5 
REMARK    2  A    between atoms: C_5  and  C_6 
REMARK    3  A    between atoms: C_9  and  O_10 
REMARK    4  A    between atoms: O_10  and  C_11 
REMARK    5  A    between atoms: C_11  and  C_12 
REMARK       I    between atoms: C_12  and  N_13 
REMARK    6  A    between atoms: N_13  and  C_14 
REMARK    7  A    between atoms: C_16  and  O_17 
ROOT
HETATM    1  C   UNL     1      42.638 -14.074   5.569  1.00  0.00     0.033 A 
HETATM    2  C   UNL     1      41.784 -13.018   5.227  1.00  0.00     0.020 A 
HETATM    3  C   UNL     1      41.947 -11.771   5.838  1.00  0.00     0.038 A 
HETATM    4  C   UNL     1      42.943 -11.573   6.799  1.00  0.00     0.069 A 
HETATM    5  C   UNL     1      43.809 -12.621   7.118  1.00  0.00     0.038 A 
HETATM    6  C   UNL     1      43.659 -13.866   6.501  1.00  0.00     0.020 A 
ENDROOT
BRANCH   4   7
HETATM    7  O   UNL     1      43.003 -10.312   7.329  1.00  0.00    -0.342 OA
BRANCH   7   8
HETATM    8  C   UNL     1      44.314  -9.766   7.460  1.00  0.00     0.278 C 
BRANCH   8   9
HETATM    9  C   UNL     1      44.390  -8.759   8.610  1.00  0.00     0.246 C 
HETATM   10  N   UNL     1      43.397  -8.949   9.555  1.00  0.00    -0.325 N 
HETATM   11  H   UNL     1      42.817  -9.769   9.409  1.00  0.00     0.169 HD
HETATM   12  O   UNL     1      45.228  -7.862   8.596  1.00  0.00    -0.271 OA
BRANCH  10  13
HETATM   13  C   UNL     1      43.111  -8.156  10.685  1.00  0.00     0.037 A 
HETATM   14  C   UNL     1      42.419  -6.941  10.631  1.00  0.00     0.066 A 
HETATM   15  C   UNL     1      42.160  -6.215  11.799  1.00  0.00     0.070 A 
HETATM   16  C   UNL     1      42.595  -6.713  13.027  1.00  0.00     0.037 A 
HETATM   17  C   UNL     1      43.287  -7.920  13.095  1.00  0.00     0.005 A 
HETATM   18  C   UNL     1      43.546  -8.637  11.926  1.00  0.00     0.029 A 
BRANCH  15  19
HETATM   19  O   UNL     1      41.495  -5.020  11.872  1.00  0.00    -0.356 OA
HETATM   20  C   UNL     1      41.041  -4.461  10.644  1.00  0.00     0.210 C 
ENDBRANCH  15  19
ENDBRANCH  10  13
ENDBRANCH   8   9
ENDBRANCH   7   8
ENDBRANCH   4   7
BRANCH   1  21
HETATM   21  C   UNL     1      42.506 -15.418   4.950  1.00  0.00     0.270 C 
HETATM   22  N   UNL     1      43.674 -15.941   4.448  1.00  0.00    -0.259 N 
HETATM   23  H   UNL     1      44.519 -15.402   4.338  1.00  0.00     0.191 HD
HETATM   24  O   UNL     1      41.402 -15.943   4.888  1.00  0.00    -0.266 OA
BRANCH  22  25
HETATM   25  N   UNL     1      43.643 -17.095   3.754  1.00  0.00    -0.263 N 
HETATM   26  C   UNL     1      43.377 -17.152   2.414  1.00  0.00     0.030 A 
HETATM   27  C   UNL     1      43.294 -15.953   1.544  1.00  0.00     0.070 C 
HETATM   28  C   UNL     1      43.238 -18.493   2.100  1.00  0.00     0.028 A 
HETATM   29  C   UNL     1      43.393 -19.235   3.299  1.00  0.00     0.028 A 
HETATM   30  C   UNL     1      43.623 -18.337   4.326  1.00  0.00     0.030 A 
HETATM   31  C   UNL     1      43.861 -18.586   5.770  1.00  0.00     0.070 C 
ENDBRANCH  22  25
ENDBRANCH   1  21
TORSDOF 7
ENDMDL
