MODEL 1
REMARK VINA RESULT:      -8.5      0.000      0.000
REMARK  6 active torsions:
REMARK  status: ('A' for Active; 'I' for Inactive)
REMARK    1  A    between atoms: N_4  and  C_5 
REMARK    2  A    between atoms: C_14  and  C_15 
REMARK       I    between atoms: C_15  and  N_16 
REMARK    3  A    between atoms: N_16  and  C_17 
REMARK    4  A    between atoms: C_17  and  C_18 
REMARK    5  A    between atoms: C_18  and  O_19 
REMARK    6  A    between atoms: C_18  and  C_20 
ROOT
HETATM    1  C   UNL     1      42.263 -14.941   5.417  1.00  0.00     0.255 C 
HETATM    2  N   UNL     1      42.084 -16.267   5.741  1.00  0.00    -0.354 N 
HETATM    3  O   UNL     1      43.071 -14.228   6.005  1.00  0.00    -0.268 OA
HETATM    4  H   UNL     1      41.239 -16.729   5.433  1.00  0.00     0.162 HD
ENDROOT
BRANCH   1   5
HETATM    5  C   UNL     1      41.405 -14.421   4.358  1.00  0.00     0.082 C 
HETATM    6  C   UNL     1      40.302 -13.552   4.549  1.00  0.00     0.069 C 
HETATM    7  C   UNL     1      39.765 -13.019   5.829  1.00  0.00     0.073 C 
HETATM    8  N   UNL     1      39.739 -13.195   3.397  1.00  0.00    -0.171 NA
HETATM    9  N   UNL     1      40.407 -13.878   2.436  1.00  0.00    -0.237 N 
HETATM   10  C   UNL     1      41.505 -14.553   2.973  1.00  0.00     0.050 C 
HETATM   11  C   UNL     1      42.600 -15.149   2.160  1.00  0.00     0.071 C 
BRANCH   9  12
HETATM   12  C   UNL     1      39.924 -13.798   1.091  1.00  0.00     0.058 A 
HETATM   13  C   UNL     1      39.944 -14.960   0.297  1.00  0.00     0.033 A 
HETATM   14  C   UNL     1      39.478 -14.934  -1.020  1.00  0.00     0.021 A 
HETATM   15  C   UNL     1      39.009 -13.742  -1.560  1.00  0.00     0.011 A 
HETATM   16 BR   UNL     1      38.381 -13.700  -3.343  1.00  0.00    -0.051 Br
HETATM   17  C   UNL     1      39.008 -12.576  -0.798  1.00  0.00     0.021 A 
HETATM   18  C   UNL     1      39.469 -12.601   0.526  1.00  0.00     0.033 A 
ENDBRANCH   9  12
ENDBRANCH   1   5
BRANCH   2  19
HETATM   19  C   UNL     1      42.759 -16.849   6.892  1.00  0.00     0.159 C 
BRANCH  19  20
HETATM   20  C   UNL     1      44.110 -17.476   6.507  1.00  0.00     0.169 C 
BRANCH  20  21
HETATM   21  O   UNL     1      45.061 -16.436   6.245  1.00  0.00    -0.389 OA
HETATM   22  H   UNL     1      45.368 -16.108   7.110  1.00  0.00     0.210 HD
ENDBRANCH  20  21
BRANCH  20  23
HETATM   23  C   UNL     1      43.988 -18.387   5.302  1.00  0.00    -0.028 A 
HETATM   24  C   UNL     1      43.988 -17.845   4.006  1.00  0.00     0.013 A 
HETATM   25  C   UNL     1      43.909 -18.681   2.890  1.00  0.00     0.043 A 
HETATM   26  C   UNL     1      43.833 -20.057   3.066  1.00  0.00     0.116 A 
HETATM   27  F   UNL     1      43.765 -20.856   1.993  1.00  0.00    -0.206 F 
HETATM   28  C   UNL     1      43.829 -20.615   4.338  1.00  0.00     0.043 A 
HETATM   29  C   UNL     1      43.904 -19.782   5.456  1.00  0.00     0.013 A 
ENDBRANCH  20  23
ENDBRANCH  19  20
ENDBRANCH   2  19
TORSDOF 6
ENDMDL
MODEL 2
REMARK VINA RESULT:      -8.4      7.540      9.949
REMARK  6 active torsions:
REMARK  status: ('A' for Active; 'I' for Inactive)
REMARK    1  A    between atoms: N_4  and  C_5 
REMARK    2  A    between atoms: C_14  and  C_15 
REMARK       I    between atoms: C_15  and  N_16 
REMARK    3  A    between atoms: N_16  and  C_17 
REMARK    4  A    between atoms: C_17  and  C_18 
REMARK    5  A    between atoms: C_18  and  O_19 
REMARK    6  A    between atoms: C_18  and  C_20 
ROOT
HETATM    1  C   UNL     1      44.231 -10.833   8.439  1.00  0.00     0.255 C 
HETATM    2  N   UNL     1      43.427 -11.720   7.760  1.00  0.00    -0.354 N 
HETATM    3  O   UNL     1      45.443 -10.774   8.252  1.00  0.00    -0.268 OA
HETATM    4  H   UNL     1      42.510 -11.924   8.134  1.00  0.00     0.162 HD
ENDROOT
BRANCH   1   5
HETATM    5  C   UNL     1      43.563  -9.994   9.428  1.00  0.00     0.082 C 
HETATM    6  C   UNL     1      42.761  -8.863   9.136  1.00  0.00     0.069 C 
HETATM    7  C   UNL     1      42.456  -8.273   7.806  1.00  0.00     0.073 C 
HETATM    8  N   UNL     1      42.232  -8.326  10.234  1.00  0.00    -0.171 NA
HETATM    9  N   UNL     1      42.734  -9.042  11.269  1.00  0.00    -0.237 N 
HETATM   10  C   UNL     1      43.465 -10.140  10.812  1.00  0.00     0.050 C 
HETATM   11  C   UNL     1      43.896 -11.275  11.673  1.00  0.00     0.071 C 
BRANCH   9  12
HETATM   12  C   UNL     1      42.445  -8.598  12.599  1.00  0.00     0.058 A 
HETATM   13  C   UNL     1      43.280  -7.625  13.182  1.00  0.00     0.033 A 
HETATM   14  C   UNL     1      43.036  -7.156  14.475  1.00  0.00     0.021 A 
HETATM   15  C   UNL     1      41.969  -7.669  15.203  1.00  0.00     0.011 A 
HETATM   16 BR   UNL     1      41.636  -7.041  16.955  1.00  0.00    -0.051 Br
HETATM   17  C   UNL     1      41.150  -8.652  14.653  1.00  0.00     0.021 A 
HETATM   18  C   UNL     1      41.388  -9.121  13.353  1.00  0.00     0.033 A 
ENDBRANCH   9  12
ENDBRANCH   1   5
BRANCH   2  19
HETATM   19  C   UNL     1      44.006 -12.722   6.877  1.00  0.00     0.159 C 
BRANCH  19  20
HETATM   20  C   UNL     1      42.942 -13.380   5.982  1.00  0.00     0.169 C 
BRANCH  20  21
HETATM   21  O   UNL     1      41.677 -13.367   6.656  1.00  0.00    -0.389 OA
HETATM   22  H   UNL     1      41.210 -12.563   6.366  1.00  0.00     0.210 HD
ENDBRANCH  20  21
BRANCH  20  23
HETATM   23  C   UNL     1      43.318 -14.799   5.606  1.00  0.00    -0.028 A 
HETATM   24  C   UNL     1      42.941 -15.320   4.356  1.00  0.00     0.013 A 
HETATM   25  C   UNL     1      43.311 -16.616   3.989  1.00  0.00     0.043 A 
HETATM   26  C   UNL     1      44.061 -17.391   4.865  1.00  0.00     0.116 A 
HETATM   27  F   UNL     1      44.421 -18.630   4.506  1.00  0.00    -0.206 F 
HETATM   28  C   UNL     1      44.443 -16.897   6.106  1.00  0.00     0.043 A 
HETATM   29  C   UNL     1      44.072 -15.604   6.478  1.00  0.00     0.013 A 
ENDBRANCH  20  23
ENDBRANCH  19  20
ENDBRANCH   2  19
TORSDOF 6
ENDMDL
MODEL 3
REMARK VINA RESULT:      -8.4      5.895      8.368
REMARK  6 active torsions:
REMARK  status: ('A' for Active; 'I' for Inactive)
REMARK    1  A    between atoms: N_4  and  C_5 
REMARK    2  A    between atoms: C_14  and  C_15 
REMARK       I    between atoms: C_15  and  N_16 
REMARK    3  A    between atoms: N_16  and  C_17 
REMARK    4  A    between atoms: C_17  and  C_18 
REMARK    5  A    between atoms: C_18  and  O_19 
REMARK    6  A    between atoms: C_18  and  C_20 
ROOT
HETATM    1  C   UNL     1      42.184 -11.568   6.112  1.00  0.00     0.255 C 
HETATM    2  N   UNL     1      43.247 -10.926   6.706  1.00  0.00    -0.354 N 
HETATM    3  O   UNL     1      41.019 -11.287   6.376  1.00  0.00    -0.268 OA
HETATM    4  H   UNL     1      44.157 -11.365   6.671  1.00  0.00     0.162 HD
ENDROOT
BRANCH   1   5
HETATM    5  C   UNL     1      42.525 -12.635   5.177  1.00  0.00     0.082 C 
HETATM    6  C   UNL     1      42.806 -12.459   3.799  1.00  0.00     0.069 C 
HETATM    7  C   UNL     1      42.784 -11.198   3.011  1.00  0.00     0.073 C 
HETATM    8  N   UNL     1      43.143 -13.602   3.205  1.00  0.00    -0.171 NA
HETATM    9  N   UNL     1      43.017 -14.559   4.157  1.00  0.00    -0.237 N 
HETATM   10  C   UNL     1      42.748 -13.993   5.404  1.00  0.00     0.050 C 
HETATM   11  C   UNL     1      42.841 -14.730   6.694  1.00  0.00     0.071 C 
BRANCH   9  12
HETATM   12  C   UNL     1      43.183 -15.925   3.765  1.00  0.00     0.058 A 
HETATM   13  C   UNL     1      42.554 -16.370   2.586  1.00  0.00     0.033 A 
HETATM   14  C   UNL     1      42.689 -17.693   2.158  1.00  0.00     0.021 A 
HETATM   15  C   UNL     1      43.437 -18.588   2.916  1.00  0.00     0.011 A 
HETATM   16 BR   UNL     1      43.621 -20.380   2.345  1.00  0.00    -0.051 Br
HETATM   17  C   UNL     1      44.043 -18.172   4.100  1.00  0.00     0.021 A 
HETATM   18  C   UNL     1      43.913 -16.844   4.528  1.00  0.00     0.033 A 
ENDBRANCH   9  12
ENDBRANCH   1   5
BRANCH   2  19
HETATM   19  C   UNL     1      43.029  -9.966   7.778  1.00  0.00     0.159 C 
BRANCH  19  20
HETATM   20  C   UNL     1      44.193  -9.956   8.783  1.00  0.00     0.169 C 
BRANCH  20  21
HETATM   21  O   UNL     1      44.866 -11.221   8.746  1.00  0.00    -0.389 OA
HETATM   22  H   UNL     1      45.362 -11.303   9.581  1.00  0.00     0.210 HD
ENDBRANCH  20  21
BRANCH  20  23
HETATM   23  C   UNL     1      43.721  -9.657  10.192  1.00  0.00    -0.028 A 
HETATM   24  C   UNL     1      43.490 -10.708  11.096  1.00  0.00     0.013 A 
HETATM   25  C   UNL     1      43.087 -10.440  12.406  1.00  0.00     0.043 A 
HETATM   26  C   UNL     1      42.917  -9.123  12.816  1.00  0.00     0.116 A 
HETATM   27  F   UNL     1      42.538  -8.869  14.075  1.00  0.00    -0.206 F 
HETATM   28  C   UNL     1      43.138  -8.068  11.940  1.00  0.00     0.043 A 
HETATM   29  C   UNL     1      43.538  -8.333  10.629  1.00  0.00     0.013 A 
ENDBRANCH  20  23
ENDBRANCH  19  20
ENDBRANCH   2  19
TORSDOF 6
ENDMDL
MODEL 4
REMARK VINA RESULT:      -8.3      5.940      8.149
REMARK  6 active torsions:
REMARK  status: ('A' for Active; 'I' for Inactive)
REMARK    1  A    between atoms: N_4  and  C_5 
REMARK    2  A    between atoms: C_14  and  C_15 
REMARK       I    between atoms: C_15  and  N_16 
REMARK    3  A    between atoms: N_16  and  C_17 
REMARK    4  A    between atoms: C_17  and  C_18 
REMARK    5  A    between atoms: C_18  and  O_19 
REMARK    6  A    between atoms: C_18  and  C_20 
ROOT
HETATM    1  C   UNL     1      43.655 -11.717   5.048  1.00  0.00     0.255 C 
HETATM    2  N   UNL     1      43.055 -12.955   5.101  1.00  0.00    -0.354 N 
HETATM    3  O   UNL     1      43.934 -11.171   3.986  1.00  0.00    -0.268 OA
HETATM    4  H   UNL     1      43.096 -13.475   5.967  1.00  0.00     0.162 HD
ENDROOT
BRANCH   1   5
HETATM    5  C   UNL     1      43.978 -11.110   6.335  1.00  0.00     0.082 C 
HETATM    6  C   UNL     1      45.282 -10.960   6.866  1.00  0.00     0.069 C 
HETATM    7  C   UNL     1      46.572 -11.403   6.273  1.00  0.00     0.073 C 
HETATM    8  N   UNL     1      45.279 -10.317   8.033  1.00  0.00    -0.171 NA
HETATM    9  N   UNL     1      43.974 -10.101   8.326  1.00  0.00    -0.237 N 
HETATM   10  C   UNL     1      43.152 -10.472   7.261  1.00  0.00     0.050 C 
HETATM   11  C   UNL     1      41.716 -10.099   7.143  1.00  0.00     0.071 C 
BRANCH   9  12
HETATM   12  C   UNL     1      43.654  -9.544   9.605  1.00  0.00     0.058 A 
HETATM   13  C   UNL     1      43.558 -10.408  10.713  1.00  0.00     0.033 A 
HETATM   14  C   UNL     1      43.253  -9.912  11.983  1.00  0.00     0.021 A 
HETATM   15  C   UNL     1      43.021  -8.552  12.152  1.00  0.00     0.011 A 
HETATM   16 BR   UNL     1      42.605  -7.874  13.867  1.00  0.00    -0.051 Br
HETATM   17  C   UNL     1      43.084  -7.686  11.063  1.00  0.00     0.021 A 
HETATM   18  C   UNL     1      43.396  -8.180   9.788  1.00  0.00     0.033 A 
ENDBRANCH   9  12
ENDBRANCH   1   5
BRANCH   2  19
HETATM   19  C   UNL     1      42.843 -13.730   3.887  1.00  0.00     0.159 C 
BRANCH  19  20
HETATM   20  C   UNL     1      41.910 -14.929   4.128  1.00  0.00     0.169 C 
BRANCH  20  21
HETATM   21  O   UNL     1      41.507 -14.951   5.504  1.00  0.00    -0.389 OA
HETATM   22  H   UNL     1      40.694 -15.485   5.552  1.00  0.00     0.210 HD
ENDBRANCH  20  21
BRANCH  20  23
HETATM   23  C   UNL     1      42.568 -16.242   3.756  1.00  0.00    -0.028 A 
HETATM   24  C   UNL     1      43.502 -16.833   4.625  1.00  0.00     0.013 A 
HETATM   25  C   UNL     1      44.088 -18.060   4.305  1.00  0.00     0.043 A 
HETATM   26  C   UNL     1      43.742 -18.698   3.120  1.00  0.00     0.116 A 
HETATM   27  F   UNL     1      44.301 -19.878   2.820  1.00  0.00    -0.206 F 
HETATM   28  C   UNL     1      42.824 -18.132   2.246  1.00  0.00     0.043 A 
HETATM   29  C   UNL     1      42.238 -16.905   2.561  1.00  0.00     0.013 A 
ENDBRANCH  20  23
ENDBRANCH  19  20
ENDBRANCH   2  19
TORSDOF 6
ENDMDL
MODEL 5
REMARK VINA RESULT:      -8.2      7.490      9.810
REMARK  6 active torsions:
REMARK  status: ('A' for Active; 'I' for Inactive)
REMARK    1  A    between atoms: N_4  and  C_5 
REMARK    2  A    between atoms: C_14  and  C_15 
REMARK       I    between atoms: C_15  and  N_16 
REMARK    3  A    between atoms: N_16  and  C_17 
REMARK    4  A    between atoms: C_17  and  C_18 
REMARK    5  A    between atoms: C_18  and  O_19 
REMARK    6  A    between atoms: C_18  and  C_20 
ROOT
HETATM    1  C   UNL     1      43.417  -9.646   8.404  1.00  0.00     0.255 C 
HETATM    2  N   UNL     1      43.078 -10.145   9.641  1.00  0.00    -0.354 N 
HETATM    3  O   UNL     1      44.006  -8.578   8.268  1.00  0.00    -0.268 OA
HETATM    4  H   UNL     1      42.370 -10.865   9.694  1.00  0.00     0.162 HD
ENDROOT
BRANCH   1   5
HETATM    5  C   UNL     1      42.997 -10.444   7.257  1.00  0.00     0.082 C 
HETATM    6  C   UNL     1      41.798 -10.259   6.525  1.00  0.00     0.069 C 
HETATM    7  C   UNL     1      40.716  -9.269   6.770  1.00  0.00     0.073 C 
HETATM    8  N   UNL     1      41.705 -11.096   5.493  1.00  0.00    -0.171 NA
HETATM    9  N   UNL     1      42.797 -11.895   5.572  1.00  0.00    -0.237 N 
HETATM   10  C   UNL     1      43.668 -11.457   6.571  1.00  0.00     0.050 C 
HETATM   11  C   UNL     1      45.072 -11.926   6.721  1.00  0.00     0.071 C 
BRANCH   9  12
HETATM   12  C   UNL     1      42.894 -12.995   4.661  1.00  0.00     0.058 A 
HETATM   13  C   UNL     1      42.781 -14.303   5.169  1.00  0.00     0.033 A 
HETATM   14  C   UNL     1      42.865 -15.410   4.321  1.00  0.00     0.021 A 
HETATM   15  C   UNL     1      43.082 -15.219   2.961  1.00  0.00     0.011 A 
HETATM   16 BR   UNL     1      43.200 -16.712   1.808  1.00  0.00    -0.051 Br
HETATM   17  C   UNL     1      43.225 -13.932   2.445  1.00  0.00     0.021 A 
HETATM   18  C   UNL     1      43.136 -12.820   3.293  1.00  0.00     0.033 A 
ENDBRANCH   9  12
ENDBRANCH   1   5
BRANCH   2  19
HETATM   19  C   UNL     1      43.293  -9.356  10.845  1.00  0.00     0.159 C 
BRANCH  19  20
HETATM   20  C   UNL     1      42.546  -9.941  12.055  1.00  0.00     0.169 C 
BRANCH  20  21
HETATM   21  O   UNL     1      41.225 -10.330  11.657  1.00  0.00    -0.389 OA
HETATM   22  H   UNL     1      41.242 -10.441  10.689  1.00  0.00     0.210 HD
ENDBRANCH  20  21
BRANCH  20  23
HETATM   23  C   UNL     1      42.476  -8.958  13.206  1.00  0.00    -0.028 A 
HETATM   24  C   UNL     1      43.367  -7.873  13.261  1.00  0.00     0.013 A 
HETATM   25  C   UNL     1      43.287  -6.944  14.301  1.00  0.00     0.043 A 
HETATM   26  C   UNL     1      42.318  -7.096  15.286  1.00  0.00     0.116 A 
HETATM   27  F   UNL     1      42.241  -6.200  16.277  1.00  0.00    -0.206 F 
HETATM   28  C   UNL     1      41.429  -8.162  15.253  1.00  0.00     0.043 A 
HETATM   29  C   UNL     1      41.508  -9.094  14.217  1.00  0.00     0.013 A 
ENDBRANCH  20  23
ENDBRANCH  19  20
ENDBRANCH   2  19
TORSDOF 6
ENDMDL
MODEL 6
REMARK VINA RESULT:      -8.2      6.788      9.231
REMARK  6 active torsions:
REMARK  status: ('A' for Active; 'I' for Inactive)
REMARK    1  A    between atoms: N_4  and  C_5 
REMARK    2  A    between atoms: C_14  and  C_15 
REMARK       I    between atoms: C_15  and  N_16 
REMARK    3  A    between atoms: N_16  and  C_17 
REMARK    4  A    between atoms: C_17  and  C_18 
REMARK    5  A    between atoms: C_18  and  O_19 
REMARK    6  A    between atoms: C_18  and  C_20 
ROOT
HETATM    1  C   UNL     1      42.566 -10.141   7.354  1.00  0.00     0.255 C 
HETATM    2  N   UNL     1      42.871 -10.447   8.661  1.00  0.00    -0.354 N 
HETATM    3  O   UNL     1      42.475  -8.983   6.958  1.00  0.00    -0.268 OA
HETATM    4  H   UNL     1      42.667 -11.378   8.999  1.00  0.00     0.162 HD
ENDROOT
BRANCH   1   5
HETATM    5  C   UNL     1      42.316 -11.278   6.474  1.00  0.00     0.082 C 
HETATM    6  C   UNL     1      41.156 -11.461   5.681  1.00  0.00     0.069 C 
HETATM    7  C   UNL     1      39.956 -10.587   5.594  1.00  0.00     0.073 C 
HETATM    8  N   UNL     1      41.227 -12.561   4.934  1.00  0.00    -0.171 NA
HETATM    9  N   UNL     1      42.395 -13.159   5.275  1.00  0.00    -0.237 N 
HETATM   10  C   UNL     1      43.141 -12.350   6.132  1.00  0.00     0.050 C 
HETATM   11  C   UNL     1      44.576 -12.574   6.457  1.00  0.00     0.071 C 
BRANCH   9  12
HETATM   12  C   UNL     1      42.676 -14.450   4.726  1.00  0.00     0.058 A 
HETATM   13  C   UNL     1      42.955 -14.552   3.350  1.00  0.00     0.033 A 
HETATM   14  C   UNL     1      43.240 -15.789   2.767  1.00  0.00     0.021 A 
HETATM   15  C   UNL     1      43.229 -16.937   3.550  1.00  0.00     0.011 A 
HETATM   16 BR   UNL     1      43.610 -18.615   2.767  1.00  0.00    -0.051 Br
HETATM   17  C   UNL     1      42.927 -16.859   4.908  1.00  0.00     0.021 A 
HETATM   18  C   UNL     1      42.646 -15.619   5.497  1.00  0.00     0.033 A 
ENDBRANCH   9  12
ENDBRANCH   1   5
BRANCH   2  19
HETATM   19  C   UNL     1      42.972  -9.398   9.666  1.00  0.00     0.159 C 
BRANCH  19  20
HETATM   20  C   UNL     1      43.620  -9.909  10.963  1.00  0.00     0.169 C 
BRANCH  20  21
HETATM   21  O   UNL     1      43.469 -11.332  11.044  1.00  0.00    -0.389 OA
HETATM   22  H   UNL     1      43.990 -11.629  11.812  1.00  0.00     0.210 HD
ENDBRANCH  20  21
BRANCH  20  23
HETATM   23  C   UNL     1      43.024  -9.250  12.191  1.00  0.00    -0.028 A 
HETATM   24  C   UNL     1      41.913  -9.825  12.830  1.00  0.00     0.013 A 
HETATM   25  C   UNL     1      41.377  -9.243  13.980  1.00  0.00     0.043 A 
HETATM   26  C   UNL     1      41.952  -8.087  14.496  1.00  0.00     0.116 A 
HETATM   27  F   UNL     1      41.440  -7.535  15.604  1.00  0.00    -0.206 F 
HETATM   28  C   UNL     1      43.049  -7.499  13.880  1.00  0.00     0.043 A 
HETATM   29  C   UNL     1      43.584  -8.077  12.728  1.00  0.00     0.013 A 
ENDBRANCH  20  23
ENDBRANCH  19  20
ENDBRANCH   2  19
TORSDOF 6
ENDMDL
MODEL 7
REMARK VINA RESULT:      -7.9      5.680      8.645
REMARK  6 active torsions:
REMARK  status: ('A' for Active; 'I' for Inactive)
REMARK    1  A    between atoms: N_4  and  C_5 
REMARK    2  A    between atoms: C_14  and  C_15 
REMARK       I    between atoms: C_15  and  N_16 
REMARK    3  A    between atoms: N_16  and  C_17 
REMARK    4  A    between atoms: C_17  and  C_18 
REMARK    5  A    between atoms: C_18  and  O_19 
REMARK    6  A    between atoms: C_18  and  C_20 
ROOT
HETATM    1  C   UNL     1      41.592 -10.703   6.325  1.00  0.00     0.255 C 
HETATM    2  N   UNL     1      40.713 -10.706   7.384  1.00  0.00    -0.354 N 
HETATM    3  O   UNL     1      41.787  -9.703   5.640  1.00  0.00    -0.268 OA
HETATM    4  H   UNL     1      40.382 -11.595   7.734  1.00  0.00     0.162 HD
ENDROOT
BRANCH   1   5
HETATM    5  C   UNL     1      42.248 -11.973   6.037  1.00  0.00     0.082 C 
HETATM    6  C   UNL     1      43.481 -12.402   6.588  1.00  0.00     0.069 C 
HETATM    7  C   UNL     1      44.373 -11.668   7.524  1.00  0.00     0.073 C 
HETATM    8  N   UNL     1      43.809 -13.630   6.190  1.00  0.00    -0.171 NA
HETATM    9  N   UNL     1      42.842 -14.000   5.315  1.00  0.00    -0.237 N 
HETATM   10  C   UNL     1      41.812 -13.060   5.278  1.00  0.00     0.050 C 
HETATM   11  C   UNL     1      40.483 -13.299   4.653  1.00  0.00     0.071 C 
BRANCH   9  12
HETATM   12  C   UNL     1      43.008 -15.236   4.612  1.00  0.00     0.058 A 
HETATM   13  C   UNL     1      43.212 -16.413   5.355  1.00  0.00     0.033 A 
HETATM   14  C   UNL     1      43.374 -17.645   4.715  1.00  0.00     0.021 A 
HETATM   15  C   UNL     1      43.354 -17.706   3.326  1.00  0.00     0.011 A 
HETATM   16 BR   UNL     1      43.575 -19.368   2.454  1.00  0.00    -0.051 Br
HETATM   17  C   UNL     1      43.180 -16.546   2.574  1.00  0.00     0.021 A 
HETATM   18  C   UNL     1      43.012 -15.311   3.213  1.00  0.00     0.033 A 
ENDBRANCH   9  12
ENDBRANCH   1   5
BRANCH   2  19
HETATM   19  C   UNL     1      39.875  -9.547   7.658  1.00  0.00     0.159 C 
BRANCH  19  20
HETATM   20  C   UNL     1      39.506  -9.446   9.147  1.00  0.00     0.169 C 
BRANCH  20  21
HETATM   21  O   UNL     1      38.529  -8.412   9.327  1.00  0.00    -0.389 OA
HETATM   22  H   UNL     1      38.524  -8.189  10.276  1.00  0.00     0.210 HD
ENDBRANCH  20  21
BRANCH  20  23
HETATM   23  C   UNL     1      40.719  -9.175  10.014  1.00  0.00    -0.028 A 
HETATM   24  C   UNL     1      41.728  -8.308   9.562  1.00  0.00     0.013 A 
HETATM   25  C   UNL     1      42.833  -8.027  10.368  1.00  0.00     0.043 A 
HETATM   26  C   UNL     1      42.932  -8.609  11.626  1.00  0.00     0.116 A 
HETATM   27  F   UNL     1      43.989  -8.332  12.400  1.00  0.00    -0.206 F 
HETATM   28  C   UNL     1      41.947  -9.471  12.093  1.00  0.00     0.043 A 
HETATM   29  C   UNL     1      40.843  -9.756  11.288  1.00  0.00     0.013 A 
ENDBRANCH  20  23
ENDBRANCH  19  20
ENDBRANCH   2  19
TORSDOF 6
ENDMDL
MODEL 8
REMARK VINA RESULT:      -7.8     14.586     17.362
REMARK  6 active torsions:
REMARK  status: ('A' for Active; 'I' for Inactive)
REMARK    1  A    between atoms: N_4  and  C_5 
REMARK    2  A    between atoms: C_14  and  C_15 
REMARK       I    between atoms: C_15  and  N_16 
REMARK    3  A    between atoms: N_16  and  C_17 
REMARK    4  A    between atoms: C_17  and  C_18 
REMARK    5  A    between atoms: C_18  and  O_19 
REMARK    6  A    between atoms: C_18  and  C_20 
ROOT
HETATM    1  C   UNL     1      47.030 -28.960   1.672  1.00  0.00     0.255 C 
HETATM    2  N   UNL     1      45.934 -29.794   1.686  1.00  0.00    -0.354 N 
HETATM    3  O   UNL     1      46.934 -27.752   1.868  1.00  0.00    -0.268 OA
HETATM    4  H   UNL     1      46.017 -30.705   1.256  1.00  0.00     0.162 HD
ENDROOT
BRANCH   1   5
HETATM    5  C   UNL     1      48.309 -29.591   1.367  1.00  0.00     0.082 C 
HETATM    6  C   UNL     1      49.348 -29.831   2.300  1.00  0.00     0.069 C 
HETATM    7  C   UNL     1      49.385 -29.475   3.743  1.00  0.00     0.073 C 
HETATM    8  N   UNL     1      50.376 -30.475   1.753  1.00  0.00    -0.171 NA
HETATM    9  N   UNL     1      50.069 -30.603   0.439  1.00  0.00    -0.237 N 
HETATM   10  C   UNL     1      48.766 -30.174   0.185  1.00  0.00     0.050 C 
HETATM   11  C   UNL     1      48.025 -30.448  -1.077  1.00  0.00     0.071 C 
BRANCH   9  12
HETATM   12  C   UNL     1      51.065 -31.140  -0.437  1.00  0.00     0.058 A 
HETATM   13  C   UNL     1      51.871 -32.198   0.026  1.00  0.00     0.033 A 
HETATM   14  C   UNL     1      52.853 -32.760  -0.793  1.00  0.00     0.021 A 
HETATM   15  C   UNL     1      53.053 -32.256  -2.073  1.00  0.00     0.011 A 
HETATM   16 BR   UNL     1      54.383 -33.009  -3.185  1.00  0.00    -0.051 Br
HETATM   17  C   UNL     1      52.284 -31.191  -2.538  1.00  0.00     0.021 A 
HETATM   18  C   UNL     1      51.293 -30.629  -1.721  1.00  0.00     0.033 A 
ENDBRANCH   9  12
ENDBRANCH   1   5
BRANCH   2  19
HETATM   19  C   UNL     1      44.589 -29.252   1.809  1.00  0.00     0.159 C 
BRANCH  19  20
HETATM   20  C   UNL     1      43.650 -29.797   0.720  1.00  0.00     0.169 C 
BRANCH  20  21
HETATM   21  O   UNL     1      43.502 -31.213   0.883  1.00  0.00    -0.389 OA
HETATM   22  H   UNL     1      44.399 -31.584   0.969  1.00  0.00     0.210 HD
ENDBRANCH  20  21
BRANCH  20  23
HETATM   23  C   UNL     1      44.157 -29.482  -0.674  1.00  0.00    -0.028 A 
HETATM   24  C   UNL     1      44.050 -30.441  -1.695  1.00  0.00     0.013 A 
HETATM   25  C   UNL     1      44.484 -30.148  -2.989  1.00  0.00     0.043 A 
HETATM   26  C   UNL     1      45.022 -28.897  -3.266  1.00  0.00     0.116 A 
HETATM   27  F   UNL     1      45.431 -28.616  -4.510  1.00  0.00    -0.206 F 
HETATM   28  C   UNL     1      45.140 -27.934  -2.272  1.00  0.00     0.043 A 
HETATM   29  C   UNL     1      44.710 -28.226  -0.976  1.00  0.00     0.013 A 
ENDBRANCH  20  23
ENDBRANCH  19  20
ENDBRANCH   2  19
TORSDOF 6
ENDMDL
MODEL 9
REMARK VINA RESULT:      -7.8      2.862      4.308
REMARK  6 active torsions:
REMARK  status: ('A' for Active; 'I' for Inactive)
REMARK    1  A    between atoms: N_4  and  C_5 
REMARK    2  A    between atoms: C_14  and  C_15 
REMARK       I    between atoms: C_15  and  N_16 
REMARK    3  A    between atoms: N_16  and  C_17 
REMARK    4  A    between atoms: C_17  and  C_18 
REMARK    5  A    between atoms: C_18  and  O_19 
REMARK    6  A    between atoms: C_18  and  C_20 
ROOT
HETATM    1  C   UNL     1      40.472 -14.777   0.731  1.00  0.00     0.255 C 
HETATM    2  N   UNL     1      41.831 -14.749   0.946  1.00  0.00    -0.354 N 
HETATM    3  O   UNL     1      39.795 -15.776   0.951  1.00  0.00    -0.268 OA
HETATM    4  H   UNL     1      42.376 -14.023   0.501  1.00  0.00     0.162 HD
ENDROOT
BRANCH   1   5
HETATM    5  C   UNL     1      39.888 -13.557   0.184  1.00  0.00     0.082 C 
HETATM    6  C   UNL     1      39.522 -12.414   0.937  1.00  0.00     0.069 C 
HETATM    7  C   UNL     1      39.613 -12.216   2.408  1.00  0.00     0.073 C 
HETATM    8  N   UNL     1      39.067 -11.428   0.166  1.00  0.00    -0.171 NA
HETATM    9  N   UNL     1      39.053 -11.928  -1.094  1.00  0.00    -0.237 N 
HETATM   10  C   UNL     1      39.651 -13.188  -1.141  1.00  0.00     0.050 C 
HETATM   11  C   UNL     1      40.056 -13.876  -2.397  1.00  0.00     0.071 C 
BRANCH   9  12
HETATM   12  C   UNL     1      38.473 -11.128  -2.130  1.00  0.00     0.058 A 
HETATM   13  C   UNL     1      39.326 -10.362  -2.948  1.00  0.00     0.033 A 
HETATM   14  C   UNL     1      38.809  -9.569  -3.975  1.00  0.00     0.021 A 
HETATM   15  C   UNL     1      37.434  -9.519  -4.180  1.00  0.00     0.011 A 
HETATM   16 BR   UNL     1      36.728  -8.445  -5.566  1.00  0.00    -0.051 Br
HETATM   17  C   UNL     1      36.574 -10.248  -3.362  1.00  0.00     0.021 A 
HETATM   18  C   UNL     1      37.090 -11.049  -2.334  1.00  0.00     0.033 A 
ENDBRANCH   9  12
ENDBRANCH   1   5
BRANCH   2  19
HETATM   19  C   UNL     1      42.548 -15.958   1.326  1.00  0.00     0.159 C 
BRANCH  19  20
HETATM   20  C   UNL     1      42.574 -16.154   2.851  1.00  0.00     0.169 C 
BRANCH  20  21
HETATM   21  O   UNL     1      43.365 -15.120   3.451  1.00  0.00    -0.389 OA
HETATM   22  H   UNL     1      43.072 -15.041   4.377  1.00  0.00     0.210 HD
ENDBRANCH  20  21
BRANCH  20  23
HETATM   23  C   UNL     1      43.115 -17.516   3.238  1.00  0.00    -0.028 A 
HETATM   24  C   UNL     1      43.576 -17.745   4.545  1.00  0.00     0.013 A 
HETATM   25  C   UNL     1      44.045 -19.006   4.919  1.00  0.00     0.043 A 
HETATM   26  C   UNL     1      44.053 -20.039   3.990  1.00  0.00     0.116 A 
HETATM   27  F   UNL     1      44.497 -21.249   4.354  1.00  0.00    -0.206 F 
HETATM   28  C   UNL     1      43.604 -19.835   2.692  1.00  0.00     0.043 A 
HETATM   29  C   UNL     1      43.137 -18.575   2.314  1.00  0.00     0.013 A 
ENDBRANCH  20  23
ENDBRANCH  19  20
ENDBRANCH   2  19
TORSDOF 6
ENDMDL
MODEL 10
REMARK VINA RESULT:      -7.6      3.766      7.452
REMARK  6 active torsions:
REMARK  status: ('A' for Active; 'I' for Inactive)
REMARK    1  A    between atoms: N_4  and  C_5 
REMARK    2  A    between atoms: C_14  and  C_15 
REMARK       I    between atoms: C_15  and  N_16 
REMARK    3  A    between atoms: N_16  and  C_17 
REMARK    4  A    between atoms: C_17  and  C_18 
REMARK    5  A    between atoms: C_18  and  O_19 
REMARK    6  A    between atoms: C_18  and  C_20 
ROOT
HETATM    1  C   UNL     1      41.746 -11.531   2.521  1.00  0.00     0.255 C 
HETATM    2  N   UNL     1      40.395 -11.267   2.550  1.00  0.00    -0.354 N 
HETATM    3  O   UNL     1      42.552 -10.755   2.015  1.00  0.00    -0.268 OA
HETATM    4  H   UNL     1      39.757 -12.034   2.718  1.00  0.00     0.162 HD
ENDROOT
BRANCH   1   5
HETATM    5  C   UNL     1      42.159 -12.808   3.090  1.00  0.00     0.082 C 
HETATM    6  C   UNL     1      42.622 -13.004   4.415  1.00  0.00     0.069 C 
HETATM    7  C   UNL     1      42.818 -11.984   5.479  1.00  0.00     0.073 C 
HETATM    8  N   UNL     1      42.873 -14.286   4.675  1.00  0.00    -0.171 NA
HETATM    9  N   UNL     1      42.656 -14.944   3.510  1.00  0.00    -0.237 N 
HETATM   10  C   UNL     1      42.112 -14.093   2.547  1.00  0.00     0.050 C 
HETATM   11  C   UNL     1      41.492 -14.556   1.276  1.00  0.00     0.071 C 
BRANCH   9  12
HETATM   12  C   UNL     1      42.985 -16.336   3.451  1.00  0.00     0.058 A 
HETATM   13  C   UNL     1      43.659 -16.917   4.542  1.00  0.00     0.033 A 
HETATM   14  C   UNL     1      43.997 -18.272   4.534  1.00  0.00     0.021 A 
HETATM   15  C   UNL     1      43.684 -19.053   3.428  1.00  0.00     0.011 A 
HETATM   16 BR   UNL     1      44.142 -20.887   3.409  1.00  0.00    -0.051 Br
HETATM   17  C   UNL     1      43.042 -18.488   2.327  1.00  0.00     0.021 A 
HETATM   18  C   UNL     1      42.696 -17.130   2.335  1.00  0.00     0.033 A 
ENDBRANCH   9  12
ENDBRANCH   1   5
BRANCH   2  19
HETATM   19  C   UNL     1      39.849 -10.107   1.861  1.00  0.00     0.159 C 
BRANCH  19  20
HETATM   20  C   UNL     1      38.806 -10.507   0.804  1.00  0.00     0.169 C 
BRANCH  20  21
HETATM   21  O   UNL     1      37.669 -11.091   1.453  1.00  0.00    -0.389 OA
HETATM   22  H   UNL     1      36.909 -10.509   1.269  1.00  0.00     0.210 HD
ENDBRANCH  20  21
BRANCH  20  23
HETATM   23  C   UNL     1      39.376 -11.470  -0.218  1.00  0.00    -0.028 A 
HETATM   24  C   UNL     1      38.720 -12.684  -0.484  1.00  0.00     0.013 A 
HETATM   25  C   UNL     1      39.221 -13.562  -1.448  1.00  0.00     0.043 A 
HETATM   26  C   UNL     1      40.374 -13.229  -2.148  1.00  0.00     0.116 A 
HETATM   27  F   UNL     1      40.847 -14.070  -3.076  1.00  0.00    -0.206 F 
HETATM   28  C   UNL     1      41.040 -12.036  -1.900  1.00  0.00     0.043 A 
HETATM   29  C   UNL     1      40.544 -11.157  -0.935  1.00  0.00     0.013 A 
ENDBRANCH  20  23
ENDBRANCH  19  20
ENDBRANCH   2  19
TORSDOF 6
ENDMDL
