MODEL 1
REMARK VINA RESULT:      -8.0      0.000      0.000
REMARK  8 active torsions:
REMARK  status: ('A' for Active; 'I' for Inactive)
REMARK    1  A    between atoms: C_2  and  C_3 
REMARK    2  A    between atoms: C_3  and  N_4 
REMARK    3  A    between atoms: C_7  and  C_8 
REMARK       I    between atoms: C_8  and  N_9 
REMARK    4  A    between atoms: N_9  and  N_10 
REMARK       I    between atoms: N_10  and  C_11 
REMARK    5  A    between atoms: C_11  and  C_12 
REMARK    6  A    between atoms: C_12  and  O_13 
REMARK    7  A    between atoms: O_13  and  C_14 
REMARK    8  A    between atoms: C_23  and  C_24 
ROOT
HETATM    1  C   UNL     1      40.433 -14.037   5.749  1.00  0.00     0.273 C 
HETATM    2  N   UNL     1      40.435 -14.897   4.655  1.00  0.00    -0.263 N 
HETATM    3  O   UNL     1      39.465 -14.037   6.505  1.00  0.00    -0.266 OA
HETATM    4  H   UNL     1      39.744 -15.640   4.711  1.00  0.00     0.190 HD
ENDROOT
BRANCH   2   5
HETATM    5  N   UNL     1      41.572 -15.143   3.873  1.00  0.00    -0.265 N 
HETATM    6  C   UNL     1      41.456 -15.775   2.644  1.00  0.00     0.260 C 
HETATM    7  O   UNL     1      40.384 -16.077   2.127  1.00  0.00    -0.269 OA
HETATM    8  H   UNL     1      42.469 -14.802   4.207  1.00  0.00     0.190 HD
BRANCH   6   9
HETATM    9  C   UNL     1      42.804 -16.134   2.035  1.00  0.00     0.280 C 
BRANCH   9  10
HETATM   10  O   UNL     1      43.631 -16.693   3.054  1.00  0.00    -0.342 OA
BRANCH  10  11
HETATM   11  C   UNL     1      43.668 -18.062   3.046  1.00  0.00     0.069 A 
HETATM   12  C   UNL     1      43.972 -18.679   4.262  1.00  0.00     0.043 A 
HETATM   13  C   UNL     1      44.015 -20.077   4.363  1.00  0.00    -0.059 A 
HETATM   14  C   UNL     1      44.342 -20.748   5.665  1.00  0.00     0.048 C 
HETATM   15  C   UNL     1      43.710 -20.849   3.237  1.00  0.00     0.007 A 
HETATM   16  C   UNL     1      43.383 -20.235   2.027  1.00  0.00     0.003 A 
HETATM   17  C   UNL     1      43.361 -18.842   1.931  1.00  0.00     0.037 A 
ENDBRANCH  10  11
ENDBRANCH   9  10
ENDBRANCH   6   9
ENDBRANCH   2   5
BRANCH   1  18
HETATM   18  C   UNL     1      41.577 -13.151   5.908  1.00  0.00     0.077 A 
HETATM   19  C   UNL     1      41.691 -11.849   5.365  1.00  0.00     0.158 A 
HETATM   20  N   UNL     1      42.890 -11.305   5.548  1.00  0.00    -0.183 NA
HETATM   21  N   UNL     1      43.539 -12.212   6.305  1.00  0.00    -0.268 N 
HETATM   22  C   UNL     1      42.794 -13.352   6.548  1.00  0.00     0.052 A 
BRANCH  21  23
HETATM   23  C   UNL     1      44.931 -11.964   6.690  1.00  0.00     0.106 C 
HETATM   24  C   UNL     1      45.717 -11.450   5.479  1.00  0.00     0.034 C 
BRANCH  23  25
HETATM   25  C   UNL     1      45.104 -10.997   7.881  1.00  0.00     0.022 C 
HETATM   26  C   UNL     1      46.411 -10.215   7.834  1.00  0.00     0.007 C 
ENDBRANCH  23  25
ENDBRANCH  21  23
BRANCH  22  27
HETATM   27  C   UNL     1      43.331 -14.568   7.311  1.00  0.00     0.038 A 
HETATM   28  C   UNL     1      42.658 -15.913   7.184  1.00  0.00     0.011 A 
HETATM   29  C   UNL     1      44.006 -15.701   6.577  1.00  0.00     0.011 A 
ENDBRANCH  22  27
ENDBRANCH   1  18
TORSDOF 8
ENDMDL
MODEL 2
REMARK VINA RESULT:      -7.7      1.260      2.653
REMARK  8 active torsions:
REMARK  status: ('A' for Active; 'I' for Inactive)
REMARK    1  A    between atoms: C_2  and  C_3 
REMARK    2  A    between atoms: C_3  and  N_4 
REMARK    3  A    between atoms: C_7  and  C_8 
REMARK       I    between atoms: C_8  and  N_9 
REMARK    4  A    between atoms: N_9  and  N_10 
REMARK       I    between atoms: N_10  and  C_11 
REMARK    5  A    between atoms: C_11  and  C_12 
REMARK    6  A    between atoms: C_12  and  O_13 
REMARK    7  A    between atoms: O_13  and  C_14 
REMARK    8  A    between atoms: C_23  and  C_24 
ROOT
HETATM    1  C   UNL     1      40.046 -13.147   5.419  1.00  0.00     0.273 C 
HETATM    2  N   UNL     1      39.854 -13.428   4.070  1.00  0.00    -0.263 N 
HETATM    3  O   UNL     1      39.072 -12.869   6.114  1.00  0.00    -0.266 OA
HETATM    4  H   UNL     1      38.889 -13.629   3.822  1.00  0.00     0.190 HD
ENDROOT
BRANCH   2   5
HETATM    5  N   UNL     1      40.850 -13.979   3.251  1.00  0.00    -0.265 N 
HETATM    6  C   UNL     1      40.574 -15.082   2.456  1.00  0.00     0.260 C 
HETATM    7  O   UNL     1      39.460 -15.586   2.346  1.00  0.00    -0.269 OA
HETATM    8  H   UNL     1      41.755 -13.520   3.218  1.00  0.00     0.190 HD
BRANCH   6   9
HETATM    9  C   UNL     1      41.818 -15.659   1.794  1.00  0.00     0.280 C 
BRANCH   9  10
HETATM   10  O   UNL     1      42.903 -15.582   2.717  1.00  0.00    -0.342 OA
BRANCH  10  11
HETATM   11  C   UNL     1      43.284 -16.796   3.223  1.00  0.00     0.069 A 
HETATM   12  C   UNL     1      43.200 -17.883   2.348  1.00  0.00     0.043 A 
HETATM   13  C   UNL     1      43.584 -19.165   2.764  1.00  0.00    -0.059 A 
HETATM   14  C   UNL     1      43.496 -20.338   1.833  1.00  0.00     0.048 C 
HETATM   15  C   UNL     1      44.092 -19.337   4.057  1.00  0.00     0.007 A 
HETATM   16  C   UNL     1      44.199 -18.248   4.923  1.00  0.00     0.003 A 
HETATM   17  C   UNL     1      43.796 -16.978   4.508  1.00  0.00     0.037 A 
ENDBRANCH  10  11
ENDBRANCH   9  10
ENDBRANCH   6   9
ENDBRANCH   2   5
BRANCH   1  18
HETATM   18  C   UNL     1      41.413 -13.162   5.920  1.00  0.00     0.077 A 
HETATM   19  C   UNL     1      42.074 -14.285   6.471  1.00  0.00     0.158 A 
HETATM   20  N   UNL     1      43.272 -13.997   6.972  1.00  0.00    -0.183 NA
HETATM   21  N   UNL     1      43.445 -12.698   6.657  1.00  0.00    -0.268 N 
HETATM   22  C   UNL     1      42.349 -12.139   6.025  1.00  0.00     0.052 A 
BRANCH  21  23
HETATM   23  C   UNL     1      44.667 -12.011   7.083  1.00  0.00     0.106 C 
HETATM   24  C   UNL     1      45.347 -11.369   5.870  1.00  0.00     0.034 C 
BRANCH  23  25
HETATM   25  C   UNL     1      44.455 -10.955   8.190  1.00  0.00     0.022 C 
HETATM   26  C   UNL     1      45.380  -9.752   8.056  1.00  0.00     0.007 C 
ENDBRANCH  23  25
ENDBRANCH  21  23
BRANCH  22  27
HETATM   27  C   UNL     1      42.257 -10.659   5.637  1.00  0.00     0.038 A 
HETATM   28  C   UNL     1      40.964 -10.080   5.118  1.00  0.00     0.011 A 
HETATM   29  C   UNL     1      41.455  -9.692   6.474  1.00  0.00     0.011 A 
ENDBRANCH  22  27
ENDBRANCH   1  18
TORSDOF 8
ENDMDL
MODEL 3
REMARK VINA RESULT:      -7.7      2.487      5.030
REMARK  8 active torsions:
REMARK  status: ('A' for Active; 'I' for Inactive)
REMARK    1  A    between atoms: C_2  and  C_3 
REMARK    2  A    between atoms: C_3  and  N_4 
REMARK    3  A    between atoms: C_7  and  C_8 
REMARK       I    between atoms: C_8  and  N_9 
REMARK    4  A    between atoms: N_9  and  N_10 
REMARK       I    between atoms: N_10  and  C_11 
REMARK    5  A    between atoms: C_11  and  C_12 
REMARK    6  A    between atoms: C_12  and  O_13 
REMARK    7  A    between atoms: O_13  and  C_14 
REMARK    8  A    between atoms: C_23  and  C_24 
ROOT
HETATM    1  C   UNL     1      42.348 -11.628   5.402  1.00  0.00     0.273 C 
HETATM    2  N   UNL     1      42.149 -12.371   6.562  1.00  0.00    -0.263 N 
HETATM    3  O   UNL     1      42.685 -10.451   5.499  1.00  0.00    -0.266 OA
HETATM    4  H   UNL     1      42.545 -11.948   7.397  1.00  0.00     0.190 HD
ENDROOT
BRANCH   2   5
HETATM    5  N   UNL     1      41.996 -13.765   6.566  1.00  0.00    -0.265 N 
HETATM    6  C   UNL     1      43.108 -14.592   6.604  1.00  0.00     0.260 C 
HETATM    7  O   UNL     1      44.261 -14.187   6.724  1.00  0.00    -0.269 OA
HETATM    8  H   UNL     1      41.055 -14.145   6.590  1.00  0.00     0.190 HD
BRANCH   6   9
HETATM    9  C   UNL     1      42.759 -16.060   6.401  1.00  0.00     0.280 C 
BRANCH   9  10
HETATM   10  O   UNL     1      43.907 -16.735   5.887  1.00  0.00    -0.342 OA
BRANCH  10  11
HETATM   11  C   UNL     1      43.708 -17.300   4.655  1.00  0.00     0.069 A 
HETATM   12  C   UNL     1      43.891 -18.683   4.574  1.00  0.00     0.043 A 
HETATM   13  C   UNL     1      43.693 -19.359   3.362  1.00  0.00    -0.059 A 
HETATM   14  C   UNL     1      43.888 -20.844   3.265  1.00  0.00     0.048 C 
HETATM   15  C   UNL     1      43.271 -18.636   2.241  1.00  0.00     0.007 A 
HETATM   16  C   UNL     1      43.065 -17.259   2.327  1.00  0.00     0.003 A 
HETATM   17  C   UNL     1      43.282 -16.590   3.533  1.00  0.00     0.037 A 
ENDBRANCH  10  11
ENDBRANCH   9  10
ENDBRANCH   6   9
ENDBRANCH   2   5
BRANCH   1  18
HETATM   18  C   UNL     1      42.104 -12.293   4.130  1.00  0.00     0.077 A 
HETATM   19  C   UNL     1      43.098 -12.824   3.275  1.00  0.00     0.158 A 
HETATM   20  N   UNL     1      42.617 -13.261   2.115  1.00  0.00    -0.183 NA
HETATM   21  N   UNL     1      41.283 -13.112   2.247  1.00  0.00    -0.268 N 
HETATM   22  C   UNL     1      40.917 -12.525   3.444  1.00  0.00     0.052 A 
BRANCH  21  23
HETATM   23  C   UNL     1      40.406 -13.469   1.130  1.00  0.00     0.106 C 
HETATM   24  C   UNL     1      40.879 -12.762  -0.144  1.00  0.00     0.034 C 
BRANCH  23  25
HETATM   25  C   UNL     1      40.279 -14.987   0.875  1.00  0.00     0.022 C 
HETATM   26  C   UNL     1      39.761 -15.757   2.083  1.00  0.00     0.007 C 
ENDBRANCH  23  25
ENDBRANCH  21  23
BRANCH  22  27
HETATM   27  C   UNL     1      39.470 -12.169   3.805  1.00  0.00     0.038 A 
HETATM   28  C   UNL     1      39.168 -10.974   4.677  1.00  0.00     0.011 A 
HETATM   29  C   UNL     1      38.813 -10.939   3.226  1.00  0.00     0.011 A 
ENDBRANCH  22  27
ENDBRANCH   1  18
TORSDOF 8
ENDMDL
MODEL 4
REMARK VINA RESULT:      -7.6      2.294      4.680
REMARK  8 active torsions:
REMARK  status: ('A' for Active; 'I' for Inactive)
REMARK    1  A    between atoms: C_2  and  C_3 
REMARK    2  A    between atoms: C_3  and  N_4 
REMARK    3  A    between atoms: C_7  and  C_8 
REMARK       I    between atoms: C_8  and  N_9 
REMARK    4  A    between atoms: N_9  and  N_10 
REMARK       I    between atoms: N_10  and  C_11 
REMARK    5  A    between atoms: C_11  and  C_12 
REMARK    6  A    between atoms: C_12  and  O_13 
REMARK    7  A    between atoms: O_13  and  C_14 
REMARK    8  A    between atoms: C_23  and  C_24 
ROOT
HETATM    1  C   UNL     1      42.654 -11.996   6.568  1.00  0.00     0.273 C 
HETATM    2  N   UNL     1      43.388 -13.094   7.010  1.00  0.00    -0.263 N 
HETATM    3  O   UNL     1      43.035 -10.867   6.865  1.00  0.00    -0.266 OA
HETATM    4  H   UNL     1      44.323 -12.863   7.333  1.00  0.00     0.190 HD
ENDROOT
BRANCH   2   5
HETATM    5  N   UNL     1      43.179 -14.398   6.539  1.00  0.00    -0.265 N 
HETATM    6  C   UNL     1      43.141 -15.466   7.423  1.00  0.00     0.260 C 
HETATM    7  O   UNL     1      43.195 -15.347   8.644  1.00  0.00    -0.269 OA
HETATM    8  H   UNL     1      43.008 -14.529   5.546  1.00  0.00     0.190 HD
BRANCH   6   9
HETATM    9  C   UNL     1      43.106 -16.815   6.718  1.00  0.00     0.280 C 
BRANCH   9  10
HETATM   10  O   UNL     1      44.209 -16.885   5.814  1.00  0.00    -0.342 OA
BRANCH  10  11
HETATM   11  C   UNL     1      43.887 -17.412   4.592  1.00  0.00     0.069 A 
HETATM   12  C   UNL     1      44.045 -18.794   4.455  1.00  0.00     0.043 A 
HETATM   13  C   UNL     1      43.724 -19.433   3.249  1.00  0.00    -0.059 A 
HETATM   14  C   UNL     1      43.893 -20.916   3.092  1.00  0.00     0.048 C 
HETATM   15  C   UNL     1      43.205 -18.674   2.194  1.00  0.00     0.007 A 
HETATM   16  C   UNL     1      43.024 -17.298   2.338  1.00  0.00     0.003 A 
HETATM   17  C   UNL     1      43.363 -16.666   3.536  1.00  0.00     0.037 A 
ENDBRANCH  10  11
ENDBRANCH   9  10
ENDBRANCH   6   9
ENDBRANCH   2   5
BRANCH   1  18
HETATM   18  C   UNL     1      41.444 -12.263   5.804  1.00  0.00     0.077 A 
HETATM   19  C   UNL     1      40.186 -12.611   6.350  1.00  0.00     0.158 A 
HETATM   20  N   UNL     1      39.282 -12.929   5.429  1.00  0.00    -0.183 NA
HETATM   21  N   UNL     1      39.916 -12.689   4.263  1.00  0.00    -0.268 N 
HETATM   22  C   UNL     1      41.230 -12.290   4.430  1.00  0.00     0.052 A 
BRANCH  21  23
HETATM   23  C   UNL     1      39.226 -12.959   2.999  1.00  0.00     0.106 C 
HETATM   24  C   UNL     1      39.073 -11.657   2.207  1.00  0.00     0.034 C 
BRANCH  23  25
HETATM   25  C   UNL     1      39.898 -14.037   2.121  1.00  0.00     0.022 C 
HETATM   26  C   UNL     1      39.882 -15.422   2.754  1.00  0.00     0.007 C 
ENDBRANCH  23  25
ENDBRANCH  21  23
BRANCH  22  27
HETATM   27  C   UNL     1      42.193 -12.036   3.265  1.00  0.00     0.038 A 
HETATM   28  C   UNL     1      43.642 -11.704   3.525  1.00  0.00     0.011 A 
HETATM   29  C   UNL     1      43.281 -13.028   2.935  1.00  0.00     0.011 A 
ENDBRANCH  22  27
ENDBRANCH   1  18
TORSDOF 8
ENDMDL
MODEL 5
REMARK VINA RESULT:      -7.6      7.208      9.527
REMARK  8 active torsions:
REMARK  status: ('A' for Active; 'I' for Inactive)
REMARK    1  A    between atoms: C_2  and  C_3 
REMARK    2  A    between atoms: C_3  and  N_4 
REMARK    3  A    between atoms: C_7  and  C_8 
REMARK       I    between atoms: C_8  and  N_9 
REMARK    4  A    between atoms: N_9  and  N_10 
REMARK       I    between atoms: N_10  and  C_11 
REMARK    5  A    between atoms: C_11  and  C_12 
REMARK    6  A    between atoms: C_12  and  O_13 
REMARK    7  A    between atoms: O_13  and  C_14 
REMARK    8  A    between atoms: C_23  and  C_24 
ROOT
HETATM    1  C   UNL     1      39.477 -10.556  12.567  1.00  0.00     0.273 C 
HETATM    2  N   UNL     1      39.179 -10.764  11.224  1.00  0.00    -0.263 N 
HETATM    3  O   UNL     1      39.259 -11.458  13.372  1.00  0.00    -0.266 OA
HETATM    4  H   UNL     1      39.040 -11.740  10.977  1.00  0.00     0.190 HD
ENDROOT
BRANCH   2   5
HETATM    5  N   UNL     1      39.601  -9.903  10.201  1.00  0.00    -0.265 N 
HETATM    6  C   UNL     1      39.225 -10.137   8.887  1.00  0.00     0.260 C 
HETATM    7  O   UNL     1      38.454 -11.029   8.543  1.00  0.00    -0.269 OA
HETATM    8  H   UNL     1      40.141  -9.081  10.456  1.00  0.00     0.190 HD
BRANCH   6   9
HETATM    9  C   UNL     1      39.935  -9.222   7.898  1.00  0.00     0.280 C 
BRANCH   9  10
HETATM   10  O   UNL     1      41.088  -9.898   7.398  1.00  0.00    -0.342 OA
BRANCH  10  11
HETATM   11  C   UNL     1      42.272  -9.360   7.830  1.00  0.00     0.069 A 
HETATM   12  C   UNL     1      43.391 -10.193   7.757  1.00  0.00     0.043 A 
HETATM   13  C   UNL     1      44.653  -9.730   8.156  1.00  0.00    -0.059 A 
HETATM   14  C   UNL     1      45.860 -10.619   8.083  1.00  0.00     0.048 C 
HETATM   15  C   UNL     1      44.785  -8.408   8.592  1.00  0.00     0.007 A 
HETATM   16  C   UNL     1      43.672  -7.567   8.643  1.00  0.00     0.003 A 
HETATM   17  C   UNL     1      42.416  -8.041   8.261  1.00  0.00     0.037 A 
ENDBRANCH  10  11
ENDBRANCH   9  10
ENDBRANCH   6   9
ENDBRANCH   2   5
BRANCH   1  18
HETATM   18  C   UNL     1      39.999  -9.250  12.944  1.00  0.00     0.077 A 
HETATM   19  C   UNL     1      39.221  -8.098  13.209  1.00  0.00     0.158 A 
HETATM   20  N   UNL     1      39.950  -7.004  13.402  1.00  0.00    -0.183 NA
HETATM   21  N   UNL     1      41.220  -7.456  13.368  1.00  0.00    -0.268 N 
HETATM   22  C   UNL     1      41.309  -8.807  13.087  1.00  0.00     0.052 A 
BRANCH  21  23
HETATM   23  C   UNL     1      42.326  -6.507  13.518  1.00  0.00     0.106 C 
HETATM   24  C   UNL     1      41.800  -5.075  13.371  1.00  0.00     0.034 C 
BRANCH  23  25
HETATM   25  C   UNL     1      43.115  -6.647  14.838  1.00  0.00     0.022 C 
HETATM   26  C   UNL     1      42.218  -6.840  16.055  1.00  0.00     0.007 C 
ENDBRANCH  23  25
ENDBRANCH  21  23
BRANCH  22  27
HETATM   27  C   UNL     1      42.639  -9.549  12.909  1.00  0.00     0.038 A 
HETATM   28  C   UNL     1      42.925 -10.319  11.642  1.00  0.00     0.011 A 
HETATM   29  C   UNL     1      43.670  -9.055  11.923  1.00  0.00     0.011 A 
ENDBRANCH  22  27
ENDBRANCH   1  18
TORSDOF 8
ENDMDL
MODEL 6
REMARK VINA RESULT:      -7.6      2.570      5.039
REMARK  8 active torsions:
REMARK  status: ('A' for Active; 'I' for Inactive)
REMARK    1  A    between atoms: C_2  and  C_3 
REMARK    2  A    between atoms: C_3  and  N_4 
REMARK    3  A    between atoms: C_7  and  C_8 
REMARK       I    between atoms: C_8  and  N_9 
REMARK    4  A    between atoms: N_9  and  N_10 
REMARK       I    between atoms: N_10  and  C_11 
REMARK    5  A    between atoms: C_11  and  C_12 
REMARK    6  A    between atoms: C_12  and  O_13 
REMARK    7  A    between atoms: O_13  and  C_14 
REMARK    8  A    between atoms: C_23  and  C_24 
ROOT
HETATM    1  C   UNL     1      40.689 -11.269   5.326  1.00  0.00     0.273 C 
HETATM    2  N   UNL     1      40.956 -12.079   6.426  1.00  0.00    -0.263 N 
HETATM    3  O   UNL     1      40.736 -10.049   5.459  1.00  0.00    -0.266 OA
HETATM    4  H   UNL     1      41.419 -11.597   7.192  1.00  0.00     0.190 HD
ENDROOT
BRANCH   2   5
HETATM    5  N   UNL     1      41.158 -13.463   6.331  1.00  0.00    -0.265 N 
HETATM    6  C   UNL     1      42.427 -14.000   6.490  1.00  0.00     0.260 C 
HETATM    7  O   UNL     1      43.415 -13.342   6.803  1.00  0.00    -0.269 OA
HETATM    8  H   UNL     1      40.347 -14.059   6.193  1.00  0.00     0.190 HD
BRANCH   6   9
HETATM    9  C   UNL     1      42.486 -15.485   6.157  1.00  0.00     0.280 C 
BRANCH   9  10
HETATM   10  O   UNL     1      43.758 -15.772   5.579  1.00  0.00    -0.342 OA
BRANCH  10  11
HETATM   11  C   UNL     1      43.736 -16.810   4.686  1.00  0.00     0.069 A 
HETATM   12  C   UNL     1      44.048 -18.072   5.200  1.00  0.00     0.043 A 
HETATM   13  C   UNL     1      44.035 -19.203   4.371  1.00  0.00    -0.059 A 
HETATM   14  C   UNL     1      44.370 -20.562   4.914  1.00  0.00     0.048 C 
HETATM   15  C   UNL     1      43.666 -19.058   3.029  1.00  0.00     0.007 A 
HETATM   16  C   UNL     1      43.331 -17.803   2.521  1.00  0.00     0.003 A 
HETATM   17  C   UNL     1      43.366 -16.678   3.348  1.00  0.00     0.037 A 
ENDBRANCH  10  11
ENDBRANCH   9  10
ENDBRANCH   6   9
ENDBRANCH   2   5
BRANCH   1  18
HETATM   18  C   UNL     1      40.326 -11.929   4.080  1.00  0.00     0.077 A 
HETATM   19  C   UNL     1      39.054 -12.468   3.775  1.00  0.00     0.158 A 
HETATM   20  N   UNL     1      39.025 -13.132   2.623  1.00  0.00    -0.183 NA
HETATM   21  N   UNL     1      40.260 -12.942   2.116  1.00  0.00    -0.268 N 
HETATM   22  C   UNL     1      41.091 -12.227   2.958  1.00  0.00     0.052 A 
BRANCH  21  23
HETATM   23  C   UNL     1      40.617 -13.565   0.839  1.00  0.00     0.106 C 
HETATM   24  C   UNL     1      40.758 -15.079   1.026  1.00  0.00     0.034 C 
BRANCH  23  25
HETATM   25  C   UNL     1      39.637 -13.265  -0.316  1.00  0.00     0.022 C 
HETATM   26  C   UNL     1      39.412 -14.457  -1.237  1.00  0.00     0.007 C 
ENDBRANCH  23  25
ENDBRANCH  21  23
BRANCH  22  27
HETATM   27  C   UNL     1      42.568 -11.947   2.655  1.00  0.00     0.038 A 
HETATM   28  C   UNL     1      43.535 -11.631   3.771  1.00  0.00     0.011 A 
HETATM   29  C   UNL     1      43.636 -12.937   3.053  1.00  0.00     0.011 A 
ENDBRANCH  22  27
ENDBRANCH   1  18
TORSDOF 8
ENDMDL
MODEL 7
REMARK VINA RESULT:      -7.5      1.896      2.893
REMARK  8 active torsions:
REMARK  status: ('A' for Active; 'I' for Inactive)
REMARK    1  A    between atoms: C_2  and  C_3 
REMARK    2  A    between atoms: C_3  and  N_4 
REMARK    3  A    between atoms: C_7  and  C_8 
REMARK       I    between atoms: C_8  and  N_9 
REMARK    4  A    between atoms: N_9  and  N_10 
REMARK       I    between atoms: N_10  and  C_11 
REMARK    5  A    between atoms: C_11  and  C_12 
REMARK    6  A    between atoms: C_12  and  O_13 
REMARK    7  A    between atoms: O_13  and  C_14 
REMARK    8  A    between atoms: C_23  and  C_24 
ROOT
HETATM    1  C   UNL     1      40.738 -11.334   2.763  1.00  0.00     0.273 C 
HETATM    2  N   UNL     1      40.590 -12.349   1.822  1.00  0.00    -0.263 N 
HETATM    3  O   UNL     1      39.958 -10.385   2.743  1.00  0.00    -0.266 OA
HETATM    4  H   UNL     1      39.689 -12.348   1.351  1.00  0.00     0.190 HD
ENDROOT
BRANCH   2   5
HETATM    5  N   UNL     1      41.267 -13.574   1.900  1.00  0.00    -0.265 N 
HETATM    6  C   UNL     1      40.788 -14.685   1.223  1.00  0.00     0.260 C 
HETATM    7  O   UNL     1      39.824 -14.661   0.462  1.00  0.00    -0.269 OA
HETATM    8  H   UNL     1      42.138 -13.610   2.422  1.00  0.00     0.190 HD
BRANCH   6   9
HETATM    9  C   UNL     1      41.533 -15.963   1.583  1.00  0.00     0.280 C 
BRANCH   9  10
HETATM   10  O   UNL     1      42.300 -15.727   2.762  1.00  0.00    -0.342 OA
BRANCH  10  11
HETATM   11  C   UNL     1      42.927 -16.844   3.246  1.00  0.00     0.069 A 
HETATM   12  C   UNL     1      42.940 -17.958   2.401  1.00  0.00     0.043 A 
HETATM   13  C   UNL     1      43.574 -19.145   2.795  1.00  0.00    -0.059 A 
HETATM   14  C   UNL     1      43.592 -20.346   1.896  1.00  0.00     0.048 C 
HETATM   15  C   UNL     1      44.228 -19.188   4.032  1.00  0.00     0.007 A 
HETATM   16  C   UNL     1      44.236 -18.069   4.865  1.00  0.00     0.003 A 
HETATM   17  C   UNL     1      43.586 -16.897   4.473  1.00  0.00     0.037 A 
ENDBRANCH  10  11
ENDBRANCH   9  10
ENDBRANCH   6   9
ENDBRANCH   2   5
BRANCH   1  18
HETATM   18  C   UNL     1      41.847 -11.444   3.699  1.00  0.00     0.077 A 
HETATM   19  C   UNL     1      43.207 -11.198   3.396  1.00  0.00     0.158 A 
HETATM   20  N   UNL     1      44.032 -11.498   4.394  1.00  0.00    -0.183 NA
HETATM   21  N   UNL     1      43.203 -11.847   5.399  1.00  0.00    -0.268 N 
HETATM   22  C   UNL     1      41.870 -11.839   5.032  1.00  0.00     0.052 A 
BRANCH  21  23
HETATM   23  C   UNL     1      43.767 -12.279   6.680  1.00  0.00     0.106 C 
HETATM   24  C   UNL     1      43.949 -13.800   6.677  1.00  0.00     0.034 C 
BRANCH  23  25
HETATM   25  C   UNL     1      45.095 -11.589   7.060  1.00  0.00     0.022 C 
HETATM   26  C   UNL     1      44.972 -10.676   8.273  1.00  0.00     0.007 C 
ENDBRANCH  23  25
ENDBRANCH  21  23
BRANCH  22  27
HETATM   27  C   UNL     1      40.732 -12.275   5.963  1.00  0.00     0.038 A 
HETATM   28  C   UNL     1      39.400 -12.705   5.398  1.00  0.00     0.011 A 
HETATM   29  C   UNL     1      40.299 -13.720   6.024  1.00  0.00     0.011 A 
ENDBRANCH  22  27
ENDBRANCH   1  18
TORSDOF 8
ENDMDL
MODEL 8
REMARK VINA RESULT:      -7.5      1.971      7.401
REMARK  8 active torsions:
REMARK  status: ('A' for Active; 'I' for Inactive)
REMARK    1  A    between atoms: C_2  and  C_3 
REMARK    2  A    between atoms: C_3  and  N_4 
REMARK    3  A    between atoms: C_7  and  C_8 
REMARK       I    between atoms: C_8  and  N_9 
REMARK    4  A    between atoms: N_9  and  N_10 
REMARK       I    between atoms: N_10  and  C_11 
REMARK    5  A    between atoms: C_11  and  C_12 
REMARK    6  A    between atoms: C_12  and  O_13 
REMARK    7  A    between atoms: O_13  and  C_14 
REMARK    8  A    between atoms: C_23  and  C_24 
ROOT
HETATM    1  C   UNL     1      40.503 -15.177   3.135  1.00  0.00     0.273 C 
HETATM    2  N   UNL     1      40.826 -13.832   2.979  1.00  0.00    -0.263 N 
HETATM    3  O   UNL     1      39.695 -15.688   2.363  1.00  0.00    -0.266 OA
HETATM    4  H   UNL     1      40.557 -13.443   2.080  1.00  0.00     0.190 HD
ENDROOT
BRANCH   2   5
HETATM    5  N   UNL     1      41.895 -13.217   3.645  1.00  0.00    -0.265 N 
HETATM    6  C   UNL     1      41.673 -12.480   4.799  1.00  0.00     0.260 C 
HETATM    7  O   UNL     1      40.581 -12.386   5.353  1.00  0.00    -0.269 OA
HETATM    8  H   UNL     1      42.835 -13.368   3.290  1.00  0.00     0.190 HD
BRANCH   6   9
HETATM    9  C   UNL     1      42.911 -11.727   5.266  1.00  0.00     0.280 C 
BRANCH   9  10
HETATM   10  O   UNL     1      42.723 -11.339   6.626  1.00  0.00    -0.342 OA
BRANCH  10  11
HETATM   11  C   UNL     1      43.777 -10.639   7.151  1.00  0.00     0.069 A 
HETATM   12  C   UNL     1      43.460  -9.446   7.806  1.00  0.00     0.043 A 
HETATM   13  C   UNL     1      44.465  -8.666   8.394  1.00  0.00    -0.059 A 
HETATM   14  C   UNL     1      44.135  -7.382   9.097  1.00  0.00     0.048 C 
HETATM   15  C   UNL     1      45.789  -9.118   8.352  1.00  0.00     0.007 A 
HETATM   16  C   UNL     1      46.103 -10.321   7.719  1.00  0.00     0.003 A 
HETATM   17  C   UNL     1      45.099 -11.083   7.119  1.00  0.00     0.037 A 
ENDBRANCH  10  11
ENDBRANCH   9  10
ENDBRANCH   6   9
ENDBRANCH   2   5
BRANCH   1  18
HETATM   18  C   UNL     1      41.122 -15.892   4.241  1.00  0.00     0.077 A 
HETATM   19  C   UNL     1      40.616 -15.964   5.560  1.00  0.00     0.158 A 
HETATM   20  N   UNL     1      41.441 -16.570   6.409  1.00  0.00    -0.183 NA
HETATM   21  N   UNL     1      42.453 -16.991   5.624  1.00  0.00    -0.268 N 
HETATM   22  C   UNL     1      42.315 -16.603   4.303  1.00  0.00     0.052 A 
BRANCH  21  23
HETATM   23  C   UNL     1      43.589 -17.690   6.228  1.00  0.00     0.106 C 
HETATM   24  C   UNL     1      44.105 -16.893   7.430  1.00  0.00     0.034 C 
BRANCH  23  25
HETATM   25  C   UNL     1      43.296 -19.147   6.647  1.00  0.00     0.022 C 
HETATM   26  C   UNL     1      43.789 -20.174   5.636  1.00  0.00     0.007 C 
ENDBRANCH  23  25
ENDBRANCH  21  23
BRANCH  22  27
HETATM   27  C   UNL     1      43.368 -16.882   3.225  1.00  0.00     0.038 A 
HETATM   28  C   UNL     1      43.487 -18.253   2.604  1.00  0.00     0.011 A 
HETATM   29  C   UNL     1      42.957 -17.118   1.791  1.00  0.00     0.011 A 
ENDBRANCH  22  27
ENDBRANCH   1  18
TORSDOF 8
ENDMDL
MODEL 9
REMARK VINA RESULT:      -7.3      4.347      6.673
REMARK  8 active torsions:
REMARK  status: ('A' for Active; 'I' for Inactive)
REMARK    1  A    between atoms: C_2  and  C_3 
REMARK    2  A    between atoms: C_3  and  N_4 
REMARK    3  A    between atoms: C_7  and  C_8 
REMARK       I    between atoms: C_8  and  N_9 
REMARK    4  A    between atoms: N_9  and  N_10 
REMARK       I    between atoms: N_10  and  C_11 
REMARK    5  A    between atoms: C_11  and  C_12 
REMARK    6  A    between atoms: C_12  and  O_13 
REMARK    7  A    between atoms: O_13  and  C_14 
REMARK    8  A    between atoms: C_23  and  C_24 
ROOT
HETATM    1  C   UNL     1      39.397 -11.537   2.695  1.00  0.00     0.273 C 
HETATM    2  N   UNL     1      39.065 -12.619   3.506  1.00  0.00    -0.263 N 
HETATM    3  O   UNL     1      39.312 -10.401   3.155  1.00  0.00    -0.266 OA
HETATM    4  H   UNL     1      39.020 -12.397   4.496  1.00  0.00     0.190 HD
ENDROOT
BRANCH   2   5
HETATM    5  N   UNL     1      39.346 -13.950   3.164  1.00  0.00    -0.265 N 
HETATM    6  C   UNL     1      40.468 -14.584   3.678  1.00  0.00     0.260 C 
HETATM    7  O   UNL     1      41.220 -14.080   4.507  1.00  0.00    -0.269 OA
HETATM    8  H   UNL     1      38.684 -14.446   2.575  1.00  0.00     0.190 HD
BRANCH   6   9
HETATM    9  C   UNL     1      40.718 -15.946   3.045  1.00  0.00     0.280 C 
BRANCH   9  10
HETATM   10  O   UNL     1      42.061 -15.986   2.565  1.00  0.00    -0.342 OA
BRANCH  10  11
HETATM   11  C   UNL     1      42.799 -17.021   3.075  1.00  0.00     0.069 A 
HETATM   12  C   UNL     1      42.885 -18.167   2.281  1.00  0.00     0.043 A 
HETATM   13  C   UNL     1      43.633 -19.274   2.705  1.00  0.00    -0.059 A 
HETATM   14  C   UNL     1      43.730 -20.511   1.859  1.00  0.00     0.048 C 
HETATM   15  C   UNL     1      44.325 -19.203   3.919  1.00  0.00     0.007 A 
HETATM   16  C   UNL     1      44.259 -18.050   4.701  1.00  0.00     0.003 A 
HETATM   17  C   UNL     1      43.497 -16.958   4.281  1.00  0.00     0.037 A 
ENDBRANCH  10  11
ENDBRANCH   9  10
ENDBRANCH   6   9
ENDBRANCH   2   5
BRANCH   1  18
HETATM   18  C   UNL     1      39.792 -11.823   1.324  1.00  0.00     0.077 A 
HETATM   19  C   UNL     1      41.113 -12.070   0.883  1.00  0.00     0.158 A 
HETATM   20  N   UNL     1      41.217 -12.173  -0.439  1.00  0.00    -0.183 NA
HETATM   21  N   UNL     1      39.940 -12.096  -0.866  1.00  0.00    -0.268 N 
HETATM   22  C   UNL     1      39.036 -11.877   0.158  1.00  0.00     0.052 A 
BRANCH  21  23
HETATM   23  C   UNL     1      39.658 -12.143  -2.302  1.00  0.00     0.106 C 
HETATM   24  C   UNL     1      40.509 -11.097  -3.030  1.00  0.00     0.034 C 
BRANCH  23  25
HETATM   25  C   UNL     1      39.859 -13.531  -2.949  1.00  0.00     0.022 C 
HETATM   26  C   UNL     1      38.941 -14.601  -2.371  1.00  0.00     0.007 C 
ENDBRANCH  23  25
ENDBRANCH  21  23
BRANCH  22  27
HETATM   27  C   UNL     1      37.534 -11.668  -0.069  1.00  0.00     0.038 A 
HETATM   28  C   UNL     1      36.735 -10.779   0.853  1.00  0.00     0.011 A 
HETATM   29  C   UNL     1      37.006 -10.337  -0.548  1.00  0.00     0.011 A 
ENDBRANCH  22  27
ENDBRANCH   1  18
TORSDOF 8
ENDMDL
MODEL 10
REMARK VINA RESULT:      -7.3      2.654      6.434
REMARK  8 active torsions:
REMARK  status: ('A' for Active; 'I' for Inactive)
REMARK    1  A    between atoms: C_2  and  C_3 
REMARK    2  A    between atoms: C_3  and  N_4 
REMARK    3  A    between atoms: C_7  and  C_8 
REMARK       I    between atoms: C_8  and  N_9 
REMARK    4  A    between atoms: N_9  and  N_10 
REMARK       I    between atoms: N_10  and  C_11 
REMARK    5  A    between atoms: C_11  and  C_12 
REMARK    6  A    between atoms: C_12  and  O_13 
REMARK    7  A    between atoms: O_13  and  C_14 
REMARK    8  A    between atoms: C_23  and  C_24 
ROOT
HETATM    1  C   UNL     1      43.298 -15.047   7.491  1.00  0.00     0.273 C 
HETATM    2  N   UNL     1      43.278 -13.695   7.161  1.00  0.00    -0.263 N 
HETATM    3  O   UNL     1      43.124 -15.377   8.662  1.00  0.00    -0.266 OA
HETATM    4  H   UNL     1      42.868 -13.100   7.876  1.00  0.00     0.190 HD
ENDROOT
BRANCH   2   5
HETATM    5  N   UNL     1      43.231 -13.227   5.840  1.00  0.00    -0.265 N 
HETATM    6  C   UNL     1      43.812 -12.013   5.505  1.00  0.00     0.260 C 
HETATM    7  O   UNL     1      44.463 -11.325   6.287  1.00  0.00    -0.269 OA
HETATM    8  H   UNL     1      42.808 -13.821   5.134  1.00  0.00     0.190 HD
BRANCH   6   9
HETATM    9  C   UNL     1      43.491 -11.578   4.081  1.00  0.00     0.280 C 
BRANCH   9  10
HETATM   10  O   UNL     1      43.515 -12.728   3.237  1.00  0.00    -0.342 OA
BRANCH  10  11
HETATM   11  C   UNL     1      42.339 -12.947   2.570  1.00  0.00     0.069 A 
HETATM   12  C   UNL     1      41.253 -12.158   2.960  1.00  0.00     0.043 A 
HETATM   13  C   UNL     1      40.010 -12.292   2.325  1.00  0.00    -0.059 A 
HETATM   14  C   UNL     1      38.838 -11.451   2.738  1.00  0.00     0.048 C 
HETATM   15  C   UNL     1      39.881 -13.200   1.268  1.00  0.00     0.007 A 
HETATM   16  C   UNL     1      40.970 -13.971   0.863  1.00  0.00     0.003 A 
HETATM   17  C   UNL     1      42.200 -13.845   1.512  1.00  0.00     0.037 A 
ENDBRANCH  10  11
ENDBRANCH   9  10
ENDBRANCH   6   9
ENDBRANCH   2   5
BRANCH   1  18
HETATM   18  C   UNL     1      43.567 -15.995   6.420  1.00  0.00     0.077 A 
HETATM   19  C   UNL     1      44.846 -16.465   6.038  1.00  0.00     0.158 A 
HETATM   20  N   UNL     1      44.825 -17.222   4.946  1.00  0.00    -0.183 NA
HETATM   21  N   UNL     1      43.511 -17.337   4.663  1.00  0.00    -0.268 N 
HETATM   22  C   UNL     1      42.704 -16.610   5.519  1.00  0.00     0.052 A 
BRANCH  21  23
HETATM   23  C   UNL     1      43.093 -18.095   3.481  1.00  0.00     0.106 C 
HETATM   24  C   UNL     1      43.191 -17.205   2.238  1.00  0.00     0.034 C 
BRANCH  23  25
HETATM   25  C   UNL     1      43.873 -19.408   3.253  1.00  0.00     0.022 C 
HETATM   26  C   UNL     1      43.363 -20.210   2.063  1.00  0.00     0.007 C 
ENDBRANCH  23  25
ENDBRANCH  21  23
BRANCH  22  27
HETATM   27  C   UNL     1      41.183 -16.504   5.363  1.00  0.00     0.038 A 
HETATM   28  C   UNL     1      40.466 -15.216   5.686  1.00  0.00     0.011 A 
HETATM   29  C   UNL     1      40.578 -15.663   4.265  1.00  0.00     0.011 A 
ENDBRANCH  22  27
ENDBRANCH   1  18
TORSDOF 8
ENDMDL
