MODEL 1
REMARK VINA RESULT:      -8.9      0.000      0.000
REMARK  7 active torsions:
REMARK  status: ('A' for Active; 'I' for Inactive)
REMARK    1  A    between atoms: C_2  and  C_3 
REMARK    2  A    between atoms: C_2  and  C_9 
REMARK    3  A    between atoms: C_9  and  C_10 
REMARK       I    between atoms: C_10  and  N_11 
REMARK    4  A    between atoms: N_11  and  N_12 
REMARK       I    between atoms: N_12  and  C_13 
REMARK    5  A    between atoms: C_13  and  C_14 
REMARK    6  A    between atoms: C_18  and  C_19 
REMARK    7  A    between atoms: C_22  and  O_23 
ROOT
HETATM    1  N   UNL     1      43.216 -11.856   7.643  1.00  0.00    -0.262 N 
HETATM    2  C   UNL     1      44.290 -11.196   8.199  1.00  0.00     0.288 C 
HETATM    3  O   UNL     1      45.444 -11.392   7.818  1.00  0.00    -0.264 OA
HETATM    4  H   UNL     1      42.251 -11.709   7.925  1.00  0.00     0.190 HD
ENDROOT
BRANCH   2   5
HETATM    5  C   UNL     1      43.964 -10.267   9.245  1.00  0.00     0.121 A 
HETATM    6  N   UNL     1      44.055  -8.916   9.067  1.00  0.00    -0.272 N 
HETATM    7  H   UNL     1      44.355  -8.430   8.227  1.00  0.00     0.189 HD
HETATM    8  N   UNL     1      43.694  -8.195  10.137  1.00  0.00    -0.174 NA
HETATM    9  C   UNL     1      43.351  -9.102  11.065  1.00  0.00     0.089 A 
HETATM   10  C   UNL     1      43.513 -10.418  10.542  1.00  0.00     0.071 A 
BRANCH   9  11
HETATM   11  C   UNL     1      42.871  -8.706  12.396  1.00  0.00    -0.005 A 
HETATM   12  C   UNL     1      41.846  -9.425  13.025  1.00  0.00     0.016 A 
HETATM   13  C   UNL     1      41.400  -9.067  14.301  1.00  0.00     0.037 A 
HETATM   14  C   UNL     1      41.968  -7.987  14.978  1.00  0.00     0.068 A 
HETATM   15  C   UNL     1      42.980  -7.258  14.359  1.00  0.00     0.037 A 
HETATM   16  C   UNL     1      43.428  -7.614  13.078  1.00  0.00     0.016 A 
BRANCH  14  17
HETATM   17  O   UNL     1      41.448  -7.750  16.220  1.00  0.00    -0.356 OA
HETATM   18  C   UNL     1      42.034  -6.693  16.970  1.00  0.00     0.210 C 
ENDBRANCH  14  17
ENDBRANCH   9  11
ENDBRANCH   2   5
BRANCH   1  19
HETATM   19  N   UNL     1      43.423 -12.738   6.580  1.00  0.00    -0.267 N 
HETATM   20  C   UNL     1      43.358 -14.090   6.844  1.00  0.00     0.236 C 
HETATM   21  O   UNL     1      43.208 -14.527   7.984  1.00  0.00    -0.272 OA
HETATM   22  H   UNL     1      43.491 -12.338   5.646  1.00  0.00     0.190 HD
BRANCH  20  23
HETATM   23  C   UNL     1      43.508 -14.949   5.605  1.00  0.00     0.113 C 
BRANCH  23  24
HETATM   24  C   UNL     1      42.541 -16.145   5.583  1.00  0.00     0.023 C 
HETATM   25  C   UNL     1      41.105 -15.718   5.247  1.00  0.00     0.015 C 
BRANCH  24  26
HETATM   26  C   UNL     1      43.025 -17.204   4.602  1.00  0.00    -0.054 A 
HETATM   27  C   UNL     1      43.864 -18.255   5.004  1.00  0.00     0.007 A 
HETATM   28  C   UNL     1      44.296 -19.213   4.084  1.00  0.00     0.001 A 
HETATM   29  C   UNL     1      43.895 -19.134   2.752  1.00  0.00     0.000 A 
HETATM   30  C   UNL     1      43.062 -18.096   2.339  1.00  0.00     0.001 A 
HETATM   31  C   UNL     1      42.629 -17.138   3.257  1.00  0.00     0.007 A 
ENDBRANCH  24  26
ENDBRANCH  23  24
ENDBRANCH  20  23
ENDBRANCH   1  19
TORSDOF 7
ENDMDL
MODEL 2
REMARK VINA RESULT:      -8.8      2.372     11.559
REMARK  7 active torsions:
REMARK  status: ('A' for Active; 'I' for Inactive)
REMARK    1  A    between atoms: C_2  and  C_3 
REMARK    2  A    between atoms: C_2  and  C_9 
REMARK    3  A    between atoms: C_9  and  C_10 
REMARK       I    between atoms: C_10  and  N_11 
REMARK    4  A    between atoms: N_11  and  N_12 
REMARK       I    between atoms: N_12  and  C_13 
REMARK    5  A    between atoms: C_13  and  C_14 
REMARK    6  A    between atoms: C_18  and  C_19 
REMARK    7  A    between atoms: C_22  and  O_23 
ROOT
HETATM    1  N   UNL     1      43.294 -11.907   7.521  1.00  0.00    -0.262 N 
HETATM    2  C   UNL     1      42.536 -11.877   6.371  1.00  0.00     0.288 C 
HETATM    3  O   UNL     1      41.749 -10.961   6.133  1.00  0.00    -0.264 OA
HETATM    4  H   UNL     1      43.962 -12.641   7.742  1.00  0.00     0.190 HD
ENDROOT
BRANCH   2   5
HETATM    5  C   UNL     1      42.735 -12.983   5.476  1.00  0.00     0.121 A 
HETATM    6  N   UNL     1      42.803 -12.815   4.122  1.00  0.00    -0.272 N 
HETATM    7  H   UNL     1      42.717 -11.942   3.610  1.00  0.00     0.189 HD
HETATM    8  N   UNL     1      43.013 -13.947   3.437  1.00  0.00    -0.174 NA
HETATM    9  C   UNL     1      43.085 -14.908   4.372  1.00  0.00     0.089 A 
HETATM   10  C   UNL     1      42.910 -14.340   5.667  1.00  0.00     0.071 A 
BRANCH   9  11
HETATM   11  C   UNL     1      43.330 -16.313   4.023  1.00  0.00    -0.005 A 
HETATM   12  C   UNL     1      42.896 -16.826   2.793  1.00  0.00     0.016 A 
HETATM   13  C   UNL     1      43.147 -18.158   2.445  1.00  0.00     0.037 A 
HETATM   14  C   UNL     1      43.836 -19.004   3.313  1.00  0.00     0.068 A 
HETATM   15  C   UNL     1      44.262 -18.509   4.544  1.00  0.00     0.037 A 
HETATM   16  C   UNL     1      44.011 -17.175   4.895  1.00  0.00     0.016 A 
BRANCH  14  17
HETATM   17  O   UNL     1      44.022 -20.276   2.849  1.00  0.00    -0.356 OA
HETATM   18  C   UNL     1      43.521 -20.566   1.549  1.00  0.00     0.210 C 
ENDBRANCH  14  17
ENDBRANCH   9  11
ENDBRANCH   2   5
BRANCH   1  19
HETATM   19  N   UNL     1      43.215 -10.849   8.428  1.00  0.00    -0.267 N 
HETATM   20  C   UNL     1      44.382 -10.431   9.033  1.00  0.00     0.236 C 
HETATM   21  O   UNL     1      45.452 -11.010   8.858  1.00  0.00    -0.272 OA
HETATM   22  H   UNL     1      42.322 -10.363   8.504  1.00  0.00     0.190 HD
BRANCH  20  23
HETATM   23  C   UNL     1      44.192  -9.222   9.926  1.00  0.00     0.113 C 
BRANCH  23  24
HETATM   24  C   UNL     1      43.100  -9.426  10.990  1.00  0.00     0.023 C 
HETATM   25  C   UNL     1      43.422 -10.599  11.927  1.00  0.00     0.015 C 
BRANCH  24  26
HETATM   26  C   UNL     1      42.888  -8.148  11.790  1.00  0.00    -0.054 A 
HETATM   27  C   UNL     1      42.392  -6.978  11.194  1.00  0.00     0.007 A 
HETATM   28  C   UNL     1      42.208  -5.817  11.949  1.00  0.00     0.001 A 
HETATM   29  C   UNL     1      42.517  -5.811  13.307  1.00  0.00     0.000 A 
HETATM   30  C   UNL     1      43.009  -6.966  13.912  1.00  0.00     0.001 A 
HETATM   31  C   UNL     1      43.193  -8.127  13.159  1.00  0.00     0.007 A 
ENDBRANCH  24  26
ENDBRANCH  23  24
ENDBRANCH  20  23
ENDBRANCH   1  19
TORSDOF 7
ENDMDL
MODEL 3
REMARK VINA RESULT:      -8.6      1.632      1.976
REMARK  7 active torsions:
REMARK  status: ('A' for Active; 'I' for Inactive)
REMARK    1  A    between atoms: C_2  and  C_3 
REMARK    2  A    between atoms: C_2  and  C_9 
REMARK    3  A    between atoms: C_9  and  C_10 
REMARK       I    between atoms: C_10  and  N_11 
REMARK    4  A    between atoms: N_11  and  N_12 
REMARK       I    between atoms: N_12  and  C_13 
REMARK    5  A    between atoms: C_13  and  C_14 
REMARK    6  A    between atoms: C_18  and  C_19 
REMARK    7  A    between atoms: C_22  and  O_23 
ROOT
HETATM    1  N   UNL     1      43.637 -12.629   7.115  1.00  0.00    -0.262 N 
HETATM    2  C   UNL     1      44.600 -11.644   7.136  1.00  0.00     0.288 C 
HETATM    3  O   UNL     1      45.443 -11.537   6.247  1.00  0.00    -0.264 OA
HETATM    4  H   UNL     1      42.919 -12.737   7.826  1.00  0.00     0.190 HD
ENDROOT
BRANCH   2   5
HETATM    5  C   UNL     1      44.543 -10.755   8.264  1.00  0.00     0.121 A 
HETATM    6  N   UNL     1      45.646 -10.476   9.022  1.00  0.00    -0.272 N 
HETATM    7  H   UNL     1      46.583 -10.847   8.895  1.00  0.00     0.189 HD
HETATM    8  N   UNL     1      45.421  -9.612  10.021  1.00  0.00    -0.174 NA
HETATM    9  C   UNL     1      44.117  -9.306   9.927  1.00  0.00     0.089 A 
HETATM   10  C   UNL     1      43.530 -10.010   8.836  1.00  0.00     0.071 A 
BRANCH   9  11
HETATM   11  C   UNL     1      43.475  -8.358  10.847  1.00  0.00    -0.005 A 
HETATM   12  C   UNL     1      43.493  -8.585  12.229  1.00  0.00     0.016 A 
HETATM   13  C   UNL     1      42.903  -7.675  13.112  1.00  0.00     0.037 A 
HETATM   14  C   UNL     1      42.285  -6.519  12.636  1.00  0.00     0.068 A 
HETATM   15  C   UNL     1      42.250  -6.287  11.263  1.00  0.00     0.037 A 
HETATM   16  C   UNL     1      42.840  -7.199  10.376  1.00  0.00     0.016 A 
BRANCH  14  17
HETATM   17  O   UNL     1      41.757  -5.710  13.603  1.00  0.00    -0.356 OA
HETATM   18  C   UNL     1      41.540  -6.294  14.882  1.00  0.00     0.210 C 
ENDBRANCH  14  17
ENDBRANCH   9  11
ENDBRANCH   2   5
BRANCH   1  19
HETATM   19  N   UNL     1      43.573 -13.507   6.032  1.00  0.00    -0.267 N 
HETATM   20  C   UNL     1      42.517 -13.371   5.154  1.00  0.00     0.236 C 
HETATM   21  O   UNL     1      41.609 -12.566   5.345  1.00  0.00    -0.272 OA
HETATM   22  H   UNL     1      44.371 -14.122   5.880  1.00  0.00     0.190 HD
BRANCH  20  23
HETATM   23  C   UNL     1      42.598 -14.315   3.972  1.00  0.00     0.113 C 
BRANCH  23  24
HETATM   24  C   UNL     1      41.769 -15.596   4.168  1.00  0.00     0.023 C 
HETATM   25  C   UNL     1      40.464 -15.566   3.362  1.00  0.00     0.015 C 
BRANCH  24  26
HETATM   26  C   UNL     1      42.592 -16.824   3.806  1.00  0.00    -0.054 A 
HETATM   27  C   UNL     1      43.569 -17.341   4.671  1.00  0.00     0.007 A 
HETATM   28  C   UNL     1      44.313 -18.468   4.313  1.00  0.00     0.001 A 
HETATM   29  C   UNL     1      44.089 -19.093   3.089  1.00  0.00     0.000 A 
HETATM   30  C   UNL     1      43.122 -18.592   2.220  1.00  0.00     0.001 A 
HETATM   31  C   UNL     1      42.378 -17.465   2.576  1.00  0.00     0.007 A 
ENDBRANCH  24  26
ENDBRANCH  23  24
ENDBRANCH  20  23
ENDBRANCH   1  19
TORSDOF 7
ENDMDL
MODEL 4
REMARK VINA RESULT:      -8.2      8.394     12.077
REMARK  7 active torsions:
REMARK  status: ('A' for Active; 'I' for Inactive)
REMARK    1  A    between atoms: C_2  and  C_3 
REMARK    2  A    between atoms: C_2  and  C_9 
REMARK    3  A    between atoms: C_9  and  C_10 
REMARK       I    between atoms: C_10  and  N_11 
REMARK    4  A    between atoms: N_11  and  N_12 
REMARK       I    between atoms: N_12  and  C_13 
REMARK    5  A    between atoms: C_13  and  C_14 
REMARK    6  A    between atoms: C_18  and  C_19 
REMARK    7  A    between atoms: C_22  and  O_23 
ROOT
HETATM    1  N   UNL     1      41.307 -13.998  -0.052  1.00  0.00    -0.262 N 
HETATM    2  C   UNL     1      40.225 -13.900  -0.898  1.00  0.00     0.288 C 
HETATM    3  O   UNL     1      39.356 -14.770  -0.948  1.00  0.00    -0.264 OA
HETATM    4  H   UNL     1      42.035 -13.292   0.024  1.00  0.00     0.190 HD
ENDROOT
BRANCH   2   5
HETATM    5  C   UNL     1      40.184 -12.714  -1.708  1.00  0.00     0.121 A 
HETATM    6  N   UNL     1      39.159 -12.465  -2.576  1.00  0.00    -0.272 N 
HETATM    7  H   UNL     1      38.352 -13.056  -2.753  1.00  0.00     0.189 HD
HETATM    8  N   UNL     1      39.268 -11.305  -3.237  1.00  0.00    -0.174 NA
HETATM    9  C   UNL     1      40.412 -10.761  -2.793  1.00  0.00     0.089 A 
HETATM   10  C   UNL     1      41.020 -11.621  -1.834  1.00  0.00     0.071 A 
BRANCH   9  11
HETATM   11  C   UNL     1      40.885  -9.454  -3.269  1.00  0.00    -0.005 A 
HETATM   12  C   UNL     1      41.731  -8.670  -2.472  1.00  0.00     0.016 A 
HETATM   13  C   UNL     1      42.202  -7.435  -2.929  1.00  0.00     0.037 A 
HETATM   14  C   UNL     1      41.843  -6.956  -4.189  1.00  0.00     0.068 A 
HETATM   15  C   UNL     1      40.994  -7.721  -4.986  1.00  0.00     0.037 A 
HETATM   16  C   UNL     1      40.519  -8.959  -4.529  1.00  0.00     0.016 A 
BRANCH  14  17
HETATM   17  O   UNL     1      42.379  -5.743  -4.517  1.00  0.00    -0.356 OA
HETATM   18  C   UNL     1      41.472  -4.654  -4.650  1.00  0.00     0.210 C 
ENDBRANCH  14  17
ENDBRANCH   9  11
ENDBRANCH   2   5
BRANCH   1  19
HETATM   19  N   UNL     1      41.408 -15.086   0.817  1.00  0.00    -0.267 N 
HETATM   20  C   UNL     1      41.833 -14.843   2.106  1.00  0.00     0.236 C 
HETATM   21  O   UNL     1      42.195 -13.728   2.476  1.00  0.00    -0.272 OA
HETATM   22  H   UNL     1      41.049 -15.981   0.489  1.00  0.00     0.190 HD
BRANCH  20  23
HETATM   23  C   UNL     1      41.818 -16.079   2.983  1.00  0.00     0.113 C 
BRANCH  23  24
HETATM   24  C   UNL     1      43.215 -16.465   3.500  1.00  0.00     0.023 C 
HETATM   25  C   UNL     1      43.446 -15.990   4.942  1.00  0.00     0.015 C 
BRANCH  24  26
HETATM   26  C   UNL     1      43.426 -17.969   3.394  1.00  0.00    -0.054 A 
HETATM   27  C   UNL     1      43.996 -18.710   4.440  1.00  0.00     0.007 A 
HETATM   28  C   UNL     1      44.181 -20.089   4.317  1.00  0.00     0.001 A 
HETATM   29  C   UNL     1      43.799 -20.744   3.149  1.00  0.00     0.000 A 
HETATM   30  C   UNL     1      43.230 -20.021   2.102  1.00  0.00     0.001 A 
HETATM   31  C   UNL     1      43.045 -18.642   2.224  1.00  0.00     0.007 A 
ENDBRANCH  24  26
ENDBRANCH  23  24
ENDBRANCH  20  23
ENDBRANCH   1  19
TORSDOF 7
ENDMDL
MODEL 5
REMARK VINA RESULT:      -8.1      1.969      2.273
REMARK  7 active torsions:
REMARK  status: ('A' for Active; 'I' for Inactive)
REMARK    1  A    between atoms: C_2  and  C_3 
REMARK    2  A    between atoms: C_2  and  C_9 
REMARK    3  A    between atoms: C_9  and  C_10 
REMARK       I    between atoms: C_10  and  N_11 
REMARK    4  A    between atoms: N_11  and  N_12 
REMARK       I    between atoms: N_12  and  C_13 
REMARK    5  A    between atoms: C_13  and  C_14 
REMARK    6  A    between atoms: C_18  and  C_19 
REMARK    7  A    between atoms: C_22  and  O_23 
ROOT
HETATM    1  N   UNL     1      43.192 -10.896   7.878  1.00  0.00    -0.262 N 
HETATM    2  C   UNL     1      42.836  -9.666   8.386  1.00  0.00     0.288 C 
HETATM    3  O   UNL     1      42.592  -8.705   7.656  1.00  0.00    -0.264 OA
HETATM    4  H   UNL     1      43.387 -11.713   8.451  1.00  0.00     0.190 HD
ENDROOT
BRANCH   2   5
HETATM    5  C   UNL     1      42.765  -9.591   9.819  1.00  0.00     0.121 A 
HETATM    6  N   UNL     1      43.064 -10.661  10.615  1.00  0.00    -0.272 N 
HETATM    7  H   UNL     1      43.347 -11.587  10.311  1.00  0.00     0.189 HD
HETATM    8  N   UNL     1      42.967 -10.413  11.928  1.00  0.00    -0.174 NA
HETATM    9  C   UNL     1      42.586  -9.128  12.009  1.00  0.00     0.089 A 
HETATM   10  C   UNL     1      42.444  -8.579  10.702  1.00  0.00     0.071 A 
BRANCH   9  11
HETATM   11  C   UNL     1      42.385  -8.459  13.302  1.00  0.00    -0.005 A 
HETATM   12  C   UNL     1      41.369  -8.880  14.170  1.00  0.00     0.016 A 
HETATM   13  C   UNL     1      41.187  -8.262  15.412  1.00  0.00     0.037 A 
HETATM   14  C   UNL     1      42.015  -7.214  15.815  1.00  0.00     0.068 A 
HETATM   15  C   UNL     1      43.022  -6.779  14.956  1.00  0.00     0.037 A 
HETATM   16  C   UNL     1      43.205  -7.396  13.710  1.00  0.00     0.016 A 
BRANCH  14  17
HETATM   17  O   UNL     1      41.737  -6.706  17.052  1.00  0.00    -0.356 OA
HETATM   18  C   UNL     1      41.764  -7.618  18.143  1.00  0.00     0.210 C 
ENDBRANCH  14  17
ENDBRANCH   9  11
ENDBRANCH   2   5
BRANCH   1  19
HETATM   19  N   UNL     1      43.234 -11.086   6.495  1.00  0.00    -0.267 N 
HETATM   20  C   UNL     1      43.608 -12.328   6.027  1.00  0.00     0.236 C 
HETATM   21  O   UNL     1      43.976 -13.227   6.781  1.00  0.00    -0.272 OA
HETATM   22  H   UNL     1      42.871 -10.336   5.909  1.00  0.00     0.190 HD
BRANCH  20  23
HETATM   23  C   UNL     1      43.530 -12.447   4.519  1.00  0.00     0.113 C 
BRANCH  23  24
HETATM   24  C   UNL     1      42.268 -13.183   4.038  1.00  0.00     0.023 C 
HETATM   25  C   UNL     1      41.465 -12.349   3.029  1.00  0.00     0.015 C 
BRANCH  24  26
HETATM   26  C   UNL     1      42.633 -14.535   3.442  1.00  0.00    -0.054 A 
HETATM   27  C   UNL     1      42.540 -15.720   4.188  1.00  0.00     0.007 A 
HETATM   28  C   UNL     1      42.884 -16.949   3.618  1.00  0.00     0.001 A 
HETATM   29  C   UNL     1      43.323 -17.008   2.298  1.00  0.00     0.000 A 
HETATM   30  C   UNL     1      43.419 -15.840   1.545  1.00  0.00     0.001 A 
HETATM   31  C   UNL     1      43.076 -14.611   2.113  1.00  0.00     0.007 A 
ENDBRANCH  24  26
ENDBRANCH  23  24
ENDBRANCH  20  23
ENDBRANCH   1  19
TORSDOF 7
ENDMDL
MODEL 6
REMARK VINA RESULT:      -8.1      2.783     11.437
REMARK  7 active torsions:
REMARK  status: ('A' for Active; 'I' for Inactive)
REMARK    1  A    between atoms: C_2  and  C_3 
REMARK    2  A    between atoms: C_2  and  C_9 
REMARK    3  A    between atoms: C_9  and  C_10 
REMARK       I    between atoms: C_10  and  N_11 
REMARK    4  A    between atoms: N_11  and  N_12 
REMARK       I    between atoms: N_12  and  C_13 
REMARK    5  A    between atoms: C_13  and  C_14 
REMARK    6  A    between atoms: C_18  and  C_19 
REMARK    7  A    between atoms: C_22  and  O_23 
ROOT
HETATM    1  N   UNL     1      41.131 -11.246   6.746  1.00  0.00    -0.262 N 
HETATM    2  C   UNL     1      40.064 -11.983   6.281  1.00  0.00     0.288 C 
HETATM    3  O   UNL     1      38.901 -11.699   6.567  1.00  0.00    -0.264 OA
HETATM    4  H   UNL     1      42.101 -11.445   6.518  1.00  0.00     0.190 HD
ENDROOT
BRANCH   2   5
HETATM    5  C   UNL     1      40.407 -13.096   5.440  1.00  0.00     0.121 A 
HETATM    6  N   UNL     1      39.742 -13.355   4.275  1.00  0.00    -0.272 N 
HETATM    7  H   UNL     1      38.964 -12.830   3.887  1.00  0.00     0.189 HD
HETATM    8  N   UNL     1      40.204 -14.419   3.603  1.00  0.00    -0.174 NA
HETATM    9  C   UNL     1      41.214 -14.888   4.352  1.00  0.00     0.089 A 
HETATM   10  C   UNL     1      41.369 -14.084   5.519  1.00  0.00     0.071 A 
BRANCH   9  11
HETATM   11  C   UNL     1      42.005 -16.056   3.942  1.00  0.00    -0.005 A 
HETATM   12  C   UNL     1      41.937 -16.535   2.627  1.00  0.00     0.016 A 
HETATM   13  C   UNL     1      42.704 -17.633   2.225  1.00  0.00     0.037 A 
HETATM   14  C   UNL     1      43.557 -18.275   3.123  1.00  0.00     0.068 A 
HETATM   15  C   UNL     1      43.626 -17.814   4.436  1.00  0.00     0.037 A 
HETATM   16  C   UNL     1      42.856 -16.714   4.842  1.00  0.00     0.016 A 
BRANCH  14  17
HETATM   17  O   UNL     1      44.257 -19.326   2.601  1.00  0.00    -0.356 OA
HETATM   18  C   UNL     1      43.498 -20.366   1.995  1.00  0.00     0.210 C 
ENDBRANCH  14  17
ENDBRANCH   9  11
ENDBRANCH   2   5
BRANCH   1  19
HETATM   19  N   UNL     1      40.898 -10.111   7.524  1.00  0.00    -0.267 N 
HETATM   20  C   UNL     1      41.979  -9.532   8.157  1.00  0.00     0.236 C 
HETATM   21  O   UNL     1      43.102 -10.029   8.118  1.00  0.00    -0.272 OA
HETATM   22  H   UNL     1      39.967  -9.701   7.487  1.00  0.00     0.190 HD
BRANCH  20  23
HETATM   23  C   UNL     1      41.626  -8.258   8.897  1.00  0.00     0.113 C 
BRANCH  23  24
HETATM   24  C   UNL     1      42.720  -7.814   9.883  1.00  0.00     0.023 C 
HETATM   25  C   UNL     1      43.087  -6.334   9.706  1.00  0.00     0.015 C 
BRANCH  24  26
HETATM   26  C   UNL     1      42.289  -8.088  11.317  1.00  0.00    -0.054 A 
HETATM   27  C   UNL     1      43.205  -8.069  12.380  1.00  0.00     0.007 A 
HETATM   28  C   UNL     1      42.785  -8.326  13.688  1.00  0.00     0.001 A 
HETATM   29  C   UNL     1      41.445  -8.604  13.949  1.00  0.00     0.000 A 
HETATM   30  C   UNL     1      40.524  -8.624  12.904  1.00  0.00     0.001 A 
HETATM   31  C   UNL     1      40.943  -8.367  11.597  1.00  0.00     0.007 A 
ENDBRANCH  24  26
ENDBRANCH  23  24
ENDBRANCH  20  23
ENDBRANCH   1  19
TORSDOF 7
ENDMDL
MODEL 7
REMARK VINA RESULT:      -8.1      2.447     11.252
REMARK  7 active torsions:
REMARK  status: ('A' for Active; 'I' for Inactive)
REMARK    1  A    between atoms: C_2  and  C_3 
REMARK    2  A    between atoms: C_2  and  C_9 
REMARK    3  A    between atoms: C_9  and  C_10 
REMARK       I    between atoms: C_10  and  N_11 
REMARK    4  A    between atoms: N_11  and  N_12 
REMARK       I    between atoms: N_12  and  C_13 
REMARK    5  A    between atoms: C_13  and  C_14 
REMARK    6  A    between atoms: C_18  and  C_19 
REMARK    7  A    between atoms: C_22  and  O_23 
ROOT
HETATM    1  N   UNL     1      41.896 -11.019   7.077  1.00  0.00    -0.262 N 
HETATM    2  C   UNL     1      43.024 -11.744   6.762  1.00  0.00     0.288 C 
HETATM    3  O   UNL     1      44.139 -11.427   7.176  1.00  0.00    -0.264 OA
HETATM    4  H   UNL     1      40.960 -11.261   6.763  1.00  0.00     0.190 HD
ENDROOT
BRANCH   2   5
HETATM    5  C   UNL     1      42.803 -12.891   5.926  1.00  0.00     0.121 A 
HETATM    6  N   UNL     1      41.718 -12.987   5.101  1.00  0.00    -0.272 N 
HETATM    7  H   UNL     1      40.973 -12.305   4.991  1.00  0.00     0.189 HD
HETATM    8  N   UNL     1      41.676 -14.112   4.376  1.00  0.00    -0.174 NA
HETATM    9  C   UNL     1      42.776 -14.794   4.733  1.00  0.00     0.089 A 
HETATM   10  C   UNL     1      43.508 -14.059   5.710  1.00  0.00     0.071 A 
BRANCH   9  11
HETATM   11  C   UNL     1      43.110 -16.095   4.137  1.00  0.00    -0.005 A 
HETATM   12  C   UNL     1      43.853 -17.038   4.859  1.00  0.00     0.016 A 
HETATM   13  C   UNL     1      44.154 -18.287   4.306  1.00  0.00     0.037 A 
HETATM   14  C   UNL     1      43.720 -18.622   3.023  1.00  0.00     0.068 A 
HETATM   15  C   UNL     1      42.991 -17.689   2.291  1.00  0.00     0.037 A 
HETATM   16  C   UNL     1      42.689 -16.435   2.843  1.00  0.00     0.016 A 
BRANCH  14  17
HETATM   17  O   UNL     1      44.074 -19.875   2.606  1.00  0.00    -0.356 OA
HETATM   18  C   UNL     1      43.844 -20.944   3.516  1.00  0.00     0.210 C 
ENDBRANCH  14  17
ENDBRANCH   9  11
ENDBRANCH   2   5
BRANCH   1  19
HETATM   19  N   UNL     1      41.998  -9.920   7.931  1.00  0.00    -0.267 N 
HETATM   20  C   UNL     1      40.829  -9.353   8.393  1.00  0.00     0.236 C 
HETATM   21  O   UNL     1      39.723  -9.734   8.014  1.00  0.00    -0.272 OA
HETATM   22  H   UNL     1      42.928  -9.669   8.262  1.00  0.00     0.190 HD
BRANCH  20  23
HETATM   23  C   UNL     1      41.060  -8.227   9.381  1.00  0.00     0.113 C 
BRANCH  23  24
HETATM   24  C   UNL     1      42.425  -8.317  10.085  1.00  0.00     0.023 C 
HETATM   25  C   UNL     1      43.297  -7.085   9.808  1.00  0.00     0.015 C 
BRANCH  24  26
HETATM   26  C   UNL     1      42.239  -8.512  11.584  1.00  0.00    -0.054 A 
HETATM   27  C   UNL     1      41.307  -9.426  12.100  1.00  0.00     0.007 A 
HETATM   28  C   UNL     1      41.155  -9.585  13.479  1.00  0.00     0.001 A 
HETATM   29  C   UNL     1      41.932  -8.835  14.359  1.00  0.00     0.000 A 
HETATM   30  C   UNL     1      42.862  -7.925  13.861  1.00  0.00     0.001 A 
HETATM   31  C   UNL     1      43.015  -7.765  12.483  1.00  0.00     0.007 A 
ENDBRANCH  24  26
ENDBRANCH  23  24
ENDBRANCH  20  23
ENDBRANCH   1  19
TORSDOF 7
ENDMDL
MODEL 8
REMARK VINA RESULT:      -7.8      8.000     11.641
REMARK  7 active torsions:
REMARK  status: ('A' for Active; 'I' for Inactive)
REMARK    1  A    between atoms: C_2  and  C_3 
REMARK    2  A    between atoms: C_2  and  C_9 
REMARK    3  A    between atoms: C_9  and  C_10 
REMARK       I    between atoms: C_10  and  N_11 
REMARK    4  A    between atoms: N_11  and  N_12 
REMARK       I    between atoms: N_12  and  C_13 
REMARK    5  A    between atoms: C_13  and  C_14 
REMARK    6  A    between atoms: C_18  and  C_19 
REMARK    7  A    between atoms: C_22  and  O_23 
ROOT
HETATM    1  N   UNL     1      40.567 -14.117   2.686  1.00  0.00    -0.262 N 
HETATM    2  C   UNL     1      41.330 -13.592   1.667  1.00  0.00     0.288 C 
HETATM    3  O   UNL     1      42.556 -13.523   1.739  1.00  0.00    -0.264 OA
HETATM    4  H   UNL     1      39.554 -14.201   2.653  1.00  0.00     0.190 HD
ENDROOT
BRANCH   2   5
HETATM    5  C   UNL     1      40.592 -13.138   0.520  1.00  0.00     0.121 A 
HETATM    6  N   UNL     1      41.167 -13.031  -0.714  1.00  0.00    -0.272 N 
HETATM    7  H   UNL     1      42.131 -13.238  -0.958  1.00  0.00     0.189 HD
HETATM    8  N   UNL     1      40.332 -12.613  -1.675  1.00  0.00    -0.174 NA
HETATM    9  C   UNL     1      39.155 -12.432  -1.055  1.00  0.00     0.089 A 
HETATM   10  C   UNL     1      39.281 -12.747   0.329  1.00  0.00     0.071 A 
BRANCH   9  11
HETATM   11  C   UNL     1      37.958 -11.987  -1.781  1.00  0.00    -0.005 A 
HETATM   12  C   UNL     1      37.503 -10.667  -1.661  1.00  0.00     0.016 A 
HETATM   13  C   UNL     1      36.376 -10.232  -2.367  1.00  0.00     0.037 A 
HETATM   14  C   UNL     1      35.681 -11.102  -3.206  1.00  0.00     0.068 A 
HETATM   15  C   UNL     1      36.116 -12.420  -3.325  1.00  0.00     0.037 A 
HETATM   16  C   UNL     1      37.245 -12.859  -2.617  1.00  0.00     0.016 A 
BRANCH  14  17
HETATM   17  O   UNL     1      34.606 -10.549  -3.843  1.00  0.00    -0.356 OA
HETATM   18  C   UNL     1      33.362 -11.228  -3.713  1.00  0.00     0.210 C 
ENDBRANCH  14  17
ENDBRANCH   9  11
ENDBRANCH   2   5
BRANCH   1  19
HETATM   19  N   UNL     1      41.194 -14.638   3.820  1.00  0.00    -0.267 N 
HETATM   20  C   UNL     1      41.415 -15.998   3.866  1.00  0.00     0.236 C 
HETATM   21  O   UNL     1      41.007 -16.757   2.988  1.00  0.00    -0.272 OA
HETATM   22  H   UNL     1      41.563 -13.972   4.498  1.00  0.00     0.190 HD
BRANCH  20  23
HETATM   23  C   UNL     1      42.180 -16.438   5.098  1.00  0.00     0.113 C 
BRANCH  23  24
HETATM   24  C   UNL     1      43.642 -16.811   4.795  1.00  0.00     0.023 C 
HETATM   25  C   UNL     1      44.571 -16.501   5.977  1.00  0.00     0.015 C 
BRANCH  24  26
HETATM   26  C   UNL     1      43.748 -18.278   4.404  1.00  0.00    -0.054 A 
HETATM   27  C   UNL     1      43.708 -18.689   3.062  1.00  0.00     0.007 A 
HETATM   28  C   UNL     1      43.805 -20.043   2.729  1.00  0.00     0.001 A 
HETATM   29  C   UNL     1      43.944 -21.001   3.731  1.00  0.00     0.000 A 
HETATM   30  C   UNL     1      43.987 -20.607   5.067  1.00  0.00     0.001 A 
HETATM   31  C   UNL     1      43.890 -19.254   5.401  1.00  0.00     0.007 A 
ENDBRANCH  24  26
ENDBRANCH  23  24
ENDBRANCH  20  23
ENDBRANCH   1  19
TORSDOF 7
ENDMDL
MODEL 9
REMARK VINA RESULT:      -7.7      8.470     12.371
REMARK  7 active torsions:
REMARK  status: ('A' for Active; 'I' for Inactive)
REMARK    1  A    between atoms: C_2  and  C_3 
REMARK    2  A    between atoms: C_2  and  C_9 
REMARK    3  A    between atoms: C_9  and  C_10 
REMARK       I    between atoms: C_10  and  N_11 
REMARK    4  A    between atoms: N_11  and  N_12 
REMARK       I    between atoms: N_12  and  C_13 
REMARK    5  A    between atoms: C_13  and  C_14 
REMARK    6  A    between atoms: C_18  and  C_19 
REMARK    7  A    between atoms: C_22  and  O_23 
ROOT
HETATM    1  N   UNL     1      41.272 -13.760   0.178  1.00  0.00    -0.262 N 
HETATM    2  C   UNL     1      40.079 -14.376  -0.132  1.00  0.00     0.288 C 
HETATM    3  O   UNL     1      39.772 -15.474   0.331  1.00  0.00    -0.264 OA
HETATM    4  H   UNL     1      41.550 -12.849  -0.176  1.00  0.00     0.190 HD
ENDROOT
BRANCH   2   5
HETATM    5  C   UNL     1      39.226 -13.644  -1.028  1.00  0.00     0.121 A 
HETATM    6  N   UNL     1      38.298 -14.267  -1.814  1.00  0.00    -0.272 N 
HETATM    7  H   UNL     1      38.113 -15.264  -1.866  1.00  0.00     0.189 HD
HETATM    8  N   UNL     1      37.574 -13.434  -2.573  1.00  0.00    -0.174 NA
HETATM    9  C   UNL     1      38.040 -12.208  -2.284  1.00  0.00     0.089 A 
HETATM   10  C   UNL     1      39.085 -12.301  -1.319  1.00  0.00     0.071 A 
BRANCH   9  11
HETATM   11  C   UNL     1      37.483 -11.000  -2.906  1.00  0.00    -0.005 A 
HETATM   12  C   UNL     1      38.328 -10.046  -3.488  1.00  0.00     0.016 A 
HETATM   13  C   UNL     1      37.802  -8.904  -4.101  1.00  0.00     0.037 A 
HETATM   14  C   UNL     1      36.425  -8.690  -4.149  1.00  0.00     0.068 A 
HETATM   15  C   UNL     1      35.574  -9.626  -3.564  1.00  0.00     0.037 A 
HETATM   16  C   UNL     1      36.100 -10.771  -2.947  1.00  0.00     0.016 A 
BRANCH  14  17
HETATM   17  O   UNL     1      36.043  -7.542  -4.785  1.00  0.00    -0.356 OA
HETATM   18  C   UNL     1      34.721  -7.078  -4.535  1.00  0.00     0.210 C 
ENDBRANCH  14  17
ENDBRANCH   9  11
ENDBRANCH   2   5
BRANCH   1  19
HETATM   19  N   UNL     1      42.144 -14.365   1.085  1.00  0.00    -0.267 N 
HETATM   20  C   UNL     1      42.192 -13.859   2.368  1.00  0.00     0.236 C 
HETATM   21  O   UNL     1      41.558 -12.859   2.700  1.00  0.00    -0.272 OA
HETATM   22  H   UNL     1      42.610 -15.220   0.787  1.00  0.00     0.190 HD
BRANCH  20  23
HETATM   23  C   UNL     1      43.103 -14.646   3.287  1.00  0.00     0.113 C 
BRANCH  23  24
HETATM   24  C   UNL     1      42.366 -15.754   4.059  1.00  0.00     0.023 C 
HETATM   25  C   UNL     1      40.853 -15.726   3.801  1.00  0.00     0.015 C 
BRANCH  24  26
HETATM   26  C   UNL     1      42.941 -17.120   3.712  1.00  0.00    -0.054 A 
HETATM   27  C   UNL     1      43.820 -17.793   4.575  1.00  0.00     0.007 A 
HETATM   28  C   UNL     1      44.336 -19.045   4.232  1.00  0.00     0.001 A 
HETATM   29  C   UNL     1      43.980 -19.640   3.023  1.00  0.00     0.000 A 
HETATM   30  C   UNL     1      43.108 -18.984   2.157  1.00  0.00     0.001 A 
HETATM   31  C   UNL     1      42.591 -17.733   2.499  1.00  0.00     0.007 A 
ENDBRANCH  24  26
ENDBRANCH  23  24
ENDBRANCH  20  23
ENDBRANCH   1  19
TORSDOF 7
ENDMDL
MODEL 10
REMARK VINA RESULT:      -7.6      8.958     11.527
REMARK  7 active torsions:
REMARK  status: ('A' for Active; 'I' for Inactive)
REMARK    1  A    between atoms: C_2  and  C_3 
REMARK    2  A    between atoms: C_2  and  C_9 
REMARK    3  A    between atoms: C_9  and  C_10 
REMARK       I    between atoms: C_10  and  N_11 
REMARK    4  A    between atoms: N_11  and  N_12 
REMARK       I    between atoms: N_12  and  C_13 
REMARK    5  A    between atoms: C_13  and  C_14 
REMARK    6  A    between atoms: C_18  and  C_19 
REMARK    7  A    between atoms: C_22  and  O_23 
ROOT
HETATM    1  N   UNL     1      41.223 -13.722   0.382  1.00  0.00    -0.262 N 
HETATM    2  C   UNL     1      40.010 -13.891  -0.248  1.00  0.00     0.288 C 
HETATM    3  O   UNL     1      39.603 -14.999  -0.594  1.00  0.00    -0.264 OA
HETATM    4  H   UNL     1      41.582 -12.823   0.692  1.00  0.00     0.190 HD
ENDROOT
BRANCH   2   5
HETATM    5  C   UNL     1      39.258 -12.685  -0.466  1.00  0.00     0.121 A 
HETATM    6  N   UNL     1      39.780 -11.450  -0.202  1.00  0.00    -0.272 N 
HETATM    7  H   UNL     1      40.703 -11.244   0.167  1.00  0.00     0.189 HD
HETATM    8  N   UNL     1      38.953 -10.434  -0.481  1.00  0.00    -0.174 NA
HETATM    9  C   UNL     1      37.836 -11.015  -0.946  1.00  0.00     0.089 A 
HETATM   10  C   UNL     1      37.989 -12.431  -0.947  1.00  0.00     0.071 A 
BRANCH   9  11
HETATM   11  C   UNL     1      36.678 -10.226  -1.387  1.00  0.00    -0.005 A 
HETATM   12  C   UNL     1      35.860  -9.579  -0.451  1.00  0.00     0.016 A 
HETATM   13  C   UNL     1      34.769  -8.808  -0.865  1.00  0.00     0.037 A 
HETATM   14  C   UNL     1      34.471  -8.665  -2.220  1.00  0.00     0.068 A 
HETATM   15  C   UNL     1      35.269  -9.312  -3.161  1.00  0.00     0.037 A 
HETATM   16  C   UNL     1      36.363 -10.087  -2.747  1.00  0.00     0.016 A 
BRANCH  14  17
HETATM   17  O   UNL     1      33.386  -7.879  -2.490  1.00  0.00    -0.356 OA
HETATM   18  C   UNL     1      32.936  -7.023  -1.447  1.00  0.00     0.210 C 
ENDBRANCH  14  17
ENDBRANCH   9  11
ENDBRANCH   2   5
BRANCH   1  19
HETATM   19  N   UNL     1      42.002 -14.839   0.690  1.00  0.00    -0.267 N 
HETATM   20  C   UNL     1      42.855 -14.751   1.770  1.00  0.00     0.236 C 
HETATM   21  O   UNL     1      43.001 -13.708   2.404  1.00  0.00    -0.272 OA
HETATM   22  H   UNL     1      41.812 -15.697   0.175  1.00  0.00     0.190 HD
BRANCH  20  23
HETATM   23  C   UNL     1      43.582 -16.047   2.065  1.00  0.00     0.113 C 
BRANCH  23  24
HETATM   24  C   UNL     1      43.198 -16.656   3.424  1.00  0.00     0.023 C 
HETATM   25  C   UNL     1      41.738 -16.359   3.796  1.00  0.00     0.015 C 
BRANCH  24  26
HETATM   26  C   UNL     1      43.455 -18.156   3.429  1.00  0.00    -0.054 A 
HETATM   27  C   UNL     1      44.015 -18.806   4.540  1.00  0.00     0.007 A 
HETATM   28  C   UNL     1      44.243 -20.184   4.518  1.00  0.00     0.001 A 
HETATM   29  C   UNL     1      43.914 -20.929   3.388  1.00  0.00     0.000 A 
HETATM   30  C   UNL     1      43.356 -20.298   2.279  1.00  0.00     0.001 A 
HETATM   31  C   UNL     1      43.128 -18.920   2.299  1.00  0.00     0.007 A 
ENDBRANCH  24  26
ENDBRANCH  23  24
ENDBRANCH  20  23
ENDBRANCH   1  19
TORSDOF 7
ENDMDL
