MODEL 1
REMARK VINA RESULT:      -8.3      0.000      0.000
REMARK  5 active torsions:
REMARK  status: ('A' for Active; 'I' for Inactive)
REMARK    1  A    between atoms: O_2  and  C_3 
REMARK    2  A    between atoms: C_4  and  N_5 
REMARK    3  A    between atoms: N_5  and  C_6 
REMARK    4  A    between atoms: C_6  and  C_7 
REMARK       I    between atoms: C_7  and  N_8 
REMARK    5  A    between atoms: N_8  and  C_9 
ROOT
HETATM    1  C   UNL     1      40.568 -15.818   2.042  1.00  0.00     0.235 C 
HETATM    2  N   UNL     1      41.919 -16.126   2.035  1.00  0.00    -0.325 N 
HETATM    3  O   UNL     1      39.825 -15.804   3.023  1.00  0.00    -0.272 OA
HETATM    4  H   UNL     1      42.410 -15.922   1.178  1.00  0.00     0.169 HD
ENDROOT
BRANCH   1   5
HETATM    5  C   UNL     1      40.012 -15.438   0.658  1.00  0.00     0.195 C 
BRANCH   5   6
HETATM    6  N   UNL     1      39.782 -13.988   0.599  1.00  0.00    -0.282 NA
HETATM    7  H   UNL     1      38.779 -13.782   0.698  1.00  0.00     0.128 HD
BRANCH   6   8
HETATM    8  C   UNL     1      40.201 -13.392  -0.613  1.00  0.00     0.042 A 
HETATM    9  C   UNL     1      40.901 -12.170  -0.585  1.00  0.00     0.089 A 
HETATM   10  C   UNL     1      41.356 -11.565  -1.757  1.00  0.00     0.038 A 
HETATM   11  C   UNL     1      41.095 -12.170  -2.985  1.00  0.00     0.003 A 
HETATM   12  C   UNL     1      40.399 -13.380  -3.032  1.00  0.00     0.002 A 
HETATM   13  C   UNL     1      39.962 -13.992  -1.853  1.00  0.00     0.026 A 
BRANCH   9  14
HETATM   14  O   UNL     1      41.165 -11.590   0.632  1.00  0.00    -0.354 OA
HETATM   15  C   UNL     1      41.263 -10.171   0.490  1.00  0.00     0.210 C 
ENDBRANCH   9  14
ENDBRANCH   6   8
ENDBRANCH   5   6
ENDBRANCH   1   5
BRANCH   2  16
HETATM   16  C   UNL     1      42.709 -16.611   3.112  1.00  0.00     0.045 A 
HETATM   17  C   UNL     1      43.112 -17.988   3.131  1.00  0.00     0.001 A 
HETATM   18  C   UNL     1      43.871 -18.455   4.239  1.00  0.00    -0.024 A 
HETATM   19  C   UNL     1      42.816 -18.939   2.119  1.00  0.00     0.014 A 
HETATM   20  C   UNL     1      44.286 -19.796   4.308  1.00  0.00     0.012 A 
HETATM   21  C   UNL     1      44.217 -17.582   5.277  1.00  0.00     0.012 A 
HETATM   22  C   UNL     1      43.971 -20.699   3.298  1.00  0.00     0.001 A 
HETATM   23  C   UNL     1      43.238 -20.272   2.202  1.00  0.00     0.001 A 
HETATM   24  C   UNL     1      43.824 -16.251   5.246  1.00  0.00     0.003 A 
HETATM   25  C   UNL     1      43.075 -15.772   4.174  1.00  0.00     0.030 A 
ENDBRANCH   2  16
TORSDOF 5
ENDMDL
MODEL 2
REMARK VINA RESULT:      -8.2      1.857      7.840
REMARK  5 active torsions:
REMARK  status: ('A' for Active; 'I' for Inactive)
REMARK    1  A    between atoms: O_2  and  C_3 
REMARK    2  A    between atoms: C_4  and  N_5 
REMARK    3  A    between atoms: N_5  and  C_6 
REMARK    4  A    between atoms: C_6  and  C_7 
REMARK       I    between atoms: C_7  and  N_8 
REMARK    5  A    between atoms: N_8  and  C_9 
ROOT
HETATM    1  C   UNL     1      41.526 -15.424   1.503  1.00  0.00     0.235 C 
HETATM    2  N   UNL     1      41.474 -14.372   0.602  1.00  0.00    -0.325 N 
HETATM    3  O   UNL     1      40.597 -15.848   2.189  1.00  0.00    -0.272 OA
HETATM    4  H   UNL     1      42.277 -14.270   0.002  1.00  0.00     0.169 HD
ENDROOT
BRANCH   1   5
HETATM    5  C   UNL     1      42.905 -16.102   1.582  1.00  0.00     0.195 C 
BRANCH   5   6
HETATM    6  N   UNL     1      43.174 -16.516   2.967  1.00  0.00    -0.282 NA
HETATM    7  H   UNL     1      44.012 -16.040   3.325  1.00  0.00     0.128 HD
BRANCH   6   8
HETATM    8  C   UNL     1      43.400 -17.904   3.114  1.00  0.00     0.042 A 
HETATM    9  C   UNL     1      43.933 -18.400   4.320  1.00  0.00     0.089 A 
HETATM   10  C   UNL     1      44.144 -19.765   4.515  1.00  0.00     0.038 A 
HETATM   11  C   UNL     1      43.843 -20.657   3.488  1.00  0.00     0.003 A 
HETATM   12  C   UNL     1      43.317 -20.183   2.284  1.00  0.00     0.002 A 
HETATM   13  C   UNL     1      43.090 -18.815   2.101  1.00  0.00     0.026 A 
BRANCH   9  14
HETATM   14  O   UNL     1      44.213 -17.513   5.332  1.00  0.00    -0.354 OA
HETATM   15  C   UNL     1      43.480 -17.860   6.508  1.00  0.00     0.210 C 
ENDBRANCH   9  14
ENDBRANCH   6   8
ENDBRANCH   5   6
ENDBRANCH   1   5
BRANCH   2  16
HETATM   16  C   UNL     1      40.394 -13.478   0.366  1.00  0.00     0.045 A 
HETATM   17  C   UNL     1      39.549 -13.674  -0.776  1.00  0.00     0.001 A 
HETATM   18  C   UNL     1      38.499 -12.744  -1.008  1.00  0.00    -0.024 A 
HETATM   19  C   UNL     1      39.671 -14.738  -1.709  1.00  0.00     0.014 A 
HETATM   20  C   UNL     1      37.647 -12.888  -2.116  1.00  0.00     0.012 A 
HETATM   21  C   UNL     1      38.299 -11.670  -0.132  1.00  0.00     0.012 A 
HETATM   22  C   UNL     1      37.802 -13.942  -3.011  1.00  0.00     0.001 A 
HETATM   23  C   UNL     1      38.813 -14.868  -2.808  1.00  0.00     0.001 A 
HETATM   24  C   UNL     1      39.122 -11.494   0.973  1.00  0.00     0.003 A 
HETATM   25  C   UNL     1      40.160 -12.388   1.217  1.00  0.00     0.030 A 
ENDBRANCH   2  16
TORSDOF 5
ENDMDL
MODEL 3
REMARK VINA RESULT:      -8.2      1.232      2.006
REMARK  5 active torsions:
REMARK  status: ('A' for Active; 'I' for Inactive)
REMARK    1  A    between atoms: O_2  and  C_3 
REMARK    2  A    between atoms: C_4  and  N_5 
REMARK    3  A    between atoms: N_5  and  C_6 
REMARK    4  A    between atoms: C_6  and  C_7 
REMARK       I    between atoms: C_7  and  N_8 
REMARK    5  A    between atoms: N_8  and  C_9 
ROOT
HETATM    1  C   UNL     1      40.664 -15.478   1.755  1.00  0.00     0.235 C 
HETATM    2  N   UNL     1      42.004 -15.814   1.860  1.00  0.00    -0.325 N 
HETATM    3  O   UNL     1      39.848 -15.427   2.673  1.00  0.00    -0.272 OA
HETATM    4  H   UNL     1      42.565 -15.640   1.040  1.00  0.00     0.169 HD
ENDROOT
BRANCH   1   5
HETATM    5  C   UNL     1      40.228 -15.119   0.323  1.00  0.00     0.195 C 
BRANCH   5   6
HETATM    6  N   UNL     1      39.460 -13.865   0.341  1.00  0.00    -0.282 NA
HETATM    7  H   UNL     1      38.460 -14.058   0.200  1.00  0.00     0.128 HD
BRANCH   6   8
HETATM    8  C   UNL     1      39.843 -12.947  -0.665  1.00  0.00     0.042 A 
HETATM    9  C   UNL     1      39.147 -12.922  -1.888  1.00  0.00     0.089 A 
HETATM   10  C   UNL     1      39.475 -12.012  -2.894  1.00  0.00     0.038 A 
HETATM   11  C   UNL     1      40.529 -11.123  -2.693  1.00  0.00     0.003 A 
HETATM   12  C   UNL     1      41.232 -11.135  -1.487  1.00  0.00     0.002 A 
HETATM   13  C   UNL     1      40.886 -12.037  -0.475  1.00  0.00     0.026 A 
BRANCH   9  14
HETATM   14  O   UNL     1      38.101 -13.794  -2.070  1.00  0.00    -0.354 OA
HETATM   15  C   UNL     1      38.418 -14.737  -3.096  1.00  0.00     0.210 C 
ENDBRANCH   9  14
ENDBRANCH   6   8
ENDBRANCH   5   6
ENDBRANCH   1   5
BRANCH   2  16
HETATM   16  C   UNL     1      42.697 -16.291   3.006  1.00  0.00     0.045 A 
HETATM   17  C   UNL     1      43.089 -17.669   3.074  1.00  0.00     0.001 A 
HETATM   18  C   UNL     1      43.748 -18.127   4.248  1.00  0.00    -0.024 A 
HETATM   19  C   UNL     1      42.877 -18.630   2.051  1.00  0.00     0.014 A 
HETATM   20  C   UNL     1      44.149 -19.468   4.366  1.00  0.00     0.012 A 
HETATM   21  C   UNL     1      44.009 -17.244   5.303  1.00  0.00     0.012 A 
HETATM   22  C   UNL     1      43.917 -20.381   3.342  1.00  0.00     0.001 A 
HETATM   23  C   UNL     1      43.283 -19.963   2.183  1.00  0.00     0.001 A 
HETATM   24  C   UNL     1      43.627 -15.911   5.223  1.00  0.00     0.003 A 
HETATM   25  C   UNL     1      42.975 -15.442   4.087  1.00  0.00     0.030 A 
ENDBRANCH   2  16
TORSDOF 5
ENDMDL
MODEL 4
REMARK VINA RESULT:      -8.0      1.721      2.165
REMARK  5 active torsions:
REMARK  status: ('A' for Active; 'I' for Inactive)
REMARK    1  A    between atoms: O_2  and  C_3 
REMARK    2  A    between atoms: C_4  and  N_5 
REMARK    3  A    between atoms: N_5  and  C_6 
REMARK    4  A    between atoms: C_6  and  C_7 
REMARK       I    between atoms: C_7  and  N_8 
REMARK    5  A    between atoms: N_8  and  C_9 
ROOT
HETATM    1  C   UNL     1      42.081 -13.491   2.680  1.00  0.00     0.235 C 
HETATM    2  N   UNL     1      41.798 -14.659   3.369  1.00  0.00    -0.325 N 
HETATM    3  O   UNL     1      43.184 -12.959   2.563  1.00  0.00    -0.272 OA
HETATM    4  H   UNL     1      40.878 -15.044   3.221  1.00  0.00     0.169 HD
ENDROOT
BRANCH   1   5
HETATM    5  C   UNL     1      40.854 -12.864   1.995  1.00  0.00     0.195 C 
BRANCH   5   6
HETATM    6  N   UNL     1      41.231 -12.366   0.665  1.00  0.00    -0.282 NA
HETATM    7  H   UNL     1      40.982 -11.373   0.572  1.00  0.00     0.128 HD
BRANCH   6   8
HETATM    8  C   UNL     1      40.596 -13.046  -0.401  1.00  0.00     0.042 A 
HETATM    9  C   UNL     1      40.597 -12.479  -1.690  1.00  0.00     0.089 A 
HETATM   10  C   UNL     1      40.006 -13.131  -2.772  1.00  0.00     0.038 A 
HETATM   11  C   UNL     1      39.381 -14.360  -2.572  1.00  0.00     0.003 A 
HETATM   12  C   UNL     1      39.368 -14.937  -1.299  1.00  0.00     0.002 A 
HETATM   13  C   UNL     1      39.978 -14.287  -0.222  1.00  0.00     0.026 A 
BRANCH   9  14
HETATM   14  O   UNL     1      41.227 -11.272  -1.879  1.00  0.00    -0.354 OA
HETATM   15  C   UNL     1      40.828 -10.698  -3.125  1.00  0.00     0.210 C 
ENDBRANCH   9  14
ENDBRANCH   6   8
ENDBRANCH   5   6
ENDBRANCH   1   5
BRANCH   2  16
HETATM   16  C   UNL     1      42.674 -15.423   4.188  1.00  0.00     0.045 A 
HETATM   17  C   UNL     1      43.066 -16.738   3.771  1.00  0.00     0.001 A 
HETATM   18  C   UNL     1      43.914 -17.494   4.627  1.00  0.00    -0.024 A 
HETATM   19  C   UNL     1      42.678 -17.359   2.555  1.00  0.00     0.014 A 
HETATM   20  C   UNL     1      44.323 -18.789   4.267  1.00  0.00     0.012 A 
HETATM   21  C   UNL     1      44.354 -16.955   5.842  1.00  0.00     0.012 A 
HETATM   22  C   UNL     1      43.916 -19.365   3.068  1.00  0.00     0.001 A 
HETATM   23  C   UNL     1      43.096 -18.650   2.210  1.00  0.00     0.001 A 
HETATM   24  C   UNL     1      43.969 -15.679   6.233  1.00  0.00     0.003 A 
HETATM   25  C   UNL     1      43.136 -14.923   5.414  1.00  0.00     0.030 A 
ENDBRANCH   2  16
TORSDOF 5
ENDMDL
MODEL 5
REMARK VINA RESULT:      -7.9      3.814      7.157
REMARK  5 active torsions:
REMARK  status: ('A' for Active; 'I' for Inactive)
REMARK    1  A    between atoms: O_2  and  C_3 
REMARK    2  A    between atoms: C_4  and  N_5 
REMARK    3  A    between atoms: N_5  and  C_6 
REMARK    4  A    between atoms: C_6  and  C_7 
REMARK       I    between atoms: C_7  and  N_8 
REMARK    5  A    between atoms: N_8  and  C_9 
ROOT
HETATM    1  C   UNL     1      42.709 -16.304   6.715  1.00  0.00     0.235 C 
HETATM    2  N   UNL     1      43.371 -15.381   5.922  1.00  0.00    -0.325 N 
HETATM    3  O   UNL     1      41.753 -16.080   7.457  1.00  0.00    -0.272 OA
HETATM    4  H   UNL     1      44.018 -15.765   5.251  1.00  0.00     0.169 HD
ENDROOT
BRANCH   1   5
HETATM    5  C   UNL     1      43.257 -17.737   6.587  1.00  0.00     0.195 C 
BRANCH   5   6
HETATM    6  N   UNL     1      44.296 -17.776   5.548  1.00  0.00    -0.282 NA
HETATM    7  H   UNL     1      44.443 -16.838   5.154  1.00  0.00     0.128 HD
BRANCH   6   8
HETATM    8  C   UNL     1      43.986 -18.628   4.462  1.00  0.00     0.042 A 
HETATM    9  C   UNL     1      43.553 -18.075   3.242  1.00  0.00     0.089 A 
HETATM   10  C   UNL     1      43.266 -18.879   2.140  1.00  0.00     0.038 A 
HETATM   11  C   UNL     1      43.388 -20.263   2.252  1.00  0.00     0.003 A 
HETATM   12  C   UNL     1      43.813 -20.830   3.456  1.00  0.00     0.002 A 
HETATM   13  C   UNL     1      44.118 -20.017   4.552  1.00  0.00     0.026 A 
BRANCH   9  14
HETATM   14  O   UNL     1      43.450 -16.708   3.138  1.00  0.00    -0.354 OA
HETATM   15  C   UNL     1      42.890 -16.352   1.872  1.00  0.00     0.210 C 
ENDBRANCH   9  14
ENDBRANCH   6   8
ENDBRANCH   5   6
ENDBRANCH   1   5
BRANCH   2  16
HETATM   16  C   UNL     1      43.186 -13.972   5.883  1.00  0.00     0.045 A 
HETATM   17  C   UNL     1      42.122 -13.419   5.096  1.00  0.00     0.001 A 
HETATM   18  C   UNL     1      41.983 -12.005   5.046  1.00  0.00    -0.024 A 
HETATM   19  C   UNL     1      41.177 -14.176   4.354  1.00  0.00     0.014 A 
HETATM   20  C   UNL     1      40.959 -11.413   4.286  1.00  0.00     0.012 A 
HETATM   21  C   UNL     1      42.865 -11.182   5.756  1.00  0.00     0.012 A 
HETATM   22  C   UNL     1      40.056 -12.190   3.568  1.00  0.00     0.001 A 
HETATM   23  C   UNL     1      40.162 -13.571   3.603  1.00  0.00     0.001 A 
HETATM   24  C   UNL     1      43.889 -11.730   6.517  1.00  0.00     0.003 A 
HETATM   25  C   UNL     1      44.049 -13.111   6.577  1.00  0.00     0.030 A 
ENDBRANCH   2  16
TORSDOF 5
ENDMDL
MODEL 6
REMARK VINA RESULT:      -7.9      1.526      3.157
REMARK  5 active torsions:
REMARK  status: ('A' for Active; 'I' for Inactive)
REMARK    1  A    between atoms: O_2  and  C_3 
REMARK    2  A    between atoms: C_4  and  N_5 
REMARK    3  A    between atoms: N_5  and  C_6 
REMARK    4  A    between atoms: C_6  and  C_7 
REMARK       I    between atoms: C_7  and  N_8 
REMARK    5  A    between atoms: N_8  and  C_9 
ROOT
HETATM    1  C   UNL     1      40.437 -14.999   2.262  1.00  0.00     0.235 C 
HETATM    2  N   UNL     1      41.788 -15.120   2.545  1.00  0.00    -0.325 N 
HETATM    3  O   UNL     1      39.564 -15.838   2.483  1.00  0.00    -0.272 OA
HETATM    4  H   UNL     1      42.331 -14.275   2.457  1.00  0.00     0.169 HD
ENDROOT
BRANCH   1   5
HETATM    5  C   UNL     1      40.054 -13.647   1.636  1.00  0.00     0.195 C 
BRANCH   5   6
HETATM    6  N   UNL     1      39.363 -13.871   0.359  1.00  0.00    -0.282 NA
HETATM    7  H   UNL     1      39.311 -14.878   0.153  1.00  0.00     0.128 HD
BRANCH   6   8
HETATM    8  C   UNL     1      39.998 -13.264  -0.749  1.00  0.00     0.042 A 
HETATM    9  C   UNL     1      39.844 -13.820  -2.034  1.00  0.00     0.089 A 
HETATM   10  C   UNL     1      40.431 -13.234  -3.155  1.00  0.00     0.038 A 
HETATM   11  C   UNL     1      41.205 -12.085  -3.001  1.00  0.00     0.003 A 
HETATM   12  C   UNL     1      41.371 -11.521  -1.734  1.00  0.00     0.002 A 
HETATM   13  C   UNL     1      40.765 -12.102  -0.616  1.00  0.00     0.026 A 
BRANCH   9  14
HETATM   14  O   UNL     1      39.068 -14.945  -2.177  1.00  0.00    -0.354 OA
HETATM   15  C   UNL     1      38.280 -14.852  -3.365  1.00  0.00     0.210 C 
ENDBRANCH   9  14
ENDBRANCH   6   8
ENDBRANCH   5   6
ENDBRANCH   1   5
BRANCH   2  16
HETATM   16  C   UNL     1      42.480 -16.265   3.025  1.00  0.00     0.045 A 
HETATM   17  C   UNL     1      42.672 -16.437   4.436  1.00  0.00     0.001 A 
HETATM   18  C   UNL     1      43.400 -17.572   4.886  1.00  0.00    -0.024 A 
HETATM   19  C   UNL     1      42.186 -15.557   5.439  1.00  0.00     0.014 A 
HETATM   20  C   UNL     1      43.620 -17.784   6.258  1.00  0.00     0.012 A 
HETATM   21  C   UNL     1      43.906 -18.498   3.966  1.00  0.00     0.012 A 
HETATM   22  C   UNL     1      43.131 -16.896   7.210  1.00  0.00     0.001 A 
HETATM   23  C   UNL     1      42.413 -15.783   6.802  1.00  0.00     0.001 A 
HETATM   24  C   UNL     1      43.710 -18.322   2.602  1.00  0.00     0.003 A 
HETATM   25  C   UNL     1      43.006 -17.215   2.138  1.00  0.00     0.030 A 
ENDBRANCH   2  16
TORSDOF 5
ENDMDL
MODEL 7
REMARK VINA RESULT:      -7.8      4.782      6.925
REMARK  5 active torsions:
REMARK  status: ('A' for Active; 'I' for Inactive)
REMARK    1  A    between atoms: O_2  and  C_3 
REMARK    2  A    between atoms: C_4  and  N_5 
REMARK    3  A    between atoms: N_5  and  C_6 
REMARK    4  A    between atoms: C_6  and  C_7 
REMARK       I    between atoms: C_7  and  N_8 
REMARK    5  A    between atoms: N_8  and  C_9 
ROOT
HETATM    1  C   UNL     1      42.727 -14.003   5.980  1.00  0.00     0.235 C 
HETATM    2  N   UNL     1      43.583 -14.678   5.125  1.00  0.00    -0.325 N 
HETATM    3  O   UNL     1      41.499 -13.968   5.910  1.00  0.00    -0.272 OA
HETATM    4  H   UNL     1      44.543 -14.741   5.427  1.00  0.00     0.169 HD
ENDROOT
BRANCH   1   5
HETATM    5  C   UNL     1      43.448 -13.269   7.125  1.00  0.00     0.195 C 
BRANCH   5   6
HETATM    6  N   UNL     1      42.974 -11.880   7.198  1.00  0.00    -0.282 NA
HETATM    7  H   UNL     1      42.599 -11.583   6.287  1.00  0.00     0.128 HD
BRANCH   6   8
HETATM    8  C   UNL     1      43.982 -10.950   7.545  1.00  0.00     0.042 A 
HETATM    9  C   UNL     1      43.622  -9.697   8.076  1.00  0.00     0.089 A 
HETATM   10  C   UNL     1      44.587  -8.764   8.457  1.00  0.00     0.038 A 
HETATM   11  C   UNL     1      45.936  -9.068   8.289  1.00  0.00     0.003 A 
HETATM   12  C   UNL     1      46.311 -10.305   7.760  1.00  0.00     0.002 A 
HETATM   13  C   UNL     1      45.340 -11.244   7.398  1.00  0.00     0.026 A 
BRANCH   9  14
HETATM   14  O   UNL     1      42.289  -9.412   8.250  1.00  0.00    -0.354 OA
HETATM   15  C   UNL     1      41.997  -8.101   7.765  1.00  0.00     0.210 C 
ENDBRANCH   9  14
ENDBRANCH   6   8
ENDBRANCH   5   6
ENDBRANCH   1   5
BRANCH   2  16
HETATM   16  C   UNL     1      43.256 -15.361   3.922  1.00  0.00     0.045 A 
HETATM   17  C   UNL     1      43.483 -16.773   3.825  1.00  0.00     0.001 A 
HETATM   18  C   UNL     1      43.181 -17.424   2.598  1.00  0.00    -0.024 A 
HETATM   19  C   UNL     1      43.990 -17.592   4.868  1.00  0.00     0.014 A 
HETATM   20  C   UNL     1      43.390 -18.806   2.450  1.00  0.00     0.012 A 
HETATM   21  C   UNL     1      42.666 -16.695   1.519  1.00  0.00     0.012 A 
HETATM   22  C   UNL     1      43.893 -19.573   3.495  1.00  0.00     0.001 A 
HETATM   23  C   UNL     1      44.192 -18.968   4.706  1.00  0.00     0.001 A 
HETATM   24  C   UNL     1      42.447 -15.328   1.626  1.00  0.00     0.003 A 
HETATM   25  C   UNL     1      42.742 -14.669   2.816  1.00  0.00     0.030 A 
ENDBRANCH   2  16
TORSDOF 5
ENDMDL
MODEL 8
REMARK VINA RESULT:      -7.8      1.798      3.038
REMARK  5 active torsions:
REMARK  status: ('A' for Active; 'I' for Inactive)
REMARK    1  A    between atoms: O_2  and  C_3 
REMARK    2  A    between atoms: C_4  and  N_5 
REMARK    3  A    between atoms: N_5  and  C_6 
REMARK    4  A    between atoms: C_6  and  C_7 
REMARK       I    between atoms: C_7  and  N_8 
REMARK    5  A    between atoms: N_8  and  C_9 
ROOT
HETATM    1  C   UNL     1      41.064 -14.749   1.899  1.00  0.00     0.235 C 
HETATM    2  N   UNL     1      42.388 -15.111   2.089  1.00  0.00    -0.325 N 
HETATM    3  O   UNL     1      40.078 -15.289   2.399  1.00  0.00    -0.272 OA
HETATM    4  H   UNL     1      43.074 -14.458   1.743  1.00  0.00     0.169 HD
ENDROOT
BRANCH   1   5
HETATM    5  C   UNL     1      40.882 -13.526   0.984  1.00  0.00     0.195 C 
BRANCH   5   6
HETATM    6  N   UNL     1      39.452 -13.313   0.721  1.00  0.00    -0.282 NA
HETATM    7  H   UNL     1      38.884 -13.935   1.311  1.00  0.00     0.128 HD
BRANCH   6   8
HETATM    8  C   UNL     1      39.073 -13.569  -0.618  1.00  0.00     0.042 A 
HETATM    9  C   UNL     1      38.313 -12.615  -1.322  1.00  0.00     0.089 A 
HETATM   10  C   UNL     1      37.945 -12.817  -2.653  1.00  0.00     0.038 A 
HETATM   11  C   UNL     1      38.318 -13.997  -3.294  1.00  0.00     0.003 A 
HETATM   12  C   UNL     1      39.069 -14.955  -2.610  1.00  0.00     0.002 A 
HETATM   13  C   UNL     1      39.451 -14.739  -1.282  1.00  0.00     0.026 A 
BRANCH   9  14
HETATM   14  O   UNL     1      37.963 -11.449  -0.685  1.00  0.00    -0.354 OA
HETATM   15  C   UNL     1      38.626 -10.338  -1.290  1.00  0.00     0.210 C 
ENDBRANCH   9  14
ENDBRANCH   6   8
ENDBRANCH   5   6
ENDBRANCH   1   5
BRANCH   2  16
HETATM   16  C   UNL     1      42.892 -16.243   2.785  1.00  0.00     0.045 A 
HETATM   17  C   UNL     1      43.230 -16.129   4.174  1.00  0.00     0.001 A 
HETATM   18  C   UNL     1      43.766 -17.267   4.836  1.00  0.00    -0.024 A 
HETATM   19  C   UNL     1      43.069 -14.957   4.960  1.00  0.00     0.014 A 
HETATM   20  C   UNL     1      44.118 -17.205   6.195  1.00  0.00     0.012 A 
HETATM   21  C   UNL     1      43.949 -18.468   4.141  1.00  0.00     0.012 A 
HETATM   22  C   UNL     1      43.950 -16.036   6.929  1.00  0.00     0.001 A 
HETATM   23  C   UNL     1      43.423 -14.911   6.313  1.00  0.00     0.001 A 
HETATM   24  C   UNL     1      43.614 -18.568   2.796  1.00  0.00     0.003 A 
HETATM   25  C   UNL     1      43.093 -17.465   2.126  1.00  0.00     0.030 A 
ENDBRANCH   2  16
TORSDOF 5
ENDMDL
MODEL 9
REMARK VINA RESULT:      -7.5     13.875     16.111
REMARK  5 active torsions:
REMARK  status: ('A' for Active; 'I' for Inactive)
REMARK    1  A    between atoms: O_2  and  C_3 
REMARK    2  A    between atoms: C_4  and  N_5 
REMARK    3  A    between atoms: N_5  and  C_6 
REMARK    4  A    between atoms: C_6  and  C_7 
REMARK       I    between atoms: C_7  and  N_8 
REMARK    5  A    between atoms: N_8  and  C_9 
ROOT
HETATM    1  C   UNL     1      43.815 -29.787   0.714  1.00  0.00     0.235 C 
HETATM    2  N   UNL     1      44.772 -30.041  -0.255  1.00  0.00    -0.325 N 
HETATM    3  O   UNL     1      42.755 -29.183   0.556  1.00  0.00    -0.272 OA
HETATM    4  H   UNL     1      45.495 -30.695   0.003  1.00  0.00     0.169 HD
ENDROOT
BRANCH   1   5
HETATM    5  C   UNL     1      44.163 -30.372   2.094  1.00  0.00     0.195 C 
BRANCH   5   6
HETATM    6  N   UNL     1      44.781 -29.332   2.929  1.00  0.00    -0.282 NA
HETATM    7  H   UNL     1      44.738 -28.421   2.454  1.00  0.00     0.128 HD
BRANCH   6   8
HETATM    8  C   UNL     1      46.143 -29.572   3.226  1.00  0.00     0.042 A 
HETATM    9  C   UNL     1      47.144 -28.881   2.516  1.00  0.00     0.089 A 
HETATM   10  C   UNL     1      48.497 -29.068   2.799  1.00  0.00     0.038 A 
HETATM   11  C   UNL     1      48.870 -29.975   3.789  1.00  0.00     0.003 A 
HETATM   12  C   UNL     1      47.890 -30.672   4.501  1.00  0.00     0.002 A 
HETATM   13  C   UNL     1      46.535 -30.465   4.226  1.00  0.00     0.026 A 
BRANCH   9  14
HETATM   14  O   UNL     1      46.765 -27.979   1.551  1.00  0.00    -0.354 OA
HETATM   15  C   UNL     1      47.678 -28.020   0.453  1.00  0.00     0.210 C 
ENDBRANCH   9  14
ENDBRANCH   6   8
ENDBRANCH   5   6
ENDBRANCH   1   5
BRANCH   2  16
HETATM   16  C   UNL     1      44.809 -29.560  -1.593  1.00  0.00     0.045 A 
HETATM   17  C   UNL     1      44.582 -30.468  -2.679  1.00  0.00     0.001 A 
HETATM   18  C   UNL     1      44.661 -29.967  -4.007  1.00  0.00    -0.024 A 
HETATM   19  C   UNL     1      44.276 -31.848  -2.539  1.00  0.00     0.014 A 
HETATM   20  C   UNL     1      44.452 -30.817  -5.107  1.00  0.00     0.012 A 
HETATM   21  C   UNL     1      44.948 -28.616  -4.238  1.00  0.00     0.012 A 
HETATM   22  C   UNL     1      44.159 -32.165  -4.928  1.00  0.00     0.001 A 
HETATM   23  C   UNL     1      44.069 -32.682  -3.645  1.00  0.00     0.001 A 
HETATM   24  C   UNL     1      45.162 -27.746  -3.177  1.00  0.00     0.003 A 
HETATM   25  C   UNL     1      45.096 -28.215  -1.868  1.00  0.00     0.030 A 
ENDBRANCH   2  16
TORSDOF 5
ENDMDL
MODEL 10
REMARK VINA RESULT:      -7.4      5.522      8.559
REMARK  5 active torsions:
REMARK  status: ('A' for Active; 'I' for Inactive)
REMARK    1  A    between atoms: O_2  and  C_3 
REMARK    2  A    between atoms: C_4  and  N_5 
REMARK    3  A    between atoms: N_5  and  C_6 
REMARK    4  A    between atoms: C_6  and  C_7 
REMARK       I    between atoms: C_7  and  N_8 
REMARK    5  A    between atoms: N_8  and  C_9 
ROOT
HETATM    1  C   UNL     1      43.491 -11.816   4.789  1.00  0.00     0.235 C 
HETATM    2  N   UNL     1      43.541 -11.727   6.171  1.00  0.00    -0.325 N 
HETATM    3  O   UNL     1      44.202 -11.208   3.990  1.00  0.00    -0.272 OA
HETATM    4  H   UNL     1      43.008 -12.419   6.674  1.00  0.00     0.169 HD
ENDROOT
BRANCH   1   5
HETATM    5  C   UNL     1      42.440 -12.814   4.271  1.00  0.00     0.195 C 
BRANCH   5   6
HETATM    6  N   UNL     1      42.688 -14.140   4.855  1.00  0.00    -0.282 NA
HETATM    7  H   UNL     1      43.517 -14.113   5.463  1.00  0.00     0.128 HD
BRANCH   6   8
HETATM    8  C   UNL     1      42.922 -15.152   3.895  1.00  0.00     0.042 A 
HETATM    9  C   UNL     1      43.011 -16.496   4.305  1.00  0.00     0.089 A 
HETATM   10  C   UNL     1      43.213 -17.525   3.385  1.00  0.00     0.038 A 
HETATM   11  C   UNL     1      43.350 -17.217   2.033  1.00  0.00     0.003 A 
HETATM   12  C   UNL     1      43.268 -15.889   1.609  1.00  0.00     0.002 A 
HETATM   13  C   UNL     1      43.047 -14.863   2.533  1.00  0.00     0.026 A 
BRANCH   9  14
HETATM   14  O   UNL     1      42.860 -16.790   5.639  1.00  0.00    -0.354 OA
HETATM   15  C   UNL     1      43.521 -18.018   5.950  1.00  0.00     0.210 C 
ENDBRANCH   9  14
ENDBRANCH   6   8
ENDBRANCH   5   6
ENDBRANCH   1   5
BRANCH   2  16
HETATM   16  C   UNL     1      44.317 -10.835   6.961  1.00  0.00     0.045 A 
HETATM   17  C   UNL     1      43.687  -9.707   7.582  1.00  0.00     0.001 A 
HETATM   18  C   UNL     1      44.493  -8.811   8.336  1.00  0.00    -0.024 A 
HETATM   19  C   UNL     1      42.301  -9.404   7.511  1.00  0.00     0.014 A 
HETATM   20  C   UNL     1      43.925  -7.688   8.960  1.00  0.00     0.012 A 
HETATM   21  C   UNL     1      45.869  -9.039   8.468  1.00  0.00     0.012 A 
HETATM   22  C   UNL     1      42.563  -7.423   8.862  1.00  0.00     0.001 A 
HETATM   23  C   UNL     1      41.749  -8.281   8.139  1.00  0.00     0.001 A 
HETATM   24  C   UNL     1      46.467 -10.138   7.865  1.00  0.00     0.003 A 
HETATM   25  C   UNL     1      45.698 -11.025   7.117  1.00  0.00     0.030 A 
ENDBRANCH   2  16
TORSDOF 5
ENDMDL
