MODEL 1
REMARK VINA RESULT:      -7.6      0.000      0.000
REMARK  5 active torsions:
REMARK  status: ('A' for Active; 'I' for Inactive)
REMARK    1  A    between atoms: C_2  and  C_3 
REMARK       I    between atoms: C_3  and  N_4 
REMARK    2  A    between atoms: N_4  and  C_5 
REMARK    3  A    between atoms: C_5  and  C_6 
REMARK    4  A    between atoms: C_5  and  C_17 
REMARK    5  A    between atoms: C_7  and  O_8 
ROOT
HETATM    1  C   UNL     1      43.079 -16.461   3.330  1.00  0.00     0.154 C 
ENDROOT
BRANCH   1   2
HETATM    2  N   UNL     1      43.022 -17.881   2.998  1.00  0.00    -0.348 N 
HETATM    3  C   UNL     1      43.970 -18.776   3.429  1.00  0.00     0.218 C 
HETATM    4  O   UNL     1      44.960 -18.468   4.086  1.00  0.00    -0.274 OA
HETATM    5  H   UNL     1      42.187 -18.221   2.549  1.00  0.00     0.163 HD
BRANCH   3   6
HETATM    6  C   UNL     1      43.666 -20.221   3.083  1.00  0.00     0.098 C 
HETATM    7  C   UNL     1      43.462 -20.451   1.597  1.00  0.00     0.014 C 
ENDBRANCH   3   6
ENDBRANCH   1   2
BRANCH   1   8
HETATM    8  C   UNL     1      42.138 -15.690   2.410  1.00  0.00     0.005 A 
HETATM    9  C   UNL     1      42.348 -14.334   2.119  1.00  0.00     0.103 A 
HETATM   10  C   UNL     1      41.493 -13.586   1.308  1.00  0.00     0.100 A 
HETATM   11  C   UNL     1      40.369 -14.228   0.757  1.00  0.00    -0.004 A 
HETATM   12  N   UNL     1      41.768 -12.281   1.092  1.00  0.00    -0.257 NA
HETATM   13  C   UNL     1      40.132 -15.585   1.029  1.00  0.00     0.014 A 
HETATM   14  C   UNL     1      39.510 -13.467  -0.048  1.00  0.00     0.015 A 
HETATM   15  C   UNL     1      41.005 -16.305   1.850  1.00  0.00     0.013 A 
HETATM   16  C   UNL     1      39.785 -12.123  -0.274  1.00  0.00     0.020 A 
HETATM   17  C   UNL     1      40.914 -11.581   0.312  1.00  0.00     0.117 A 
BRANCH   9  18
HETATM   18  O   UNL     1      43.431 -13.683   2.667  1.00  0.00    -0.358 OA
HETATM   19  H   UNL     1      43.091 -13.321   3.513  1.00  0.00     0.218 HD
ENDBRANCH   9  18
ENDBRANCH   1   8
BRANCH   1  20
HETATM   20  C   UNL     1      42.771 -16.181   4.806  1.00  0.00    -0.031 A 
HETATM   21  C   UNL     1      41.508 -16.398   5.383  1.00  0.00     0.009 A 
HETATM   22  C   UNL     1      41.278 -16.106   6.731  1.00  0.00     0.001 A 
HETATM   23  C   UNL     1      42.302 -15.592   7.522  1.00  0.00     0.000 A 
HETATM   24  C   UNL     1      43.561 -15.376   6.971  1.00  0.00     0.001 A 
HETATM   25  C   UNL     1      43.795 -15.671   5.627  1.00  0.00     0.009 A 
ENDBRANCH   1  20
TORSDOF 5
ENDMDL
MODEL 2
REMARK VINA RESULT:      -7.6     14.028     15.940
REMARK  5 active torsions:
REMARK  status: ('A' for Active; 'I' for Inactive)
REMARK    1  A    between atoms: C_2  and  C_3 
REMARK       I    between atoms: C_3  and  N_4 
REMARK    2  A    between atoms: N_4  and  C_5 
REMARK    3  A    between atoms: C_5  and  C_6 
REMARK    4  A    between atoms: C_5  and  C_17 
REMARK    5  A    between atoms: C_7  and  O_8 
ROOT
HETATM    1  C   UNL     1      44.560 -29.314  -0.086  1.00  0.00     0.154 C 
ENDROOT
BRANCH   1   2
HETATM    2  N   UNL     1      43.561 -30.298   0.318  1.00  0.00    -0.348 N 
HETATM    3  C   UNL     1      42.803 -30.153   1.455  1.00  0.00     0.218 C 
HETATM    4  O   UNL     1      42.920 -29.223   2.246  1.00  0.00    -0.274 OA
HETATM    5  H   UNL     1      43.340 -31.034  -0.334  1.00  0.00     0.163 HD
BRANCH   3   6
HETATM    6  C   UNL     1      41.737 -31.218   1.633  1.00  0.00     0.098 C 
HETATM    7  C   UNL     1      42.045 -32.505   0.890  1.00  0.00     0.014 C 
ENDBRANCH   3   6
ENDBRANCH   1   2
BRANCH   1   8
HETATM    8  C   UNL     1      45.917 -29.710   0.489  1.00  0.00     0.005 A 
HETATM    9  C   UNL     1      46.456 -29.054   1.606  1.00  0.00     0.103 A 
HETATM   10  C   UNL     1      47.707 -29.364   2.143  1.00  0.00     0.100 A 
HETATM   11  C   UNL     1      48.458 -30.384   1.531  1.00  0.00    -0.004 A 
HETATM   12  N   UNL     1      48.151 -28.672   3.215  1.00  0.00    -0.257 NA
HETATM   13  C   UNL     1      47.945 -31.059   0.412  1.00  0.00     0.014 A 
HETATM   14  C   UNL     1      49.717 -30.682   2.070  1.00  0.00     0.015 A 
HETATM   15  C   UNL     1      46.690 -30.721  -0.104  1.00  0.00     0.013 A 
HETATM   16  C   UNL     1      50.182 -29.973   3.172  1.00  0.00     0.020 A 
HETATM   17  C   UNL     1      49.372 -28.988   3.703  1.00  0.00     0.117 A 
BRANCH   9  18
HETATM   18  O   UNL     1      45.744 -28.039   2.205  1.00  0.00    -0.358 OA
HETATM   19  H   UNL     1      46.336 -27.719   2.920  1.00  0.00     0.218 HD
ENDBRANCH   9  18
ENDBRANCH   1   8
BRANCH   1  20
HETATM   20  C   UNL     1      44.630 -29.126  -1.606  1.00  0.00    -0.031 A 
HETATM   21  C   UNL     1      45.227 -28.010  -2.217  1.00  0.00     0.009 A 
HETATM   22  C   UNL     1      45.243 -27.880  -3.608  1.00  0.00     0.001 A 
HETATM   23  C   UNL     1      44.663 -28.858  -4.411  1.00  0.00     0.000 A 
HETATM   24  C   UNL     1      44.071 -29.973  -3.826  1.00  0.00     0.001 A 
HETATM   25  C   UNL     1      44.058 -30.109  -2.437  1.00  0.00     0.009 A 
ENDBRANCH   1  20
TORSDOF 5
ENDMDL
MODEL 3
REMARK VINA RESULT:      -7.5      2.760      6.290
REMARK  5 active torsions:
REMARK  status: ('A' for Active; 'I' for Inactive)
REMARK    1  A    between atoms: C_2  and  C_3 
REMARK       I    between atoms: C_3  and  N_4 
REMARK    2  A    between atoms: N_4  and  C_5 
REMARK    3  A    between atoms: C_5  and  C_6 
REMARK    4  A    between atoms: C_5  and  C_17 
REMARK    5  A    between atoms: C_7  and  O_8 
ROOT
HETATM    1  C   UNL     1      41.785 -14.320   4.904  1.00  0.00     0.154 C 
ENDROOT
BRANCH   1   2
HETATM    2  N   UNL     1      40.909 -13.850   3.835  1.00  0.00    -0.348 N 
HETATM    3  C   UNL     1      39.800 -13.077   4.079  1.00  0.00     0.218 C 
HETATM    4  O   UNL     1      39.422 -12.749   5.198  1.00  0.00    -0.274 OA
HETATM    5  H   UNL     1      41.213 -13.996   2.886  1.00  0.00     0.163 HD
BRANCH   3   6
HETATM    6  C   UNL     1      39.094 -12.589   2.828  1.00  0.00     0.098 C 
HETATM    7  C   UNL     1      40.018 -12.455   1.631  1.00  0.00     0.014 C 
ENDBRANCH   3   6
ENDBRANCH   1   2
BRANCH   1   8
HETATM    8  C   UNL     1      42.378 -15.669   4.511  1.00  0.00     0.005 A 
HETATM    9  C   UNL     1      42.585 -16.681   5.462  1.00  0.00     0.103 A 
HETATM   10  C   UNL     1      43.154 -17.917   5.150  1.00  0.00     0.100 A 
HETATM   11  C   UNL     1      43.536 -18.154   3.817  1.00  0.00    -0.004 A 
HETATM   12  N   UNL     1      43.326 -18.828   6.132  1.00  0.00    -0.257 NA
HETATM   13  C   UNL     1      43.342 -17.161   2.843  1.00  0.00     0.014 A 
HETATM   14  C   UNL     1      44.117 -19.393   3.514  1.00  0.00     0.015 A 
HETATM   15  C   UNL     1      42.773 -15.932   3.189  1.00  0.00     0.013 A 
HETATM   16  C   UNL     1      44.298 -20.336   4.520  1.00  0.00     0.020 A 
HETATM   17  C   UNL     1      43.891 -20.010   5.800  1.00  0.00     0.117 A 
BRANCH   9  18
HETATM   18  O   UNL     1      42.237 -16.458   6.775  1.00  0.00    -0.358 OA
HETATM   19  H   UNL     1      41.549 -17.134   6.960  1.00  0.00     0.218 HD
ENDBRANCH   9  18
ENDBRANCH   1   8
BRANCH   1  20
HETATM   20  C   UNL     1      42.880 -13.310   5.264  1.00  0.00    -0.031 A 
HETATM   21  C   UNL     1      43.477 -13.241   6.535  1.00  0.00     0.009 A 
HETATM   22  C   UNL     1      44.458 -12.285   6.814  1.00  0.00     0.001 A 
HETATM   23  C   UNL     1      44.857 -11.383   5.832  1.00  0.00     0.000 A 
HETATM   24  C   UNL     1      44.283 -11.437   4.566  1.00  0.00     0.001 A 
HETATM   25  C   UNL     1      43.307 -12.394   4.283  1.00  0.00     0.009 A 
ENDBRANCH   1  20
TORSDOF 5
ENDMDL
MODEL 4
REMARK VINA RESULT:      -7.3      2.457      6.338
REMARK  5 active torsions:
REMARK  status: ('A' for Active; 'I' for Inactive)
REMARK    1  A    between atoms: C_2  and  C_3 
REMARK       I    between atoms: C_3  and  N_4 
REMARK    2  A    between atoms: N_4  and  C_5 
REMARK    3  A    between atoms: C_5  and  C_6 
REMARK    4  A    between atoms: C_5  and  C_17 
REMARK    5  A    between atoms: C_7  and  O_8 
ROOT
HETATM    1  C   UNL     1      42.940 -13.402   3.505  1.00  0.00     0.154 C 
ENDROOT
BRANCH   1   2
HETATM    2  N   UNL     1      43.202 -13.104   4.910  1.00  0.00    -0.348 N 
HETATM    3  C   UNL     1      43.928 -12.008   5.307  1.00  0.00     0.218 C 
HETATM    4  O   UNL     1      44.453 -11.213   4.534  1.00  0.00    -0.274 OA
HETATM    5  H   UNL     1      42.719 -13.655   5.601  1.00  0.00     0.163 HD
BRANCH   3   6
HETATM    6  C   UNL     1      43.983 -11.808   6.810  1.00  0.00     0.098 C 
HETATM    7  C   UNL     1      45.302 -11.231   7.290  1.00  0.00     0.014 C 
ENDBRANCH   3   6
ENDBRANCH   1   2
BRANCH   1   8
HETATM    8  C   UNL     1      43.113 -14.898   3.268  1.00  0.00     0.005 A 
HETATM    9  C   UNL     1      43.342 -15.785   4.330  1.00  0.00     0.103 A 
HETATM   10  C   UNL     1      43.537 -17.156   4.152  1.00  0.00     0.100 A 
HETATM   11  C   UNL     1      43.500 -17.667   2.842  1.00  0.00    -0.004 A 
HETATM   12  N   UNL     1      43.762 -17.934   5.234  1.00  0.00    -0.257 NA
HETATM   13  C   UNL     1      43.272 -16.805   1.758  1.00  0.00     0.014 A 
HETATM   14  C   UNL     1      43.707 -19.043   2.671  1.00  0.00     0.015 A 
HETATM   15  C   UNL     1      43.086 -15.436   1.970  1.00  0.00     0.013 A 
HETATM   16  C   UNL     1      43.941 -19.849   3.779  1.00  0.00     0.020 A 
HETATM   17  C   UNL     1      43.960 -19.255   5.027  1.00  0.00     0.117 A 
BRANCH   9  18
HETATM   18  O   UNL     1      43.403 -15.300   5.617  1.00  0.00    -0.358 OA
HETATM   19  H   UNL     1      44.351 -15.375   5.859  1.00  0.00     0.218 HD
ENDBRANCH   9  18
ENDBRANCH   1   8
BRANCH   1  20
HETATM   20  C   UNL     1      41.563 -12.916   3.041  1.00  0.00    -0.031 A 
HETATM   21  C   UNL     1      40.359 -13.332   3.636  1.00  0.00     0.009 A 
HETATM   22  C   UNL     1      39.128 -12.873   3.157  1.00  0.00     0.001 A 
HETATM   23  C   UNL     1      39.079 -11.995   2.078  1.00  0.00     0.000 A 
HETATM   24  C   UNL     1      40.260 -11.566   1.478  1.00  0.00     0.001 A 
HETATM   25  C   UNL     1      41.490 -12.019   1.957  1.00  0.00     0.009 A 
ENDBRANCH   1  20
TORSDOF 5
ENDMDL
MODEL 5
REMARK VINA RESULT:      -7.2      2.142      3.902
REMARK  5 active torsions:
REMARK  status: ('A' for Active; 'I' for Inactive)
REMARK    1  A    between atoms: C_2  and  C_3 
REMARK       I    between atoms: C_3  and  N_4 
REMARK    2  A    between atoms: N_4  and  C_5 
REMARK    3  A    between atoms: C_5  and  C_6 
REMARK    4  A    between atoms: C_5  and  C_17 
REMARK    5  A    between atoms: C_7  and  O_8 
ROOT
HETATM    1  C   UNL     1      42.006 -15.176   3.880  1.00  0.00     0.154 C 
ENDROOT
BRANCH   1   2
HETATM    2  N   UNL     1      42.781 -13.975   4.173  1.00  0.00    -0.348 N 
HETATM    3  C   UNL     1      42.767 -13.372   5.407  1.00  0.00     0.218 C 
HETATM    4  O   UNL     1      42.082 -13.753   6.351  1.00  0.00    -0.274 OA
HETATM    5  H   UNL     1      43.443 -13.667   3.478  1.00  0.00     0.163 HD
BRANCH   3   6
HETATM    6  C   UNL     1      43.733 -12.212   5.545  1.00  0.00     0.098 C 
HETATM    7  C   UNL     1      44.638 -12.326   6.759  1.00  0.00     0.014 C 
ENDBRANCH   3   6
ENDBRANCH   1   2
BRANCH   1   8
HETATM    8  C   UNL     1      41.326 -15.017   2.523  1.00  0.00     0.005 A 
HETATM    9  C   UNL     1      41.548 -13.887   1.723  1.00  0.00     0.103 A 
HETATM   10  C   UNL     1      40.921 -13.688   0.491  1.00  0.00     0.100 A 
HETATM   11  C   UNL     1      40.026 -14.673   0.036  1.00  0.00    -0.004 A 
HETATM   12  N   UNL     1      41.187 -12.563  -0.208  1.00  0.00    -0.257 NA
HETATM   13  C   UNL     1      39.783 -15.816   0.814  1.00  0.00     0.014 A 
HETATM   14  C   UNL     1      39.393 -14.462  -1.197  1.00  0.00     0.015 A 
HETATM   15  C   UNL     1      40.423 -15.982   2.046  1.00  0.00     0.013 A 
HETATM   16  C   UNL     1      39.660 -13.305  -1.921  1.00  0.00     0.020 A 
HETATM   17  C   UNL     1      40.555 -12.395  -1.391  1.00  0.00     0.117 A 
BRANCH   9  18
HETATM   18  O   UNL     1      42.405 -12.903   2.162  1.00  0.00    -0.358 OA
HETATM   19  H   UNL     1      41.887 -12.074   2.073  1.00  0.00     0.218 HD
ENDBRANCH   9  18
ENDBRANCH   1   8
BRANCH   1  20
HETATM   20  C   UNL     1      42.846 -16.457   3.938  1.00  0.00    -0.031 A 
HETATM   21  C   UNL     1      43.268 -17.154   2.793  1.00  0.00     0.009 A 
HETATM   22  C   UNL     1      44.016 -18.329   2.905  1.00  0.00     0.001 A 
HETATM   23  C   UNL     1      44.352 -18.829   4.161  1.00  0.00     0.000 A 
HETATM   24  C   UNL     1      43.949 -18.151   5.307  1.00  0.00     0.001 A 
HETATM   25  C   UNL     1      43.206 -16.974   5.198  1.00  0.00     0.009 A 
ENDBRANCH   1  20
TORSDOF 5
ENDMDL
MODEL 6
REMARK VINA RESULT:      -7.2      2.413      3.221
REMARK  5 active torsions:
REMARK  status: ('A' for Active; 'I' for Inactive)
REMARK    1  A    between atoms: C_2  and  C_3 
REMARK       I    between atoms: C_3  and  N_4 
REMARK    2  A    between atoms: N_4  and  C_5 
REMARK    3  A    between atoms: C_5  and  C_6 
REMARK    4  A    between atoms: C_5  and  C_17 
REMARK    5  A    between atoms: C_7  and  O_8 
ROOT
HETATM    1  C   UNL     1      42.509 -13.934   3.096  1.00  0.00     0.154 C 
ENDROOT
BRANCH   1   2
HETATM    2  N   UNL     1      42.306 -15.378   3.146  1.00  0.00    -0.348 N 
HETATM    3  C   UNL     1      42.884 -16.235   2.242  1.00  0.00     0.218 C 
HETATM    4  O   UNL     1      43.579 -15.873   1.298  1.00  0.00    -0.274 OA
HETATM    5  H   UNL     1      41.831 -15.754   3.951  1.00  0.00     0.163 HD
BRANCH   3   6
HETATM    6  C   UNL     1      42.651 -17.704   2.538  1.00  0.00     0.098 C 
HETATM    7  C   UNL     1      43.908 -18.434   2.977  1.00  0.00     0.014 C 
ENDBRANCH   3   6
ENDBRANCH   1   2
BRANCH   1   8
HETATM    8  C   UNL     1      41.198 -13.254   2.713  1.00  0.00     0.005 A 
HETATM    9  C   UNL     1      40.781 -13.174   1.376  1.00  0.00     0.103 A 
HETATM   10  C   UNL     1      39.605 -12.533   0.981  1.00  0.00     0.100 A 
HETATM   11  C   UNL     1      38.804 -11.943   1.975  1.00  0.00    -0.004 A 
HETATM   12  N   UNL     1      39.287 -12.495  -0.332  1.00  0.00    -0.257 NA
HETATM   13  C   UNL     1      39.195 -12.007   3.322  1.00  0.00     0.014 A 
HETATM   14  C   UNL     1      37.631 -11.293   1.569  1.00  0.00     0.015 A 
HETATM   15  C   UNL     1      40.381 -12.652   3.684  1.00  0.00     0.013 A 
HETATM   16  C   UNL     1      37.297 -11.248   0.220  1.00  0.00     0.020 A 
HETATM   17  C   UNL     1      38.148 -11.857  -0.683  1.00  0.00     0.117 A 
BRANCH   9  18
HETATM   18  O   UNL     1      41.562 -13.728   0.387  1.00  0.00    -0.358 OA
HETATM   19  H   UNL     1      41.026 -13.627  -0.429  1.00  0.00     0.218 HD
ENDBRANCH   9  18
ENDBRANCH   1   8
BRANCH   1  20
HETATM   20  C   UNL     1      43.073 -13.366   4.403  1.00  0.00    -0.031 A 
HETATM   21  C   UNL     1      43.635 -12.081   4.506  1.00  0.00     0.009 A 
HETATM   22  C   UNL     1      44.154 -11.622   5.720  1.00  0.00     0.001 A 
HETATM   23  C   UNL     1      44.122 -12.436   6.848  1.00  0.00     0.000 A 
HETATM   24  C   UNL     1      43.566 -13.710   6.770  1.00  0.00     0.001 A 
HETATM   25  C   UNL     1      43.043 -14.169   5.560  1.00  0.00     0.009 A 
ENDBRANCH   1  20
TORSDOF 5
ENDMDL
MODEL 7
REMARK VINA RESULT:      -7.1      2.932      5.028
REMARK  5 active torsions:
REMARK  status: ('A' for Active; 'I' for Inactive)
REMARK    1  A    between atoms: C_2  and  C_3 
REMARK       I    between atoms: C_3  and  N_4 
REMARK    2  A    between atoms: N_4  and  C_5 
REMARK    3  A    between atoms: C_5  and  C_6 
REMARK    4  A    between atoms: C_5  and  C_17 
REMARK    5  A    between atoms: C_7  and  O_8 
ROOT
HETATM    1  C   UNL     1      42.565 -15.046   2.194  1.00  0.00     0.154 C 
ENDROOT
BRANCH   1   2
HETATM    2  N   UNL     1      41.345 -15.314   1.439  1.00  0.00    -0.348 N 
HETATM    3  C   UNL     1      40.869 -14.453   0.481  1.00  0.00     0.218 C 
HETATM    4  O   UNL     1      41.388 -13.377   0.203  1.00  0.00    -0.274 OA
HETATM    5  H   UNL     1      40.924 -16.223   1.543  1.00  0.00     0.163 HD
BRANCH   3   6
HETATM    6  C   UNL     1      39.660 -14.969  -0.275  1.00  0.00     0.098 C 
HETATM    7  C   UNL     1      39.442 -14.272  -1.606  1.00  0.00     0.014 C 
ENDBRANCH   3   6
ENDBRANCH   1   2
BRANCH   1   8
HETATM    8  C   UNL     1      42.322 -13.879   3.146  1.00  0.00     0.005 A 
HETATM    9  C   UNL     1      41.180 -13.827   3.961  1.00  0.00     0.103 A 
HETATM   10  C   UNL     1      40.904 -12.763   4.821  1.00  0.00     0.100 A 
HETATM   11  C   UNL     1      41.818 -11.695   4.871  1.00  0.00    -0.004 A 
HETATM   12  N   UNL     1      39.774 -12.793   5.561  1.00  0.00    -0.257 NA
HETATM   13  C   UNL     1      42.970 -11.718   4.068  1.00  0.00     0.014 A 
HETATM   14  C   UNL     1      41.529 -10.626   5.729  1.00  0.00     0.015 A 
HETATM   15  C   UNL     1      43.215 -12.797   3.213  1.00  0.00     0.013 A 
HETATM   16  C   UNL     1      40.367 -10.648   6.493  1.00  0.00     0.020 A 
HETATM   17  C   UNL     1      39.529 -11.742   6.375  1.00  0.00     0.117 A 
BRANCH   9  18
HETATM   18  O   UNL     1      40.264 -14.854   3.910  1.00  0.00    -0.358 OA
HETATM   19  H   UNL     1      39.405 -14.403   3.758  1.00  0.00     0.218 HD
ENDBRANCH   9  18
ENDBRANCH   1   8
BRANCH   1  20
HETATM   20  C   UNL     1      43.086 -16.279   2.941  1.00  0.00    -0.031 A 
HETATM   21  C   UNL     1      43.535 -16.240   4.273  1.00  0.00     0.009 A 
HETATM   22  C   UNL     1      44.020 -17.391   4.899  1.00  0.00     0.001 A 
HETATM   23  C   UNL     1      44.066 -18.599   4.207  1.00  0.00     0.000 A 
HETATM   24  C   UNL     1      43.621 -18.660   2.890  1.00  0.00     0.001 A 
HETATM   25  C   UNL     1      43.132 -17.513   2.264  1.00  0.00     0.009 A 
ENDBRANCH   1  20
TORSDOF 5
ENDMDL
MODEL 8
REMARK VINA RESULT:      -7.1     14.128     14.993
REMARK  5 active torsions:
REMARK  status: ('A' for Active; 'I' for Inactive)
REMARK    1  A    between atoms: C_2  and  C_3 
REMARK       I    between atoms: C_3  and  N_4 
REMARK    2  A    between atoms: N_4  and  C_5 
REMARK    3  A    between atoms: C_5  and  C_6 
REMARK    4  A    between atoms: C_5  and  C_17 
REMARK    5  A    between atoms: C_7  and  O_8 
ROOT
HETATM    1  C   UNL     1      44.852 -29.524   1.838  1.00  0.00     0.154 C 
ENDROOT
BRANCH   1   2
HETATM    2  N   UNL     1      46.211 -29.832   2.271  1.00  0.00    -0.348 N 
HETATM    3  C   UNL     1      47.187 -28.871   2.371  1.00  0.00     0.218 C 
HETATM    4  O   UNL     1      47.026 -27.693   2.071  1.00  0.00    -0.274 OA
HETATM    5  H   UNL     1      46.388 -30.757   2.628  1.00  0.00     0.163 HD
BRANCH   3   6
HETATM    6  C   UNL     1      48.495 -29.370   2.955  1.00  0.00     0.098 C 
HETATM    7  C   UNL     1      48.316 -30.160   4.238  1.00  0.00     0.014 C 
ENDBRANCH   3   6
ENDBRANCH   1   2
BRANCH   1   8
HETATM    8  C   UNL     1      44.706 -29.861   0.358  1.00  0.00     0.005 A 
HETATM    9  C   UNL     1      45.000 -28.918  -0.639  1.00  0.00     0.103 A 
HETATM   10  C   UNL     1      44.850 -29.175  -2.002  1.00  0.00     0.100 A 
HETATM   11  C   UNL     1      44.382 -30.444  -2.391  1.00  0.00    -0.004 A 
HETATM   12  N   UNL     1      45.147 -28.203  -2.891  1.00  0.00    -0.257 NA
HETATM   13  C   UNL     1      44.080 -31.410  -1.417  1.00  0.00     0.014 A 
HETATM   14  C   UNL     1      44.224 -30.692  -3.761  1.00  0.00     0.015 A 
HETATM   15  C   UNL     1      44.237 -31.118  -0.059  1.00  0.00     0.013 A 
HETATM   16  C   UNL     1      44.526 -29.695  -4.682  1.00  0.00     0.020 A 
HETATM   17  C   UNL     1      44.979 -28.480  -4.204  1.00  0.00     0.117 A 
BRANCH   9  18
HETATM   18  O   UNL     1      45.439 -27.664  -0.276  1.00  0.00    -0.358 OA
HETATM   19  H   UNL     1      44.810 -27.381   0.423  1.00  0.00     0.218 HD
ENDBRANCH   9  18
ENDBRANCH   1   8
BRANCH   1  20
HETATM   20  C   UNL     1      43.784 -30.232   2.681  1.00  0.00    -0.031 A 
HETATM   21  C   UNL     1      42.441 -29.818   2.728  1.00  0.00     0.009 A 
HETATM   22  C   UNL     1      41.514 -30.488   3.531  1.00  0.00     0.001 A 
HETATM   23  C   UNL     1      41.911 -31.579   4.300  1.00  0.00     0.000 A 
HETATM   24  C   UNL     1      43.234 -32.008   4.263  1.00  0.00     0.001 A 
HETATM   25  C   UNL     1      44.161 -31.344   3.458  1.00  0.00     0.009 A 
ENDBRANCH   1  20
TORSDOF 5
ENDMDL
MODEL 9
REMARK VINA RESULT:      -7.1     13.895     16.273
REMARK  5 active torsions:
REMARK  status: ('A' for Active; 'I' for Inactive)
REMARK    1  A    between atoms: C_2  and  C_3 
REMARK       I    between atoms: C_3  and  N_4 
REMARK    2  A    between atoms: N_4  and  C_5 
REMARK    3  A    between atoms: C_5  and  C_6 
REMARK    4  A    between atoms: C_5  and  C_17 
REMARK    5  A    between atoms: C_7  and  O_8 
ROOT
HETATM    1  C   UNL     1      44.576 -29.218   0.415  1.00  0.00     0.154 C 
ENDROOT
BRANCH   1   2
HETATM    2  N   UNL     1      43.747 -30.351   0.815  1.00  0.00    -0.348 N 
HETATM    3  C   UNL     1      42.458 -30.197   1.263  1.00  0.00     0.218 C 
HETATM    4  O   UNL     1      41.904 -29.113   1.407  1.00  0.00    -0.274 OA
HETATM    5  H   UNL     1      44.100 -31.275   0.628  1.00  0.00     0.163 HD
BRANCH   3   6
HETATM    6  C   UNL     1      41.725 -31.502   1.510  1.00  0.00     0.098 C 
HETATM    7  C   UNL     1      42.265 -32.658   0.688  1.00  0.00     0.014 C 
ENDBRANCH   3   6
ENDBRANCH   1   2
BRANCH   1   8
HETATM    8  C   UNL     1      45.956 -29.354   1.050  1.00  0.00     0.005 A 
HETATM    9  C   UNL     1      46.702 -30.536   0.930  1.00  0.00     0.103 A 
HETATM   10  C   UNL     1      47.953 -30.713   1.522  1.00  0.00     0.100 A 
HETATM   11  C   UNL     1      48.488 -29.651   2.275  1.00  0.00    -0.004 A 
HETATM   12  N   UNL     1      48.596 -31.891   1.362  1.00  0.00    -0.257 NA
HETATM   13  C   UNL     1      47.765 -28.455   2.413  1.00  0.00     0.014 A 
HETATM   14  C   UNL     1      49.739 -29.840   2.875  1.00  0.00     0.015 A 
HETATM   15  C   UNL     1      46.512 -28.312   1.811  1.00  0.00     0.013 A 
HETATM   16  C   UNL     1      50.406 -31.050   2.716  1.00  0.00     0.020 A 
HETATM   17  C   UNL     1      49.800 -32.035   1.959  1.00  0.00     0.117 A 
BRANCH   9  18
HETATM   18  O   UNL     1      46.186 -31.594   0.215  1.00  0.00    -0.358 OA
HETATM   19  H   UNL     1      46.904 -32.262   0.220  1.00  0.00     0.218 HD
ENDBRANCH   9  18
ENDBRANCH   1   8
BRANCH   1  20
HETATM   20  C   UNL     1      44.673 -29.060  -1.107  1.00  0.00    -0.031 A 
HETATM   21  C   UNL     1      45.370 -28.009  -1.729  1.00  0.00     0.009 A 
HETATM   22  C   UNL     1      45.409 -27.902  -3.122  1.00  0.00     0.001 A 
HETATM   23  C   UNL     1      44.753 -28.839  -3.916  1.00  0.00     0.000 A 
HETATM   24  C   UNL     1      44.062 -29.890  -3.320  1.00  0.00     0.001 A 
HETATM   25  C   UNL     1      44.026 -30.002  -1.930  1.00  0.00     0.009 A 
ENDBRANCH   1  20
TORSDOF 5
ENDMDL
MODEL 10
REMARK VINA RESULT:      -7.0      7.866     10.995
REMARK  5 active torsions:
REMARK  status: ('A' for Active; 'I' for Inactive)
REMARK    1  A    between atoms: C_2  and  C_3 
REMARK       I    between atoms: C_3  and  N_4 
REMARK    2  A    between atoms: N_4  and  C_5 
REMARK    3  A    between atoms: C_5  and  C_6 
REMARK    4  A    between atoms: C_5  and  C_17 
REMARK    5  A    between atoms: C_7  and  O_8 
ROOT
HETATM    1  C   UNL     1      42.429  -9.204   8.746  1.00  0.00     0.154 C 
ENDROOT
BRANCH   1   2
HETATM    2  N   UNL     1      41.380 -10.052   8.189  1.00  0.00    -0.348 N 
HETATM    3  C   UNL     1      40.280  -9.536   7.548  1.00  0.00     0.218 C 
HETATM    4  O   UNL     1      40.056  -8.337   7.422  1.00  0.00    -0.274 OA
HETATM    5  H   UNL     1      41.546 -11.045   8.166  1.00  0.00     0.163 HD
BRANCH   3   6
HETATM    6  C   UNL     1      39.370 -10.582   6.933  1.00  0.00     0.098 C 
HETATM    7  C   UNL     1      40.126 -11.699   6.235  1.00  0.00     0.014 C 
ENDBRANCH   3   6
ENDBRANCH   1   2
BRANCH   1   8
HETATM    8  C   UNL     1      42.284  -9.157  10.264  1.00  0.00     0.005 A 
HETATM    9  C   UNL     1      41.482  -8.192  10.891  1.00  0.00     0.103 A 
HETATM   10  C   UNL     1      41.348  -8.094  12.277  1.00  0.00     0.100 A 
HETATM   11  C   UNL     1      42.053  -9.010  13.079  1.00  0.00    -0.004 A 
HETATM   12  N   UNL     1      40.561  -7.125  12.795  1.00  0.00    -0.257 NA
HETATM   13  C   UNL     1      42.864  -9.988  12.480  1.00  0.00     0.014 A 
HETATM   14  C   UNL     1      41.921  -8.899  14.469  1.00  0.00     0.015 A 
HETATM   15  C   UNL     1      42.980 -10.056  11.089  1.00  0.00     0.013 A 
HETATM   16  C   UNL     1      41.115  -7.904  15.010  1.00  0.00     0.020 A 
HETATM   17  C   UNL     1      40.462  -7.049  14.141  1.00  0.00     0.117 A 
BRANCH   9  18
HETATM   18  O   UNL     1      40.801  -7.273  10.123  1.00  0.00    -0.358 OA
HETATM   19  H   UNL     1      39.855  -7.456  10.311  1.00  0.00     0.218 HD
ENDBRANCH   9  18
ENDBRANCH   1   8
BRANCH   1  20
HETATM   20  C   UNL     1      43.837  -9.648   8.332  1.00  0.00    -0.031 A 
HETATM   21  C   UNL     1      44.979  -8.847   8.503  1.00  0.00     0.009 A 
HETATM   22  C   UNL     1      46.236  -9.295   8.087  1.00  0.00     0.001 A 
HETATM   23  C   UNL     1      46.373 -10.546   7.493  1.00  0.00     0.000 A 
HETATM   24  C   UNL     1      45.256 -11.358   7.319  1.00  0.00     0.001 A 
HETATM   25  C   UNL     1      44.001 -10.915   7.738  1.00  0.00     0.009 A 
ENDBRANCH   1  20
TORSDOF 5
ENDMDL
