MODEL 1
REMARK VINA RESULT:      -7.2      0.000      0.000
REMARK  6 active torsions:
REMARK  status: ('A' for Active; 'I' for Inactive)
REMARK    1  A    between atoms: C_2  and  C_3 
REMARK    2  A    between atoms: C_3  and  N_4 
REMARK    3  A    between atoms: C_3  and  C_15 
REMARK       I    between atoms: N_4  and  C_5 
REMARK       I    between atoms: C_5  and  N_6 
REMARK    4  A    between atoms: N_6  and  C_7 
REMARK    5  A    between atoms: C_16  and  O_17 
REMARK    6  A    between atoms: O_17  and  C_18 
ROOT
HETATM    1  N   UNL     1      42.680 -14.399   2.935  1.00  0.00    -0.334 N 
HETATM    2  C   UNL     1      43.079 -13.289   3.618  1.00  0.00     0.321 C 
HETATM    3  N   UNL     1      43.123 -13.441   4.976  1.00  0.00    -0.307 N 
HETATM    4  O   UNL     1      43.404 -12.288   2.987  1.00  0.00    -0.247 OA
HETATM    5  H   UNL     1      42.706 -14.270   1.933  1.00  0.00     0.165 HD
HETATM    6  H   UNL     1      43.470 -14.358   5.231  1.00  0.00     0.170 HD
ENDROOT
BRANCH   1   7
HETATM    7  C   UNL     1      41.872 -15.511   3.438  1.00  0.00     0.122 C 
BRANCH   7   8
HETATM    8  C   UNL     1      40.457 -15.451   2.812  1.00  0.00     0.026 C 
HETATM    9  C   UNL     1      40.384 -14.830   1.418  1.00  0.00     0.007 C 
ENDBRANCH   7   8
BRANCH   7  10
HETATM   10  C   UNL     1      42.647 -16.822   3.345  1.00  0.00    -0.002 A 
HETATM   11  C   UNL     1      43.588 -17.149   4.349  1.00  0.00     0.077 A 
HETATM   12  C   UNL     1      44.278 -18.367   4.308  1.00  0.00     0.037 A 
HETATM   13  C   UNL     1      44.059 -19.266   3.268  1.00  0.00     0.003 A 
HETATM   14  C   UNL     1      43.137 -18.962   2.274  1.00  0.00     0.001 A 
HETATM   15  C   UNL     1      42.433 -17.756   2.316  1.00  0.00     0.012 A 
BRANCH  11  16
HETATM   16  O   UNL     1      43.733 -16.257   5.387  1.00  0.00    -0.351 OA
BRANCH  16  17
HETATM   17  C   UNL     1      43.413 -16.775   6.682  1.00  0.00     0.171 C 
HETATM   18  C   UNL     1      42.119 -16.130   7.144  1.00  0.00     0.034 C 
ENDBRANCH  16  17
ENDBRANCH  11  16
ENDBRANCH   7  10
ENDBRANCH   1   7
BRANCH   3  19
HETATM   19  C   UNL     1      43.304 -12.422   5.937  1.00  0.00     0.059 A 
HETATM   20  C   UNL     1      42.382 -11.410   6.245  1.00  0.00    -0.032 A 
HETATM   21  C   UNL     1      41.023 -11.274   5.618  1.00  0.00     0.050 C 
HETATM   22  C   UNL     1      42.736 -10.466   7.226  1.00  0.00     0.028 A 
HETATM   23  C   UNL     1      43.943 -10.593   7.896  1.00  0.00     0.117 A 
HETATM   24  N   UNL     1      44.821 -11.585   7.666  1.00  0.00    -0.271 NA
HETATM   25  C   UNL     1      44.478 -12.469   6.698  1.00  0.00     0.146 A 
ENDBRANCH   3  19
TORSDOF 6
ENDMDL
MODEL 2
REMARK VINA RESULT:      -7.2      2.820      4.501
REMARK  6 active torsions:
REMARK  status: ('A' for Active; 'I' for Inactive)
REMARK    1  A    between atoms: C_2  and  C_3 
REMARK    2  A    between atoms: C_3  and  N_4 
REMARK    3  A    between atoms: C_3  and  C_15 
REMARK       I    between atoms: N_4  and  C_5 
REMARK       I    between atoms: C_5  and  N_6 
REMARK    4  A    between atoms: N_6  and  C_7 
REMARK    5  A    between atoms: C_16  and  O_17 
REMARK    6  A    between atoms: O_17  and  C_18 
ROOT
HETATM    1  N   UNL     1      42.045 -16.730   5.830  1.00  0.00    -0.334 N 
HETATM    2  C   UNL     1      41.093 -15.778   5.617  1.00  0.00     0.321 C 
HETATM    3  N   UNL     1      41.202 -15.122   4.422  1.00  0.00    -0.307 N 
HETATM    4  O   UNL     1      40.214 -15.618   6.457  1.00  0.00    -0.247 OA
HETATM    5  H   UNL     1      41.908 -17.229   6.698  1.00  0.00     0.165 HD
HETATM    6  H   UNL     1      41.475 -15.755   3.680  1.00  0.00     0.170 HD
ENDROOT
BRANCH   1   7
HETATM    7  C   UNL     1      43.373 -16.812   5.222  1.00  0.00     0.122 C 
BRANCH   7   8
HETATM    8  C   UNL     1      44.456 -16.576   6.303  1.00  0.00     0.026 C 
HETATM    9  C   UNL     1      43.995 -16.775   7.746  1.00  0.00     0.007 C 
ENDBRANCH   7   8
BRANCH   7  10
HETATM   10  C   UNL     1      43.487 -18.058   4.348  1.00  0.00    -0.002 A 
HETATM   11  C   UNL     1      43.026 -18.017   3.011  1.00  0.00     0.077 A 
HETATM   12  C   UNL     1      43.161 -19.134   2.177  1.00  0.00     0.037 A 
HETATM   13  C   UNL     1      43.736 -20.307   2.659  1.00  0.00     0.003 A 
HETATM   14  C   UNL     1      44.195 -20.365   3.968  1.00  0.00     0.001 A 
HETATM   15  C   UNL     1      44.079 -19.249   4.802  1.00  0.00     0.012 A 
BRANCH  11  16
HETATM   16  O   UNL     1      42.516 -16.821   2.560  1.00  0.00    -0.351 OA
BRANCH  16  17
HETATM   17  C   UNL     1      43.238 -16.221   1.480  1.00  0.00     0.171 C 
HETATM   18  C   UNL     1      43.556 -14.787   1.861  1.00  0.00     0.034 C 
ENDBRANCH  16  17
ENDBRANCH  11  16
ENDBRANCH   7  10
ENDBRANCH   1   7
BRANCH   3  19
HETATM   19  C   UNL     1      40.490 -13.970   4.020  1.00  0.00     0.059 A 
HETATM   20  C   UNL     1      39.827 -13.799   2.795  1.00  0.00    -0.032 A 
HETATM   21  C   UNL     1      39.739 -14.845   1.720  1.00  0.00     0.050 C 
HETATM   22  C   UNL     1      39.177 -12.575   2.558  1.00  0.00     0.028 A 
HETATM   23  C   UNL     1      39.155 -11.606   3.548  1.00  0.00     0.117 A 
HETATM   24  N   UNL     1      39.729 -11.762   4.755  1.00  0.00    -0.271 NA
HETATM   25  C   UNL     1      40.377 -12.935   4.956  1.00  0.00     0.146 A 
ENDBRANCH   3  19
TORSDOF 6
ENDMDL
MODEL 3
REMARK VINA RESULT:      -6.7      2.407      4.338
REMARK  6 active torsions:
REMARK  status: ('A' for Active; 'I' for Inactive)
REMARK    1  A    between atoms: C_2  and  C_3 
REMARK    2  A    between atoms: C_3  and  N_4 
REMARK    3  A    between atoms: C_3  and  C_15 
REMARK       I    between atoms: N_4  and  C_5 
REMARK       I    between atoms: C_5  and  N_6 
REMARK    4  A    between atoms: N_6  and  C_7 
REMARK    5  A    between atoms: C_16  and  O_17 
REMARK    6  A    between atoms: O_17  and  C_18 
ROOT
HETATM    1  N   UNL     1      41.553 -14.917   5.860  1.00  0.00    -0.334 N 
HETATM    2  C   UNL     1      40.584 -13.976   5.673  1.00  0.00     0.321 C 
HETATM    3  N   UNL     1      40.765 -13.182   4.574  1.00  0.00    -0.307 N 
HETATM    4  O   UNL     1      39.632 -13.943   6.445  1.00  0.00    -0.247 OA
HETATM    5  H   UNL     1      41.365 -15.518   6.650  1.00  0.00     0.165 HD
HETATM    6  H   UNL     1      41.126 -13.715   3.792  1.00  0.00     0.170 HD
ENDROOT
BRANCH   1   7
HETATM    7  C   UNL     1      42.930 -14.885   5.365  1.00  0.00     0.122 C 
BRANCH   7   8
HETATM    8  C   UNL     1      43.888 -14.487   6.515  1.00  0.00     0.026 C 
HETATM    9  C   UNL     1      44.090 -12.985   6.707  1.00  0.00     0.007 C 
ENDBRANCH   7   8
BRANCH   7  10
HETATM   10  C   UNL     1      43.244 -16.151   4.572  1.00  0.00    -0.002 A 
HETATM   11  C   UNL     1      42.791 -16.268   3.237  1.00  0.00     0.077 A 
HETATM   12  C   UNL     1      43.105 -17.400   2.475  1.00  0.00     0.037 A 
HETATM   13  C   UNL     1      43.854 -18.436   3.029  1.00  0.00     0.003 A 
HETATM   14  C   UNL     1      44.309 -18.337   4.337  1.00  0.00     0.001 A 
HETATM   15  C   UNL     1      44.013 -17.203   5.099  1.00  0.00     0.012 A 
BRANCH  11  16
HETATM   16  O   UNL     1      42.101 -15.198   2.713  1.00  0.00    -0.351 OA
BRANCH  16  17
HETATM   17  C   UNL     1      41.237 -15.512   1.616  1.00  0.00     0.171 C 
HETATM   18  C   UNL     1      39.826 -15.669   2.155  1.00  0.00     0.034 C 
ENDBRANCH  16  17
ENDBRANCH  11  16
ENDBRANCH   7  10
ENDBRANCH   1   7
BRANCH   3  19
HETATM   19  C   UNL     1      40.043 -12.014   4.245  1.00  0.00     0.059 A 
HETATM   20  C   UNL     1      40.150 -10.773   4.891  1.00  0.00    -0.032 A 
HETATM   21  C   UNL     1      41.092 -10.479   6.024  1.00  0.00     0.050 C 
HETATM   22  C   UNL     1      39.341  -9.716   4.436  1.00  0.00     0.028 A 
HETATM   23  C   UNL     1      38.515  -9.908   3.339  1.00  0.00     0.117 A 
HETATM   24  N   UNL     1      38.434 -11.067   2.662  1.00  0.00    -0.271 NA
HETATM   25  C   UNL     1      39.198 -12.083   3.132  1.00  0.00     0.146 A 
ENDBRANCH   3  19
TORSDOF 6
ENDMDL
MODEL 4
REMARK VINA RESULT:      -6.7      1.615      2.175
REMARK  6 active torsions:
REMARK  status: ('A' for Active; 'I' for Inactive)
REMARK    1  A    between atoms: C_2  and  C_3 
REMARK    2  A    between atoms: C_3  and  N_4 
REMARK    3  A    between atoms: C_3  and  C_15 
REMARK       I    between atoms: N_4  and  C_5 
REMARK       I    between atoms: C_5  and  N_6 
REMARK    4  A    between atoms: N_6  and  C_7 
REMARK    5  A    between atoms: C_16  and  O_17 
REMARK    6  A    between atoms: O_17  and  C_18 
ROOT
HETATM    1  N   UNL     1      43.074 -14.248   2.911  1.00  0.00    -0.334 N 
HETATM    2  C   UNL     1      42.725 -13.027   3.408  1.00  0.00     0.321 C 
HETATM    3  N   UNL     1      41.706 -13.054   4.321  1.00  0.00    -0.307 N 
HETATM    4  O   UNL     1      43.357 -12.038   3.052  1.00  0.00    -0.247 OA
HETATM    5  H   UNL     1      43.860 -14.200   2.278  1.00  0.00     0.165 HD
HETATM    6  H   UNL     1      41.783 -13.858   4.932  1.00  0.00     0.170 HD
ENDROOT
BRANCH   1   7
HETATM    7  C   UNL     1      42.245 -15.452   2.847  1.00  0.00     0.122 C 
BRANCH   7   8
HETATM    8  C   UNL     1      41.538 -15.525   1.472  1.00  0.00     0.026 C 
HETATM    9  C   UNL     1      40.025 -15.736   1.523  1.00  0.00     0.007 C 
ENDBRANCH   7   8
BRANCH   7  10
HETATM   10  C   UNL     1      43.032 -16.671   3.318  1.00  0.00    -0.002 A 
HETATM   11  C   UNL     1      43.438 -16.760   4.671  1.00  0.00     0.077 A 
HETATM   12  C   UNL     1      44.123 -17.890   5.136  1.00  0.00     0.037 A 
HETATM   13  C   UNL     1      44.430 -18.935   4.267  1.00  0.00     0.003 A 
HETATM   14  C   UNL     1      44.038 -18.864   2.936  1.00  0.00     0.001 A 
HETATM   15  C   UNL     1      43.340 -17.748   2.468  1.00  0.00     0.012 A 
BRANCH  11  16
HETATM   16  O   UNL     1      43.066 -15.731   5.506  1.00  0.00    -0.351 OA
BRANCH  16  17
HETATM   17  C   UNL     1      42.282 -16.122   6.637  1.00  0.00     0.171 C 
HETATM   18  C   UNL     1      42.967 -15.605   7.890  1.00  0.00     0.034 C 
ENDBRANCH  16  17
ENDBRANCH  11  16
ENDBRANCH   7  10
ENDBRANCH   1   7
BRANCH   3  19
HETATM   19  C   UNL     1      41.011 -11.942   4.846  1.00  0.00     0.059 A 
HETATM   20  C   UNL     1      39.855 -11.364   4.300  1.00  0.00    -0.032 A 
HETATM   21  C   UNL     1      39.145 -11.868   3.076  1.00  0.00     0.050 C 
HETATM   22  C   UNL     1      39.300 -10.249   4.953  1.00  0.00     0.028 A 
HETATM   23  C   UNL     1      39.865  -9.793   6.133  1.00  0.00     0.117 A 
HETATM   24  N   UNL     1      40.937 -10.362   6.713  1.00  0.00    -0.271 NA
HETATM   25  C   UNL     1      41.477 -11.417   6.057  1.00  0.00     0.146 A 
ENDBRANCH   3  19
TORSDOF 6
ENDMDL
MODEL 5
REMARK VINA RESULT:      -6.6      1.600      2.895
REMARK  6 active torsions:
REMARK  status: ('A' for Active; 'I' for Inactive)
REMARK    1  A    between atoms: C_2  and  C_3 
REMARK    2  A    between atoms: C_3  and  N_4 
REMARK    3  A    between atoms: C_3  and  C_15 
REMARK       I    between atoms: N_4  and  C_5 
REMARK       I    between atoms: C_5  and  N_6 
REMARK    4  A    between atoms: N_6  and  C_7 
REMARK    5  A    between atoms: C_16  and  O_17 
REMARK    6  A    between atoms: O_17  and  C_18 
ROOT
HETATM    1  N   UNL     1      43.203 -13.261   4.244  1.00  0.00    -0.334 N 
HETATM    2  C   UNL     1      43.681 -12.076   4.718  1.00  0.00     0.321 C 
HETATM    3  N   UNL     1      44.129 -12.119   6.010  1.00  0.00    -0.307 N 
HETATM    4  O   UNL     1      43.719 -11.107   3.967  1.00  0.00    -0.247 OA
HETATM    5  H   UNL     1      42.926 -13.209   3.273  1.00  0.00     0.165 HD
HETATM    6  H   UNL     1      44.616 -12.987   6.201  1.00  0.00     0.170 HD
ENDROOT
BRANCH   1   7
HETATM    7  C   UNL     1      42.678 -14.384   5.022  1.00  0.00     0.122 C 
BRANCH   7   8
HETATM    8  C   UNL     1      41.193 -14.124   5.375  1.00  0.00     0.026 C 
HETATM    9  C   UNL     1      40.502 -15.236   6.161  1.00  0.00     0.007 C 
ENDBRANCH   7   8
BRANCH   7  10
HETATM   10  C   UNL     1      43.039 -15.711   4.360  1.00  0.00    -0.002 A 
HETATM   11  C   UNL     1      42.717 -15.922   2.999  1.00  0.00     0.077 A 
HETATM   12  C   UNL     1      43.079 -17.114   2.358  1.00  0.00     0.037 A 
HETATM   13  C   UNL     1      43.745 -18.116   3.059  1.00  0.00     0.003 A 
HETATM   14  C   UNL     1      44.070 -17.925   4.396  1.00  0.00     0.001 A 
HETATM   15  C   UNL     1      43.727 -16.732   5.038  1.00  0.00     0.012 A 
BRANCH  11  16
HETATM   16  O   UNL     1      42.108 -14.884   2.330  1.00  0.00    -0.351 OA
BRANCH  16  17
HETATM   17  C   UNL     1      41.073 -15.272   1.422  1.00  0.00     0.171 C 
HETATM   18  C   UNL     1      39.823 -15.573   2.229  1.00  0.00     0.034 C 
ENDBRANCH  16  17
ENDBRANCH  11  16
ENDBRANCH   7  10
ENDBRANCH   1   7
BRANCH   3  19
HETATM   19  C   UNL     1      44.488 -11.018   6.818  1.00  0.00     0.059 A 
HETATM   20  C   UNL     1      43.599 -10.094   7.389  1.00  0.00    -0.032 A 
HETATM   21  C   UNL     1      42.104 -10.155   7.258  1.00  0.00     0.050 C 
HETATM   22  C   UNL     1      44.136  -9.047   8.160  1.00  0.00     0.028 A 
HETATM   23  C   UNL     1      45.503  -8.991   8.384  1.00  0.00     0.117 A 
HETATM   24  N   UNL     1      46.374  -9.895   7.901  1.00  0.00    -0.271 NA
HETATM   25  C   UNL     1      45.844 -10.879   7.136  1.00  0.00     0.146 A 
ENDBRANCH   3  19
TORSDOF 6
ENDMDL
MODEL 6
REMARK VINA RESULT:      -6.6      1.524      2.265
REMARK  6 active torsions:
REMARK  status: ('A' for Active; 'I' for Inactive)
REMARK    1  A    between atoms: C_2  and  C_3 
REMARK    2  A    between atoms: C_3  and  N_4 
REMARK    3  A    between atoms: C_3  and  C_15 
REMARK       I    between atoms: N_4  and  C_5 
REMARK       I    between atoms: C_5  and  N_6 
REMARK    4  A    between atoms: N_6  and  C_7 
REMARK    5  A    between atoms: C_16  and  O_17 
REMARK    6  A    between atoms: O_17  and  C_18 
ROOT
HETATM    1  N   UNL     1      43.171 -13.344   4.001  1.00  0.00    -0.334 N 
HETATM    2  C   UNL     1      43.488 -12.147   4.571  1.00  0.00     0.321 C 
HETATM    3  N   UNL     1      43.448 -12.139   5.938  1.00  0.00    -0.307 N 
HETATM    4  O   UNL     1      43.821 -11.214   3.848  1.00  0.00    -0.247 OA
HETATM    5  H   UNL     1      43.258 -13.331   2.994  1.00  0.00     0.165 HD
HETATM    6  H   UNL     1      43.807 -13.006   6.320  1.00  0.00     0.170 HD
ENDROOT
BRANCH   1   7
HETATM    7  C   UNL     1      42.368 -14.421   4.582  1.00  0.00     0.122 C 
BRANCH   7   8
HETATM    8  C   UNL     1      40.866 -14.062   4.483  1.00  0.00     0.026 C 
HETATM    9  C   UNL     1      40.185 -13.723   5.808  1.00  0.00     0.007 C 
ENDBRANCH   7   8
BRANCH   7  10
HETATM   10  C   UNL     1      42.822 -15.776   4.047  1.00  0.00    -0.002 A 
HETATM   11  C   UNL     1      43.757 -16.540   4.783  1.00  0.00     0.077 A 
HETATM   12  C   UNL     1      44.154 -17.806   4.335  1.00  0.00     0.037 A 
HETATM   13  C   UNL     1      43.645 -18.323   3.145  1.00  0.00     0.003 A 
HETATM   14  C   UNL     1      42.725 -17.587   2.410  1.00  0.00     0.001 A 
HETATM   15  C   UNL     1      42.312 -16.330   2.859  1.00  0.00     0.012 A 
BRANCH  11  16
HETATM   16  O   UNL     1      44.192 -16.015   5.979  1.00  0.00    -0.351 OA
BRANCH  16  17
HETATM   17  C   UNL     1      43.694 -16.674   7.148  1.00  0.00     0.171 C 
HETATM   18  C   UNL     1      42.980 -15.644   8.004  1.00  0.00     0.034 C 
ENDBRANCH  16  17
ENDBRANCH  11  16
ENDBRANCH   7  10
ENDBRANCH   1   7
BRANCH   3  19
HETATM   19  C   UNL     1      43.532 -11.009   6.781  1.00  0.00     0.059 A 
HETATM   20  C   UNL     1      44.707 -10.498   7.354  1.00  0.00    -0.032 A 
HETATM   21  C   UNL     1      46.082 -11.059   7.125  1.00  0.00     0.050 C 
HETATM   22  C   UNL     1      44.603  -9.366   8.182  1.00  0.00     0.028 A 
HETATM   23  C   UNL     1      43.371  -8.757   8.361  1.00  0.00     0.117 A 
HETATM   24  N   UNL     1      42.237  -9.187   7.778  1.00  0.00    -0.271 NA
HETATM   25  C   UNL     1      42.350 -10.296   7.007  1.00  0.00     0.146 A 
ENDBRANCH   3  19
TORSDOF 6
ENDMDL
MODEL 7
REMARK VINA RESULT:      -6.3      1.953      6.742
REMARK  6 active torsions:
REMARK  status: ('A' for Active; 'I' for Inactive)
REMARK    1  A    between atoms: C_2  and  C_3 
REMARK    2  A    between atoms: C_3  and  N_4 
REMARK    3  A    between atoms: C_3  and  C_15 
REMARK       I    between atoms: N_4  and  C_5 
REMARK       I    between atoms: C_5  and  N_6 
REMARK    4  A    between atoms: N_6  and  C_7 
REMARK    5  A    between atoms: C_16  and  O_17 
REMARK    6  A    between atoms: O_17  and  C_18 
ROOT
HETATM    1  N   UNL     1      42.387 -14.190   5.764  1.00  0.00    -0.334 N 
HETATM    2  C   UNL     1      42.316 -15.526   5.500  1.00  0.00     0.321 C 
HETATM    3  N   UNL     1      43.434 -16.051   4.914  1.00  0.00    -0.307 N 
HETATM    4  O   UNL     1      41.313 -16.145   5.839  1.00  0.00    -0.247 OA
HETATM    5  H   UNL     1      41.567 -13.843   6.241  1.00  0.00     0.165 HD
HETATM    6  H   UNL     1      44.277 -15.645   5.302  1.00  0.00     0.170 HD
ENDROOT
BRANCH   1   7
HETATM    7  C   UNL     1      43.240 -13.198   5.107  1.00  0.00     0.122 C 
BRANCH   7   8
HETATM    8  C   UNL     1      42.567 -12.717   3.799  1.00  0.00     0.026 C 
HETATM    9  C   UNL     1      43.230 -13.192   2.507  1.00  0.00     0.007 C 
ENDBRANCH   7   8
BRANCH   7  10
HETATM   10  C   UNL     1      43.706 -12.145   6.108  1.00  0.00    -0.002 A 
HETATM   11  C   UNL     1      42.757 -11.281   6.704  1.00  0.00     0.077 A 
HETATM   12  C   UNL     1      43.155 -10.337   7.659  1.00  0.00     0.037 A 
HETATM   13  C   UNL     1      44.495 -10.223   8.021  1.00  0.00     0.003 A 
HETATM   14  C   UNL     1      45.440 -11.064   7.447  1.00  0.00     0.001 A 
HETATM   15  C   UNL     1      45.049 -12.020   6.506  1.00  0.00     0.012 A 
BRANCH  11  16
HETATM   16  O   UNL     1      41.438 -11.465   6.358  1.00  0.00    -0.351 OA
BRANCH  16  17
HETATM   17  C   UNL     1      40.637 -10.279   6.366  1.00  0.00     0.171 C 
HETATM   18  C   UNL     1      39.183 -10.689   6.511  1.00  0.00     0.034 C 
ENDBRANCH  16  17
ENDBRANCH  11  16
ENDBRANCH   7  10
ENDBRANCH   1   7
BRANCH   3  19
HETATM   19  C   UNL     1      43.570 -17.341   4.354  1.00  0.00     0.059 A 
HETATM   20  C   UNL     1      43.386 -17.674   3.004  1.00  0.00    -0.032 A 
HETATM   21  C   UNL     1      43.047 -16.689   1.921  1.00  0.00     0.050 C 
HETATM   22  C   UNL     1      43.552 -19.018   2.624  1.00  0.00     0.028 A 
HETATM   23  C   UNL     1      43.947 -19.954   3.567  1.00  0.00     0.117 A 
HETATM   24  N   UNL     1      44.190 -19.655   4.855  1.00  0.00    -0.271 NA
HETATM   25  C   UNL     1      43.997 -18.362   5.211  1.00  0.00     0.146 A 
ENDBRANCH   3  19
TORSDOF 6
ENDMDL
MODEL 8
REMARK VINA RESULT:      -6.3     15.229     17.477
REMARK  6 active torsions:
REMARK  status: ('A' for Active; 'I' for Inactive)
REMARK    1  A    between atoms: C_2  and  C_3 
REMARK    2  A    between atoms: C_3  and  N_4 
REMARK    3  A    between atoms: C_3  and  C_15 
REMARK       I    between atoms: N_4  and  C_5 
REMARK       I    between atoms: C_5  and  N_6 
REMARK    4  A    between atoms: N_6  and  C_7 
REMARK    5  A    between atoms: C_16  and  O_17 
REMARK    6  A    between atoms: O_17  and  C_18 
ROOT
HETATM    1  N   UNL     1      48.813 -28.883  -0.035  1.00  0.00    -0.334 N 
HETATM    2  C   UNL     1      47.772 -28.651  -0.884  1.00  0.00     0.321 C 
HETATM    3  N   UNL     1      46.986 -29.742  -1.134  1.00  0.00    -0.307 N 
HETATM    4  O   UNL     1      47.594 -27.514  -1.309  1.00  0.00    -0.247 OA
HETATM    5  H   UNL     1      49.344 -28.048   0.167  1.00  0.00     0.165 HD
HETATM    6  H   UNL     1      46.856 -30.299  -0.297  1.00  0.00     0.170 HD
ENDROOT
BRANCH   1   7
HETATM    7  C   UNL     1      49.461 -30.164   0.249  1.00  0.00     0.122 C 
BRANCH   7   8
HETATM    8  C   UNL     1      50.715 -30.322  -0.645  1.00  0.00     0.026 C 
HETATM    9  C   UNL     1      50.442 -30.721  -2.094  1.00  0.00     0.007 C 
ENDBRANCH   7   8
BRANCH   7  10
HETATM   10  C   UNL     1      49.617 -30.365   1.753  1.00  0.00    -0.002 A 
HETATM   11  C   UNL     1      48.480 -30.663   2.539  1.00  0.00     0.077 A 
HETATM   12  C   UNL     1      48.606 -30.895   3.915  1.00  0.00     0.037 A 
HETATM   13  C   UNL     1      49.854 -30.818   4.531  1.00  0.00     0.003 A 
HETATM   14  C   UNL     1      50.981 -30.528   3.773  1.00  0.00     0.001 A 
HETATM   15  C   UNL     1      50.866 -30.311   2.397  1.00  0.00     0.012 A 
BRANCH  11  16
HETATM   16  O   UNL     1      47.277 -30.783   1.882  1.00  0.00    -0.351 OA
BRANCH  16  17
HETATM   17  C   UNL     1      46.153 -30.220   2.565  1.00  0.00     0.171 C 
HETATM   18  C   UNL     1      46.188 -28.714   2.377  1.00  0.00     0.034 C 
ENDBRANCH  16  17
ENDBRANCH  11  16
ENDBRANCH   7  10
ENDBRANCH   1   7
BRANCH   3  19
HETATM   19  C   UNL     1      45.972 -29.850  -2.111  1.00  0.00     0.059 A 
HETATM   20  C   UNL     1      44.625 -29.496  -1.940  1.00  0.00    -0.032 A 
HETATM   21  C   UNL     1      44.052 -28.904  -0.685  1.00  0.00     0.050 C 
HETATM   22  C   UNL     1      43.748 -29.683  -3.023  1.00  0.00     0.028 A 
HETATM   23  C   UNL     1      44.240 -30.148  -4.233  1.00  0.00     0.117 A 
HETATM   24  N   UNL     1      45.536 -30.439  -4.447  1.00  0.00    -0.271 NA
HETATM   25  C   UNL     1      46.362 -30.281  -3.384  1.00  0.00     0.146 A 
ENDBRANCH   3  19
TORSDOF 6
ENDMDL
MODEL 9
REMARK VINA RESULT:      -6.3      2.087      6.342
REMARK  6 active torsions:
REMARK  status: ('A' for Active; 'I' for Inactive)
REMARK    1  A    between atoms: C_2  and  C_3 
REMARK    2  A    between atoms: C_3  and  N_4 
REMARK    3  A    between atoms: C_3  and  C_15 
REMARK       I    between atoms: N_4  and  C_5 
REMARK       I    between atoms: C_5  and  N_6 
REMARK    4  A    between atoms: N_6  and  C_7 
REMARK    5  A    between atoms: C_16  and  O_17 
REMARK    6  A    between atoms: O_17  and  C_18 
ROOT
HETATM    1  N   UNL     1      40.376 -14.346   4.756  1.00  0.00    -0.334 N 
HETATM    2  C   UNL     1      40.949 -15.584   4.775  1.00  0.00     0.321 C 
HETATM    3  N   UNL     1      42.122 -15.679   4.079  1.00  0.00    -0.307 N 
HETATM    4  O   UNL     1      40.416 -16.475   5.428  1.00  0.00    -0.247 OA
HETATM    5  H   UNL     1      39.538 -14.296   5.319  1.00  0.00     0.165 HD
HETATM    6  H   UNL     1      42.687 -14.846   4.197  1.00  0.00     0.170 HD
ENDROOT
BRANCH   1   7
HETATM    7  C   UNL     1      40.567 -13.292   3.759  1.00  0.00     0.122 C 
BRANCH   7   8
HETATM    8  C   UNL     1      39.436 -13.363   2.704  1.00  0.00     0.026 C 
HETATM    9  C   UNL     1      39.898 -13.539   1.259  1.00  0.00     0.007 C 
ENDBRANCH   7   8
BRANCH   7  10
HETATM   10  C   UNL     1      40.836 -11.953   4.438  1.00  0.00    -0.002 A 
HETATM   11  C   UNL     1      42.096 -11.714   5.035  1.00  0.00     0.077 A 
HETATM   12  C   UNL     1      42.381 -10.476   5.625  1.00  0.00     0.037 A 
HETATM   13  C   UNL     1      41.420  -9.468   5.648  1.00  0.00     0.003 A 
HETATM   14  C   UNL     1      40.178  -9.685   5.065  1.00  0.00     0.001 A 
HETATM   15  C   UNL     1      39.891 -10.912   4.460  1.00  0.00     0.012 A 
BRANCH  11  16
HETATM   16  O   UNL     1      43.034 -12.717   4.942  1.00  0.00    -0.351 OA
BRANCH  16  17
HETATM   17  C   UNL     1      43.896 -12.849   6.078  1.00  0.00     0.171 C 
HETATM   18  C   UNL     1      43.218 -13.763   7.083  1.00  0.00     0.034 C 
ENDBRANCH  16  17
ENDBRANCH  11  16
ENDBRANCH   7  10
ENDBRANCH   1   7
BRANCH   3  19
HETATM   19  C   UNL     1      42.824 -16.862   3.761  1.00  0.00     0.059 A 
HETATM   20  C   UNL     1      43.826 -17.458   4.542  1.00  0.00    -0.032 A 
HETATM   21  C   UNL     1      44.287 -16.942   5.877  1.00  0.00     0.050 C 
HETATM   22  C   UNL     1      44.430 -18.634   4.063  1.00  0.00     0.028 A 
HETATM   23  C   UNL     1      43.985 -19.200   2.878  1.00  0.00     0.117 A 
HETATM   24  N   UNL     1      42.987 -18.686   2.137  1.00  0.00    -0.271 NA
HETATM   25  C   UNL     1      42.436 -17.537   2.598  1.00  0.00     0.146 A 
ENDBRANCH   3  19
TORSDOF 6
ENDMDL
MODEL 10
REMARK VINA RESULT:      -6.2     15.149     16.822
REMARK  6 active torsions:
REMARK  status: ('A' for Active; 'I' for Inactive)
REMARK    1  A    between atoms: C_2  and  C_3 
REMARK    2  A    between atoms: C_3  and  N_4 
REMARK    3  A    between atoms: C_3  and  C_15 
REMARK       I    between atoms: N_4  and  C_5 
REMARK       I    between atoms: C_5  and  N_6 
REMARK    4  A    between atoms: N_6  and  C_7 
REMARK    5  A    between atoms: C_16  and  O_17 
REMARK    6  A    between atoms: O_17  and  C_18 
ROOT
HETATM    1  N   UNL     1      46.097 -28.434   0.630  1.00  0.00    -0.334 N 
HETATM    2  C   UNL     1      47.164 -28.485   1.478  1.00  0.00     0.321 C 
HETATM    3  N   UNL     1      47.759 -29.712   1.570  1.00  0.00    -0.307 N 
HETATM    4  O   UNL     1      47.527 -27.456   2.038  1.00  0.00    -0.247 OA
HETATM    5  H   UNL     1      45.710 -27.504   0.547  1.00  0.00     0.165 HD
HETATM    6  H   UNL     1      47.794 -30.171   0.668  1.00  0.00     0.170 HD
ENDROOT
BRANCH   1   7
HETATM    7  C   UNL     1      45.246 -29.545   0.203  1.00  0.00     0.122 C 
BRANCH   7   8
HETATM    8  C   UNL     1      43.951 -29.565   1.051  1.00  0.00     0.026 C 
HETATM    9  C   UNL     1      44.042 -30.334   2.368  1.00  0.00     0.007 C 
ENDBRANCH   7   8
BRANCH   7  10
HETATM   10  C   UNL     1      45.113 -29.565  -1.317  1.00  0.00    -0.002 A 
HETATM   11  C   UNL     1      46.248 -29.844  -2.113  1.00  0.00     0.077 A 
HETATM   12  C   UNL     1      46.140 -29.911  -3.508  1.00  0.00     0.037 A 
HETATM   13  C   UNL     1      44.914 -29.687  -4.131  1.00  0.00     0.003 A 
HETATM   14  C   UNL     1      43.789 -29.414  -3.365  1.00  0.00     0.001 A 
HETATM   15  C   UNL     1      43.885 -29.361  -1.971  1.00  0.00     0.012 A 
BRANCH  11  16
HETATM   16  O   UNL     1      47.426 -30.112  -1.454  1.00  0.00    -0.351 OA
BRANCH  16  17
HETATM   17  C   UNL     1      48.553 -29.344  -1.887  1.00  0.00     0.171 C 
HETATM   18  C   UNL     1      49.799 -30.196  -1.721  1.00  0.00     0.034 C 
ENDBRANCH  16  17
ENDBRANCH  11  16
ENDBRANCH   7  10
ENDBRANCH   1   7
BRANCH   3  19
HETATM   19  C   UNL     1      48.743 -30.108   2.503  1.00  0.00     0.059 A 
HETATM   20  C   UNL     1      48.514 -30.441   3.847  1.00  0.00    -0.032 A 
HETATM   21  C   UNL     1      47.162 -30.465   4.501  1.00  0.00     0.050 C 
HETATM   22  C   UNL     1      49.619 -30.803   4.638  1.00  0.00     0.028 A 
HETATM   23  C   UNL     1      50.879 -30.879   4.063  1.00  0.00     0.117 A 
HETATM   24  N   UNL     1      51.121 -30.625   2.765  1.00  0.00    -0.271 NA
HETATM   25  C   UNL     1      50.051 -30.249   2.024  1.00  0.00     0.146 A 
ENDBRANCH   3  19
TORSDOF 6
ENDMDL
