MODEL 1
REMARK VINA RESULT:      -8.4      0.000      0.000
REMARK  8 active torsions:
REMARK  status: ('A' for Active; 'I' for Inactive)
REMARK    1  A    between atoms: O_2  and  C_3 
REMARK    2  A    between atoms: C_4  and  O_5 
REMARK    3  A    between atoms: C_8  and  C_9 
REMARK    4  A    between atoms: C_14  and  C_15 
REMARK    5  A    between atoms: N_16  and  N_17 
REMARK       I    between atoms: N_17  and  C_18 
REMARK    6  A    between atoms: C_18  and  C_19 
REMARK    7  A    between atoms: C_19  and  C_20 
REMARK    8  A    between atoms: C_20  and  C_21 
ROOT
HETATM    1  C   UNL     1      44.703  -9.947   8.835  1.00  0.00     0.100 A 
HETATM    2  N   UNL     1      45.807  -9.183   8.935  1.00  0.00    -0.174 NA
HETATM    3  N   UNL     1      46.565  -9.539   7.893  1.00  0.00    -0.288 N 
HETATM    4  H   UNL     1      47.465  -9.086   7.777  1.00  0.00     0.188 HD
HETATM    5  C   UNL     1      45.998 -10.489   7.108  1.00  0.00     0.124 A 
HETATM    6  C   UNL     1      44.769 -10.777   7.669  1.00  0.00     0.031 A 
ENDROOT
BRANCH   6   7
HETATM    7  C   UNL     1      43.798 -11.713   7.144  1.00  0.00     0.154 C 
HETATM    8  N   UNL     1      43.870 -12.952   7.520  1.00  0.00    -0.184 NA
BRANCH   8   9
HETATM    9  N   UNL     1      42.955 -13.851   7.031  1.00  0.00    -0.247 N 
HETATM   10  C   UNL     1      42.714 -15.123   7.531  1.00  0.00     0.237 C 
HETATM   11  O   UNL     1      43.303 -15.651   8.471  1.00  0.00    -0.272 OA
HETATM   12  H   UNL     1      42.237 -13.420   6.456  1.00  0.00     0.192 HD
BRANCH  10  13
HETATM   13  C   UNL     1      41.604 -15.848   6.793  1.00  0.00     0.105 C 
BRANCH  13  14
HETATM   14  C   UNL     1      42.134 -16.913   5.833  1.00  0.00     0.014 C 
BRANCH  14  15
HETATM   15  C   UNL     1      43.396 -16.520   5.031  1.00  0.00    -0.014 C 
HETATM   16  C   UNL     1      44.486 -17.606   5.013  1.00  0.00     0.004 C 
HETATM   17  C   UNL     1      44.096 -18.830   4.185  1.00  0.00     0.000 C 
HETATM   18  C   UNL     1      43.707 -18.443   2.762  1.00  0.00     0.000 C 
HETATM   19  C   UNL     1      42.633 -17.359   2.734  1.00  0.00     0.000 C 
HETATM   20  C   UNL     1      43.025 -16.149   3.581  1.00  0.00     0.004 C 
ENDBRANCH  14  15
ENDBRANCH  13  14
ENDBRANCH  10  13
ENDBRANCH   8   9
ENDBRANCH   6   7
BRANCH   1  21
HETATM   21  C   UNL     1      43.657  -9.848   9.860  1.00  0.00    -0.002 A 
HETATM   22  C   UNL     1      42.412  -9.289   9.533  1.00  0.00     0.053 A 
HETATM   23  C   UNL     1      41.404  -9.153  10.498  1.00  0.00     0.102 A 
HETATM   24  C   UNL     1      41.636  -9.599  11.813  1.00  0.00     0.101 A 
HETATM   25  C   UNL     1      42.879 -10.144  12.144  1.00  0.00     0.040 A 
HETATM   26  C   UNL     1      43.885 -10.258  11.178  1.00  0.00     0.017 A 
BRANCH  23  27
HETATM   27  O   UNL     1      40.166  -8.612  10.250  1.00  0.00    -0.353 OA
HETATM   28  C   UNL     1      39.316  -9.314   9.354  1.00  0.00     0.210 C 
ENDBRANCH  23  27
BRANCH  24  29
HETATM   29  O   UNL     1      40.597  -9.439  12.697  1.00  0.00    -0.353 OA
HETATM   30  C   UNL     1      39.870 -10.598  13.078  1.00  0.00     0.210 C 
ENDBRANCH  24  29
ENDBRANCH   1  21
TORSDOF 8
ENDMDL
MODEL 2
REMARK VINA RESULT:      -8.4      3.113      9.703
REMARK  8 active torsions:
REMARK  status: ('A' for Active; 'I' for Inactive)
REMARK    1  A    between atoms: O_2  and  C_3 
REMARK    2  A    between atoms: C_4  and  O_5 
REMARK    3  A    between atoms: C_8  and  C_9 
REMARK    4  A    between atoms: C_14  and  C_15 
REMARK    5  A    between atoms: N_16  and  N_17 
REMARK       I    between atoms: N_17  and  C_18 
REMARK    6  A    between atoms: C_18  and  C_19 
REMARK    7  A    between atoms: C_19  and  C_20 
REMARK    8  A    between atoms: C_20  and  C_21 
ROOT
HETATM    1  C   UNL     1      40.997 -15.371   3.288  1.00  0.00     0.100 A 
HETATM    2  N   UNL     1      39.889 -15.734   2.616  1.00  0.00    -0.174 NA
HETATM    3  N   UNL     1      39.219 -14.594   2.419  1.00  0.00    -0.288 N 
HETATM    4  H   UNL     1      38.331 -14.637   1.930  1.00  0.00     0.188 HD
HETATM    5  C   UNL     1      39.849 -13.500   2.918  1.00  0.00     0.124 A 
HETATM    6  C   UNL     1      41.027 -13.951   3.481  1.00  0.00     0.031 A 
ENDROOT
BRANCH   6   7
HETATM    7  C   UNL     1      42.038 -13.122   4.103  1.00  0.00     0.154 C 
HETATM    8  N   UNL     1      41.921 -12.851   5.366  1.00  0.00    -0.184 NA
BRANCH   8   9
HETATM    9  N   UNL     1      42.873 -12.068   5.970  1.00  0.00    -0.247 N 
HETATM   10  C   UNL     1      44.037 -12.522   6.576  1.00  0.00     0.237 C 
HETATM   11  O   UNL     1      44.379 -13.696   6.690  1.00  0.00    -0.272 OA
HETATM   12  H   UNL     1      42.831 -11.094   5.686  1.00  0.00     0.192 HD
BRANCH  10  13
HETATM   13  C   UNL     1      44.901 -11.395   7.111  1.00  0.00     0.105 C 
BRANCH  13  14
HETATM   14  C   UNL     1      44.328 -10.765   8.380  1.00  0.00     0.014 C 
BRANCH  14  15
HETATM   15  C   UNL     1      45.177  -9.634   9.005  1.00  0.00    -0.014 C 
HETATM   16  C   UNL     1      44.679  -8.219   8.660  1.00  0.00     0.004 C 
HETATM   17  C   UNL     1      43.354  -7.871   9.337  1.00  0.00     0.000 C 
HETATM   18  C   UNL     1      43.431  -8.055  10.849  1.00  0.00     0.000 C 
HETATM   19  C   UNL     1      43.931  -9.445  11.235  1.00  0.00     0.000 C 
HETATM   20  C   UNL     1      45.246  -9.789  10.537  1.00  0.00     0.004 C 
ENDBRANCH  14  15
ENDBRANCH  13  14
ENDBRANCH  10  13
ENDBRANCH   8   9
ENDBRANCH   6   7
BRANCH   1  21
HETATM   21  C   UNL     1      41.956 -16.396   3.715  1.00  0.00    -0.002 A 
HETATM   22  C   UNL     1      42.517 -17.265   2.767  1.00  0.00     0.053 A 
HETATM   23  C   UNL     1      43.411 -18.275   3.148  1.00  0.00     0.102 A 
HETATM   24  C   UNL     1      43.768 -18.412   4.503  1.00  0.00     0.101 A 
HETATM   25  C   UNL     1      43.201 -17.556   5.452  1.00  0.00     0.040 A 
HETATM   26  C   UNL     1      42.295 -16.563   5.063  1.00  0.00     0.017 A 
BRANCH  23  27
HETATM   27  O   UNL     1      43.992 -19.162   2.275  1.00  0.00    -0.353 OA
HETATM   28  C   UNL     1      43.200 -20.255   1.834  1.00  0.00     0.210 C 
ENDBRANCH  23  27
BRANCH  24  29
HETATM   29  O   UNL     1      44.655 -19.418   4.795  1.00  0.00    -0.353 OA
HETATM   30  C   UNL     1      44.147 -20.585   5.423  1.00  0.00     0.210 C 
ENDBRANCH  24  29
ENDBRANCH   1  21
TORSDOF 8
ENDMDL
MODEL 3
REMARK VINA RESULT:      -7.9      1.550      2.162
REMARK  8 active torsions:
REMARK  status: ('A' for Active; 'I' for Inactive)
REMARK    1  A    between atoms: O_2  and  C_3 
REMARK    2  A    between atoms: C_4  and  O_5 
REMARK    3  A    between atoms: C_8  and  C_9 
REMARK    4  A    between atoms: C_14  and  C_15 
REMARK    5  A    between atoms: N_16  and  N_17 
REMARK       I    between atoms: N_17  and  C_18 
REMARK    6  A    between atoms: C_18  and  C_19 
REMARK    7  A    between atoms: C_19  and  C_20 
REMARK    8  A    between atoms: C_20  and  C_21 
ROOT
HETATM    1  C   UNL     1      45.021  -9.179   8.454  1.00  0.00     0.100 A 
HETATM    2  N   UNL     1      46.154  -8.499   8.200  1.00  0.00    -0.174 NA
HETATM    3  N   UNL     1      46.931  -9.364   7.538  1.00  0.00    -0.288 N 
HETATM    4  H   UNL     1      47.854  -9.058   7.251  1.00  0.00     0.188 HD
HETATM    5  C   UNL     1      46.347 -10.573   7.336  1.00  0.00     0.124 A 
HETATM    6  C   UNL     1      45.089 -10.498   7.899  1.00  0.00     0.031 A 
ENDROOT
BRANCH   6   7
HETATM    7  C   UNL     1      44.095 -11.551   7.889  1.00  0.00     0.154 C 
HETATM    8  N   UNL     1      44.327 -12.612   7.182  1.00  0.00    -0.184 NA
BRANCH   8   9
HETATM    9  N   UNL     1      43.394 -13.619   7.165  1.00  0.00    -0.247 N 
HETATM   10  C   UNL     1      42.421 -13.813   6.195  1.00  0.00     0.237 C 
HETATM   11  O   UNL     1      42.227 -13.096   5.216  1.00  0.00    -0.272 OA
HETATM   12  H   UNL     1      43.644 -14.407   7.755  1.00  0.00     0.192 HD
BRANCH  10  13
HETATM   13  C   UNL     1      41.574 -15.046   6.446  1.00  0.00     0.105 C 
BRANCH  13  14
HETATM   14  C   UNL     1      41.944 -16.211   5.529  1.00  0.00     0.014 C 
BRANCH  14  15
HETATM   15  C   UNL     1      43.308 -16.087   4.811  1.00  0.00    -0.014 C 
HETATM   16  C   UNL     1      44.326 -17.169   5.216  1.00  0.00     0.004 C 
HETATM   17  C   UNL     1      43.955 -18.559   4.703  1.00  0.00     0.000 C 
HETATM   18  C   UNL     1      43.749 -18.562   3.191  1.00  0.00     0.000 C 
HETATM   19  C   UNL     1      42.752 -17.496   2.745  1.00  0.00     0.000 C 
HETATM   20  C   UNL     1      43.122 -16.113   3.281  1.00  0.00     0.004 C 
ENDBRANCH  14  15
ENDBRANCH  13  14
ENDBRANCH  10  13
ENDBRANCH   8   9
ENDBRANCH   6   7
BRANCH   1  21
HETATM   21  C   UNL     1      43.946  -8.537   9.219  1.00  0.00    -0.002 A 
HETATM   22  C   UNL     1      43.784  -8.835  10.581  1.00  0.00     0.053 A 
HETATM   23  C   UNL     1      42.749  -8.261  11.330  1.00  0.00     0.102 A 
HETATM   24  C   UNL     1      41.863  -7.357  10.714  1.00  0.00     0.101 A 
HETATM   25  C   UNL     1      42.013  -7.068   9.355  1.00  0.00     0.040 A 
HETATM   26  C   UNL     1      43.040  -7.661   8.611  1.00  0.00     0.017 A 
BRANCH  23  27
HETATM   27  O   UNL     1      42.529  -8.512  12.663  1.00  0.00    -0.353 OA
HETATM   28  C   UNL     1      42.007  -9.787  13.009  1.00  0.00     0.210 C 
ENDBRANCH  23  27
BRANCH  24  29
HETATM   29  O   UNL     1      40.880  -6.831  11.516  1.00  0.00    -0.353 OA
HETATM   30  C   UNL     1      39.540  -7.224  11.262  1.00  0.00     0.210 C 
ENDBRANCH  24  29
ENDBRANCH   1  21
TORSDOF 8
ENDMDL
MODEL 4
REMARK VINA RESULT:      -7.6      1.684      2.139
REMARK  8 active torsions:
REMARK  status: ('A' for Active; 'I' for Inactive)
REMARK    1  A    between atoms: O_2  and  C_3 
REMARK    2  A    between atoms: C_4  and  O_5 
REMARK    3  A    between atoms: C_8  and  C_9 
REMARK    4  A    between atoms: C_14  and  C_15 
REMARK    5  A    between atoms: N_16  and  N_17 
REMARK       I    between atoms: N_17  and  C_18 
REMARK    6  A    between atoms: C_18  and  C_19 
REMARK    7  A    between atoms: C_19  and  C_20 
REMARK    8  A    between atoms: C_20  and  C_21 
ROOT
HETATM    1  C   UNL     1      44.884 -10.198   8.568  1.00  0.00     0.100 A 
HETATM    2  N   UNL     1      46.005  -9.452   8.562  1.00  0.00    -0.174 NA
HETATM    3  N   UNL     1      46.732  -9.935   7.549  1.00  0.00    -0.288 N 
HETATM    4  H   UNL     1      47.638  -9.517   7.367  1.00  0.00     0.188 HD
HETATM    5  C   UNL     1      46.128 -10.952   6.884  1.00  0.00     0.124 A 
HETATM    6  C   UNL     1      44.907 -11.151   7.498  1.00  0.00     0.031 A 
ENDROOT
BRANCH   6   7
HETATM    7  C   UNL     1      43.907 -12.117   7.097  1.00  0.00     0.154 C 
HETATM    8  N   UNL     1      43.285 -11.931   5.974  1.00  0.00    -0.184 NA
BRANCH   8   9
HETATM    9  N   UNL     1      42.335 -12.840   5.581  1.00  0.00    -0.247 N 
HETATM   10  C   UNL     1      40.977 -12.591   5.438  1.00  0.00     0.237 C 
HETATM   11  O   UNL     1      40.412 -11.525   5.669  1.00  0.00    -0.272 OA
HETATM   12  H   UNL     1      42.725 -13.647   5.103  1.00  0.00     0.192 HD
BRANCH  10  13
HETATM   13  C   UNL     1      40.204 -13.799   4.943  1.00  0.00     0.105 C 
BRANCH  13  14
HETATM   14  C   UNL     1      40.843 -14.444   3.714  1.00  0.00     0.014 C 
BRANCH  14  15
HETATM   15  C   UNL     1      40.794 -15.989   3.669  1.00  0.00    -0.014 C 
HETATM   16  C   UNL     1      41.510 -16.599   2.451  1.00  0.00     0.004 C 
HETATM   17  C   UNL     1      43.029 -16.449   2.514  1.00  0.00     0.000 C 
HETATM   18  C   UNL     1      43.596 -17.025   3.808  1.00  0.00     0.000 C 
HETATM   19  C   UNL     1      42.906 -16.452   5.043  1.00  0.00     0.000 C 
HETATM   20  C   UNL     1      41.386 -16.589   4.959  1.00  0.00     0.004 C 
ENDBRANCH  14  15
ENDBRANCH  13  14
ENDBRANCH  10  13
ENDBRANCH   8   9
ENDBRANCH   6   7
BRANCH   1  21
HETATM   21  C   UNL     1      43.864  -9.966   9.597  1.00  0.00    -0.002 A 
HETATM   22  C   UNL     1      42.619  -9.427   9.236  1.00  0.00     0.053 A 
HETATM   23  C   UNL     1      41.637  -9.165  10.200  1.00  0.00     0.102 A 
HETATM   24  C   UNL     1      41.892  -9.463  11.552  1.00  0.00     0.101 A 
HETATM   25  C   UNL     1      43.134  -9.989  11.916  1.00  0.00     0.040 A 
HETATM   26  C   UNL     1      44.116 -10.229  10.948  1.00  0.00     0.017 A 
BRANCH  23  27
HETATM   27  O   UNL     1      40.401  -8.634   9.919  1.00  0.00    -0.353 OA
HETATM   28  C   UNL     1      39.501  -9.440   9.172  1.00  0.00     0.210 C 
ENDBRANCH  23  27
BRANCH  24  29
HETATM   29  O   UNL     1      40.876  -9.187  12.434  1.00  0.00    -0.353 OA
HETATM   30  C   UNL     1      40.221 -10.285  13.051  1.00  0.00     0.210 C 
ENDBRANCH  24  29
ENDBRANCH   1  21
TORSDOF 8
ENDMDL
MODEL 5
REMARK VINA RESULT:      -7.5      4.742      9.029
REMARK  8 active torsions:
REMARK  status: ('A' for Active; 'I' for Inactive)
REMARK    1  A    between atoms: O_2  and  C_3 
REMARK    2  A    between atoms: C_4  and  O_5 
REMARK    3  A    between atoms: C_8  and  C_9 
REMARK    4  A    between atoms: C_14  and  C_15 
REMARK    5  A    between atoms: N_16  and  N_17 
REMARK       I    between atoms: N_17  and  C_18 
REMARK    6  A    between atoms: C_18  and  C_19 
REMARK    7  A    between atoms: C_19  and  C_20 
REMARK    8  A    between atoms: C_20  and  C_21 
ROOT
HETATM    1  C   UNL     1      43.000 -14.847   5.356  1.00  0.00     0.100 A 
HETATM    2  N   UNL     1      43.683 -14.659   6.500  1.00  0.00    -0.174 NA
HETATM    3  N   UNL     1      43.246 -13.486   6.971  1.00  0.00    -0.288 N 
HETATM    4  H   UNL     1      43.642 -13.140   7.838  1.00  0.00     0.188 HD
HETATM    5  C   UNL     1      42.297 -12.909   6.193  1.00  0.00     0.124 A 
HETATM    6  C   UNL     1      42.085 -13.768   5.132  1.00  0.00     0.031 A 
ENDROOT
BRANCH   6   7
HETATM    7  C   UNL     1      41.126 -13.573   4.065  1.00  0.00     0.154 C 
HETATM    8  N   UNL     1      40.130 -12.768   4.270  1.00  0.00    -0.184 NA
BRANCH   8   9
HETATM    9  N   UNL     1      39.215 -12.573   3.266  1.00  0.00    -0.247 N 
HETATM   10  C   UNL     1      39.200 -11.510   2.372  1.00  0.00     0.237 C 
HETATM   11  O   UNL     1      39.988 -10.568   2.360  1.00  0.00    -0.272 OA
HETATM   12  H   UNL     1      38.709 -13.416   3.014  1.00  0.00     0.192 HD
BRANCH  10  13
HETATM   13  C   UNL     1      38.080 -11.612   1.353  1.00  0.00     0.105 C 
BRANCH  13  14
HETATM   14  C   UNL     1      38.581 -12.010  -0.034  1.00  0.00     0.014 C 
BRANCH  14  15
HETATM   15  C   UNL     1      39.900 -12.819  -0.061  1.00  0.00    -0.014 C 
HETATM   16  C   UNL     1      39.710 -14.307  -0.405  1.00  0.00     0.004 C 
HETATM   17  C   UNL     1      39.306 -14.537  -1.860  1.00  0.00     0.000 C 
HETATM   18  C   UNL     1      40.293 -13.888  -2.826  1.00  0.00     0.000 C 
HETATM   19  C   UNL     1      40.518 -12.412  -2.513  1.00  0.00     0.000 C 
HETATM   20  C   UNL     1      40.902 -12.192  -1.051  1.00  0.00     0.004 C 
ENDBRANCH  14  15
ENDBRANCH  13  14
ENDBRANCH  10  13
ENDBRANCH   8   9
ENDBRANCH   6   7
BRANCH   1  21
HETATM   21  C   UNL     1      43.267 -16.036   4.538  1.00  0.00    -0.002 A 
HETATM   22  C   UNL     1      43.727 -17.213   5.149  1.00  0.00     0.053 A 
HETATM   23  C   UNL     1      44.020 -18.355   4.391  1.00  0.00     0.102 A 
HETATM   24  C   UNL     1      43.836 -18.330   2.996  1.00  0.00     0.101 A 
HETATM   25  C   UNL     1      43.390 -17.155   2.383  1.00  0.00     0.040 A 
HETATM   26  C   UNL     1      43.118 -16.014   3.147  1.00  0.00     0.017 A 
BRANCH  23  27
HETATM   27  O   UNL     1      44.477 -19.537   4.921  1.00  0.00    -0.353 OA
HETATM   28  C   UNL     1      43.654 -20.181   5.884  1.00  0.00     0.210 C 
ENDBRANCH  23  27
BRANCH  24  29
HETATM   29  O   UNL     1      44.136 -19.490   2.325  1.00  0.00    -0.353 OA
HETATM   30  C   UNL     1      43.055 -20.302   1.894  1.00  0.00     0.210 C 
ENDBRANCH  24  29
ENDBRANCH   1  21
TORSDOF 8
ENDMDL
MODEL 6
REMARK VINA RESULT:      -7.4      3.756      9.545
REMARK  8 active torsions:
REMARK  status: ('A' for Active; 'I' for Inactive)
REMARK    1  A    between atoms: O_2  and  C_3 
REMARK    2  A    between atoms: C_4  and  O_5 
REMARK    3  A    between atoms: C_8  and  C_9 
REMARK    4  A    between atoms: C_14  and  C_15 
REMARK    5  A    between atoms: N_16  and  N_17 
REMARK       I    between atoms: N_17  and  C_18 
REMARK    6  A    between atoms: C_18  and  C_19 
REMARK    7  A    between atoms: C_19  and  C_20 
REMARK    8  A    between atoms: C_20  and  C_21 
ROOT
HETATM    1  C   UNL     1      42.847 -16.343   3.630  1.00  0.00     0.100 A 
HETATM    2  N   UNL     1      43.329 -17.580   3.408  1.00  0.00    -0.174 NA
HETATM    3  N   UNL     1      44.116 -17.834   4.459  1.00  0.00    -0.288 N 
HETATM    4  H   UNL     1      44.598 -18.725   4.493  1.00  0.00     0.188 HD
HETATM    5  C   UNL     1      44.156 -16.824   5.364  1.00  0.00     0.124 A 
HETATM    6  C   UNL     1      43.326 -15.831   4.879  1.00  0.00     0.031 A 
ENDROOT
BRANCH   6   7
HETATM    7  C   UNL     1      43.035 -14.576   5.538  1.00  0.00     0.154 C 
HETATM    8  N   UNL     1      44.002 -13.956   6.139  1.00  0.00    -0.184 NA
BRANCH   8   9
HETATM    9  N   UNL     1      43.741 -12.763   6.766  1.00  0.00    -0.247 N 
HETATM   10  C   UNL     1      44.010 -11.499   6.259  1.00  0.00     0.237 C 
HETATM   11  O   UNL     1      44.549 -11.255   5.183  1.00  0.00    -0.272 OA
HETATM   12  H   UNL     1      43.055 -12.843   7.510  1.00  0.00     0.192 HD
BRANCH  10  13
HETATM   13  C   UNL     1      43.558 -10.384   7.183  1.00  0.00     0.105 C 
BRANCH  13  14
HETATM   14  C   UNL     1      44.032 -10.583   8.622  1.00  0.00     0.014 C 
BRANCH  14  15
HETATM   15  C   UNL     1      44.876  -9.429   9.212  1.00  0.00    -0.014 C 
HETATM   16  C   UNL     1      44.344  -8.028   8.863  1.00  0.00     0.004 C 
HETATM   17  C   UNL     1      43.030  -7.696   9.569  1.00  0.00     0.000 C 
HETATM   18  C   UNL     1      43.149  -7.859  11.081  1.00  0.00     0.000 C 
HETATM   19  C   UNL     1      43.683  -9.235  11.470  1.00  0.00     0.000 C 
HETATM   20  C   UNL     1      44.986  -9.565  10.743  1.00  0.00     0.004 C 
ENDBRANCH  14  15
ENDBRANCH  13  14
ENDBRANCH  10  13
ENDBRANCH   8   9
ENDBRANCH   6   7
BRANCH   1  21
HETATM   21  C   UNL     1      41.967 -15.719   2.635  1.00  0.00    -0.002 A 
HETATM   22  C   UNL     1      42.257 -14.432   2.157  1.00  0.00     0.053 A 
HETATM   23  C   UNL     1      41.419 -13.797   1.230  1.00  0.00     0.102 A 
HETATM   24  C   UNL     1      40.275 -14.465   0.756  1.00  0.00     0.101 A 
HETATM   25  C   UNL     1      39.976 -15.742   1.240  1.00  0.00     0.040 A 
HETATM   26  C   UNL     1      40.809 -16.360   2.179  1.00  0.00     0.017 A 
BRANCH  23  27
HETATM   27  O   UNL     1      41.640 -12.539   0.725  1.00  0.00    -0.353 OA
HETATM   28  C   UNL     1      41.654 -11.460   1.648  1.00  0.00     0.210 C 
ENDBRANCH  23  27
BRANCH  24  29
HETATM   29  O   UNL     1      39.509 -13.781  -0.156  1.00  0.00    -0.353 OA
HETATM   30  C   UNL     1      39.372 -14.340  -1.454  1.00  0.00     0.210 C 
ENDBRANCH  24  29
ENDBRANCH   1  21
TORSDOF 8
ENDMDL
MODEL 7
REMARK VINA RESULT:      -7.4      1.423      2.496
REMARK  8 active torsions:
REMARK  status: ('A' for Active; 'I' for Inactive)
REMARK    1  A    between atoms: O_2  and  C_3 
REMARK    2  A    between atoms: C_4  and  O_5 
REMARK    3  A    between atoms: C_8  and  C_9 
REMARK    4  A    between atoms: C_14  and  C_15 
REMARK    5  A    between atoms: N_16  and  N_17 
REMARK       I    between atoms: N_17  and  C_18 
REMARK    6  A    between atoms: C_18  and  C_19 
REMARK    7  A    between atoms: C_19  and  C_20 
REMARK    8  A    between atoms: C_20  and  C_21 
ROOT
HETATM    1  C   UNL     1      44.441 -10.242   8.143  1.00  0.00     0.100 A 
HETATM    2  N   UNL     1      45.611  -9.600   8.320  1.00  0.00    -0.174 NA
HETATM    3  N   UNL     1      46.463 -10.204   7.486  1.00  0.00    -0.288 N 
HETATM    4  H   UNL     1      47.424  -9.879   7.463  1.00  0.00     0.188 HD
HETATM    5  C   UNL     1      45.897 -11.201   6.760  1.00  0.00     0.124 A 
HETATM    6  C   UNL     1      44.570 -11.255   7.138  1.00  0.00     0.031 A 
ENDROOT
BRANCH   6   7
HETATM    7  C   UNL     1      43.571 -12.151   6.594  1.00  0.00     0.154 C 
HETATM    8  N   UNL     1      43.810 -13.425   6.614  1.00  0.00    -0.184 NA
BRANCH   8   9
HETATM    9  N   UNL     1      42.871 -14.286   6.104  1.00  0.00    -0.247 N 
HETATM   10  C   UNL     1      42.341 -15.393   6.754  1.00  0.00     0.237 C 
HETATM   11  O   UNL     1      42.652 -15.787   7.874  1.00  0.00    -0.272 OA
HETATM   12  H   UNL     1      42.352 -13.897   5.323  1.00  0.00     0.192 HD
BRANCH  10  13
HETATM   13  C   UNL     1      41.289 -16.113   5.931  1.00  0.00     0.105 C 
BRANCH  13  14
HETATM   14  C   UNL     1      41.019 -15.428   4.592  1.00  0.00     0.014 C 
BRANCH  14  15
HETATM   15  C   UNL     1      40.980 -16.362   3.360  1.00  0.00    -0.014 C 
HETATM   16  C   UNL     1      40.737 -15.628   2.029  1.00  0.00     0.004 C 
HETATM   17  C   UNL     1      41.926 -14.774   1.594  1.00  0.00     0.000 C 
HETATM   18  C   UNL     1      43.211 -15.594   1.523  1.00  0.00     0.000 C 
HETATM   19  C   UNL     1      43.484 -16.347   2.822  1.00  0.00     0.000 C 
HETATM   20  C   UNL     1      42.281 -17.182   3.258  1.00  0.00     0.004 C 
ENDBRANCH  14  15
ENDBRANCH  13  14
ENDBRANCH  10  13
ENDBRANCH   8   9
ENDBRANCH   6   7
BRANCH   1  21
HETATM   21  C   UNL     1      43.275  -9.860   8.948  1.00  0.00    -0.002 A 
HETATM   22  C   UNL     1      43.281 -10.081  10.334  1.00  0.00     0.053 A 
HETATM   23  C   UNL     1      42.171  -9.756  11.124  1.00  0.00     0.102 A 
HETATM   24  C   UNL     1      41.034  -9.182  10.524  1.00  0.00     0.101 A 
HETATM   25  C   UNL     1      41.020  -8.972   9.142  1.00  0.00     0.040 A 
HETATM   26  C   UNL     1      42.128  -9.318   8.359  1.00  0.00     0.017 A 
BRANCH  23  27
HETATM   27  O   UNL     1      42.106  -9.950  12.482  1.00  0.00    -0.353 OA
HETATM   28  C   UNL     1      42.666  -8.941  13.311  1.00  0.00     0.210 C 
ENDBRANCH  23  27
BRANCH  24  29
HETATM   29  O   UNL     1      39.991  -8.884  11.366  1.00  0.00    -0.353 OA
HETATM   30  C   UNL     1      39.555  -7.534  11.423  1.00  0.00     0.210 C 
ENDBRANCH  24  29
ENDBRANCH   1  21
TORSDOF 8
ENDMDL
MODEL 8
REMARK VINA RESULT:      -7.3      2.507      8.951
REMARK  8 active torsions:
REMARK  status: ('A' for Active; 'I' for Inactive)
REMARK    1  A    between atoms: O_2  and  C_3 
REMARK    2  A    between atoms: C_4  and  O_5 
REMARK    3  A    between atoms: C_8  and  C_9 
REMARK    4  A    between atoms: C_14  and  C_15 
REMARK    5  A    between atoms: N_16  and  N_17 
REMARK       I    between atoms: N_17  and  C_18 
REMARK    6  A    between atoms: C_18  and  C_19 
REMARK    7  A    between atoms: C_19  and  C_20 
REMARK    8  A    between atoms: C_20  and  C_21 
ROOT
HETATM    1  C   UNL     1      42.586 -12.414   4.088  1.00  0.00     0.100 A 
HETATM    2  N   UNL     1      42.108 -11.942   2.922  1.00  0.00    -0.174 NA
HETATM    3  N   UNL     1      42.019 -10.619   3.099  1.00  0.00    -0.288 N 
HETATM    4  H   UNL     1      41.665 -10.055   2.334  1.00  0.00     0.188 HD
HETATM    5  C   UNL     1      42.434 -10.206   4.323  1.00  0.00     0.124 A 
HETATM    6  C   UNL     1      42.834 -11.339   5.003  1.00  0.00     0.031 A 
ENDROOT
BRANCH   6   7
HETATM    7  C   UNL     1      43.386 -11.372   6.341  1.00  0.00     0.154 C 
HETATM    8  N   UNL     1      43.591 -10.246   6.951  1.00  0.00    -0.184 NA
BRANCH   8   9
HETATM    9  N   UNL     1      44.111 -10.262   8.221  1.00  0.00    -0.247 N 
HETATM   10  C   UNL     1      44.972  -9.316   8.762  1.00  0.00     0.237 C 
HETATM   11  O   UNL     1      45.422  -8.335   8.177  1.00  0.00    -0.272 OA
HETATM   12  H   UNL     1      43.592 -10.856   8.861  1.00  0.00     0.192 HD
BRANCH  10  13
HETATM   13  C   UNL     1      45.328  -9.601  10.209  1.00  0.00     0.105 C 
BRANCH  13  14
HETATM   14  C   UNL     1      44.096  -9.805  11.089  1.00  0.00     0.014 C 
BRANCH  14  15
HETATM   15  C   UNL     1      43.260  -8.534  11.371  1.00  0.00    -0.014 C 
HETATM   16  C   UNL     1      41.810  -8.617  10.861  1.00  0.00     0.004 C 
HETATM   17  C   UNL     1      40.953  -9.601  11.656  1.00  0.00     0.000 C 
HETATM   18  C   UNL     1      40.976  -9.284  13.149  1.00  0.00     0.000 C 
HETATM   19  C   UNL     1      42.397  -9.183  13.694  1.00  0.00     0.000 C 
HETATM   20  C   UNL     1      43.250  -8.212  12.878  1.00  0.00     0.004 C 
ENDBRANCH  14  15
ENDBRANCH  13  14
ENDBRANCH  10  13
ENDBRANCH   8   9
ENDBRANCH   6   7
BRANCH   1  21
HETATM   21  C   UNL     1      42.769 -13.859   4.265  1.00  0.00    -0.002 A 
HETATM   22  C   UNL     1      42.689 -14.420   5.549  1.00  0.00     0.053 A 
HETATM   23  C   UNL     1      42.890 -15.792   5.754  1.00  0.00     0.102 A 
HETATM   24  C   UNL     1      43.161 -16.627   4.653  1.00  0.00     0.101 A 
HETATM   25  C   UNL     1      43.253 -16.069   3.375  1.00  0.00     0.040 A 
HETATM   26  C   UNL     1      43.070 -14.695   3.184  1.00  0.00     0.017 A 
BRANCH  23  27
HETATM   27  O   UNL     1      42.832 -16.406   6.981  1.00  0.00    -0.353 OA
HETATM   28  C   UNL     1      43.087 -15.603   8.124  1.00  0.00     0.210 C 
ENDBRANCH  23  27
BRANCH  24  29
HETATM   29  O   UNL     1      43.336 -17.959   4.934  1.00  0.00    -0.353 OA
HETATM   30  C   UNL     1      44.438 -18.621   4.332  1.00  0.00     0.210 C 
ENDBRANCH  24  29
ENDBRANCH   1  21
TORSDOF 8
ENDMDL
MODEL 9
REMARK VINA RESULT:      -7.2      2.389      8.929
REMARK  8 active torsions:
REMARK  status: ('A' for Active; 'I' for Inactive)
REMARK    1  A    between atoms: O_2  and  C_3 
REMARK    2  A    between atoms: C_4  and  O_5 
REMARK    3  A    between atoms: C_8  and  C_9 
REMARK    4  A    between atoms: C_14  and  C_15 
REMARK    5  A    between atoms: N_16  and  N_17 
REMARK       I    between atoms: N_17  and  C_18 
REMARK    6  A    between atoms: C_18  and  C_19 
REMARK    7  A    between atoms: C_19  and  C_20 
REMARK    8  A    between atoms: C_20  and  C_21 
ROOT
HETATM    1  C   UNL     1      44.932 -11.492   7.032  1.00  0.00     0.100 A 
HETATM    2  N   UNL     1      46.072 -11.184   6.385  1.00  0.00    -0.174 NA
HETATM    3  N   UNL     1      46.642 -10.231   7.131  1.00  0.00    -0.288 N 
HETATM    4  H   UNL     1      47.523  -9.839   6.817  1.00  0.00     0.188 HD
HETATM    5  C   UNL     1      45.932  -9.916   8.244  1.00  0.00     0.124 A 
HETATM    6  C   UNL     1      44.814 -10.727   8.238  1.00  0.00     0.031 A 
ENDROOT
BRANCH   6   7
HETATM    7  C   UNL     1      43.788 -10.760   9.258  1.00  0.00     0.154 C 
HETATM    8  N   UNL     1      42.916  -9.800   9.287  1.00  0.00    -0.184 NA
BRANCH   8   9
HETATM    9  N   UNL     1      41.936  -9.820  10.248  1.00  0.00    -0.247 N 
HETATM   10  C   UNL     1      40.902  -8.902  10.378  1.00  0.00     0.237 C 
HETATM   11  O   UNL     1      40.723  -7.915   9.669  1.00  0.00    -0.272 OA
HETATM   12  H   UNL     1      41.828 -10.727  10.693  1.00  0.00     0.192 HD
BRANCH  10  13
HETATM   13  C   UNL     1      39.959  -9.233  11.519  1.00  0.00     0.105 C 
BRANCH  13  14
HETATM   14  C   UNL     1      40.082  -8.254  12.686  1.00  0.00     0.014 C 
BRANCH  14  15
HETATM   15  C   UNL     1      40.857  -8.779  13.918  1.00  0.00    -0.014 C 
HETATM   16  C   UNL     1      42.302  -9.207  13.608  1.00  0.00     0.004 C 
HETATM   17  C   UNL     1      43.217  -8.027  13.285  1.00  0.00     0.000 C 
HETATM   18  C   UNL     1      43.197  -6.981  14.395  1.00  0.00     0.000 C 
HETATM   19  C   UNL     1      41.779  -6.536  14.741  1.00  0.00     0.000 C 
HETATM   20  C   UNL     1      40.868  -7.725  15.042  1.00  0.00     0.004 C 
ENDBRANCH  14  15
ENDBRANCH  13  14
ENDBRANCH  10  13
ENDBRANCH   8   9
ENDBRANCH   6   7
BRANCH   1  21
HETATM   21  C   UNL     1      44.020 -12.488   6.459  1.00  0.00    -0.002 A 
HETATM   22  C   UNL     1      43.848 -13.726   7.098  1.00  0.00     0.053 A 
HETATM   23  C   UNL     1      43.008 -14.709   6.559  1.00  0.00     0.102 A 
HETATM   24  C   UNL     1      42.310 -14.448   5.365  1.00  0.00     0.101 A 
HETATM   25  C   UNL     1      42.488 -13.221   4.719  1.00  0.00     0.040 A 
HETATM   26  C   UNL     1      43.344 -12.253   5.256  1.00  0.00     0.017 A 
BRANCH  23  27
HETATM   27  O   UNL     1      42.798 -15.942   7.128  1.00  0.00    -0.353 OA
HETATM   28  C   UNL     1      43.912 -16.818   7.213  1.00  0.00     0.210 C 
ENDBRANCH  23  27
BRANCH  24  29
HETATM   29  O   UNL     1      41.500 -15.458   4.906  1.00  0.00    -0.353 OA
HETATM   30  C   UNL     1      40.639 -15.169   3.815  1.00  0.00     0.210 C 
ENDBRANCH  24  29
ENDBRANCH   1  21
TORSDOF 8
ENDMDL
MODEL 10
REMARK VINA RESULT:      -7.1      4.104      6.236
REMARK  8 active torsions:
REMARK  status: ('A' for Active; 'I' for Inactive)
REMARK    1  A    between atoms: O_2  and  C_3 
REMARK    2  A    between atoms: C_4  and  O_5 
REMARK    3  A    between atoms: C_8  and  C_9 
REMARK    4  A    between atoms: C_14  and  C_15 
REMARK    5  A    between atoms: N_16  and  N_17 
REMARK       I    between atoms: N_17  and  C_18 
REMARK    6  A    between atoms: C_18  and  C_19 
REMARK    7  A    between atoms: C_19  and  C_20 
REMARK    8  A    between atoms: C_20  and  C_21 
ROOT
HETATM    1  C   UNL     1      42.788 -12.006   5.640  1.00  0.00     0.100 A 
HETATM    2  N   UNL     1      42.776 -10.691   5.927  1.00  0.00    -0.174 NA
HETATM    3  N   UNL     1      43.538 -10.572   7.020  1.00  0.00    -0.288 N 
HETATM    4  H   UNL     1      43.661  -9.649   7.421  1.00  0.00     0.188 HD
HETATM    5  C   UNL     1      44.058 -11.749   7.449  1.00  0.00     0.124 A 
HETATM    6  C   UNL     1      43.614 -12.717   6.570  1.00  0.00     0.031 A 
ENDROOT
BRANCH   6   7
HETATM    7  C   UNL     1      43.952 -14.124   6.620  1.00  0.00     0.154 C 
HETATM    8  N   UNL     1      43.222 -14.908   7.351  1.00  0.00    -0.184 NA
BRANCH   8   9
HETATM    9  N   UNL     1      43.529 -16.244   7.406  1.00  0.00    -0.247 N 
HETATM   10  C   UNL     1      42.891 -17.258   6.704  1.00  0.00     0.237 C 
HETATM   11  O   UNL     1      41.934 -17.117   5.947  1.00  0.00    -0.272 OA
HETATM   12  H   UNL     1      44.460 -16.428   7.768  1.00  0.00     0.192 HD
BRANCH  10  13
HETATM   13  C   UNL     1      43.502 -18.624   6.953  1.00  0.00     0.105 C 
BRANCH  13  14
HETATM   14  C   UNL     1      43.213 -19.612   5.823  1.00  0.00     0.014 C 
BRANCH  14  15
HETATM   15  C   UNL     1      44.377 -19.851   4.832  1.00  0.00    -0.014 C 
HETATM   16  C   UNL     1      44.086 -20.936   3.781  1.00  0.00     0.004 C 
HETATM   17  C   UNL     1      43.036 -20.508   2.756  1.00  0.00     0.000 C 
HETATM   18  C   UNL     1      43.418 -19.197   2.077  1.00  0.00     0.000 C 
HETATM   19  C   UNL     1      43.725 -18.094   3.086  1.00  0.00     0.000 C 
HETATM   20  C   UNL     1      44.760 -18.540   4.118  1.00  0.00     0.004 C 
ENDBRANCH  14  15
ENDBRANCH  13  14
ENDBRANCH  10  13
ENDBRANCH   8   9
ENDBRANCH   6   7
BRANCH   1  21
HETATM   21  C   UNL     1      42.003 -12.508   4.506  1.00  0.00    -0.002 A 
HETATM   22  C   UNL     1      42.121 -11.893   3.250  1.00  0.00     0.053 A 
HETATM   23  C   UNL     1      41.363 -12.330   2.156  1.00  0.00     0.102 A 
HETATM   24  C   UNL     1      40.479 -13.414   2.311  1.00  0.00     0.101 A 
HETATM   25  C   UNL     1      40.350 -14.021   3.564  1.00  0.00     0.040 A 
HETATM   26  C   UNL     1      41.098 -13.565   4.655  1.00  0.00     0.017 A 
BRANCH  23  27
HETATM   27  O   UNL     1      41.424 -11.772   0.902  1.00  0.00    -0.353 OA
HETATM   28  C   UNL     1      41.529 -10.358   0.823  1.00  0.00     0.210 C 
ENDBRANCH  23  27
BRANCH  24  29
HETATM   29  O   UNL     1      39.778 -13.788   1.191  1.00  0.00    -0.353 OA
HETATM   30  C   UNL     1      40.121 -15.023   0.580  1.00  0.00     0.210 C 
ENDBRANCH  24  29
ENDBRANCH   1  21
TORSDOF 8
ENDMDL
