MODEL 1
REMARK VINA RESULT:      -8.7      0.000      0.000
REMARK  5 active torsions:
REMARK  status: ('A' for Active; 'I' for Inactive)
REMARK    1  A    between atoms: O_2  and  C_3 
REMARK    2  A    between atoms: C_16  and  C_17 
REMARK    3  A    between atoms: C_19  and  O_20 
REMARK    4  A    between atoms: C_22  and  O_23 
REMARK    5  A    between atoms: O_23  and  C_24 
ROOT
HETATM    1  C   UNL     1      43.888 -18.500   4.968  1.00  0.00     0.069 A 
HETATM    2  C   UNL     1      43.776 -17.407   4.097  1.00  0.00     0.051 A 
HETATM    3  C   UNL     1      43.201 -16.205   4.548  1.00  0.00     0.002 A 
HETATM    4  C   UNL     1      42.745 -16.134   5.865  1.00  0.00     0.043 A 
HETATM    5  N   UNL     1      42.229 -14.871   6.064  1.00  0.00    -0.356 N 
HETATM    6  H   UNL     1      41.839 -14.554   6.944  1.00  0.00     0.166 HD
HETATM    7  C   UNL     1      42.385 -14.127   4.922  1.00  0.00     0.052 A 
HETATM    8  C   UNL     1      42.954 -14.938   3.958  1.00  0.00    -0.019 A 
HETATM    9  C   UNL     1      43.245 -14.448   2.579  1.00  0.00     0.069 C 
HETATM   10  C   UNL     1      42.474 -13.145   2.300  1.00  0.00     0.238 C 
HETATM   11  N   UNL     1      42.593 -12.191   3.463  1.00  0.00    -0.061 N 
HETATM   12  H   UNL     1      43.585 -12.009   3.648  1.00  0.00     0.278 HD
HETATM   13  H   UNL     1      42.171 -11.284   3.239  1.00  0.00     0.278 HD
HETATM   14  C   UNL     1      41.984 -12.701   4.745  1.00  0.00     0.269 C 
HETATM   15  C   UNL     1      42.840 -17.213   6.750  1.00  0.00     0.033 A 
HETATM   16  C   UNL     1      43.422 -18.397   6.278  1.00  0.00     0.039 A 
ENDROOT
BRANCH  14  17
HETATM   17  C   UNL     1      42.375 -11.796   5.895  1.00  0.00    -0.019 A 
HETATM   18  C   UNL     1      43.620 -11.925   6.539  1.00  0.00     0.049 A 
HETATM   19  C   UNL     1      43.978 -11.074   7.590  1.00  0.00     0.102 A 
HETATM   20  C   UNL     1      43.100 -10.054   7.996  1.00  0.00     0.102 A 
HETATM   21  C   UNL     1      41.876  -9.904   7.343  1.00  0.00     0.040 A 
HETATM   22  C   UNL     1      41.513 -10.768   6.305  1.00  0.00     0.012 A 
BRANCH  19  23
HETATM   23  O   UNL     1      45.181 -11.146   8.245  1.00  0.00    -0.353 OA
HETATM   24  C   UNL     1      46.333 -10.695   7.543  1.00  0.00     0.210 C 
ENDBRANCH  19  23
BRANCH  20  25
HETATM   25  O   UNL     1      43.539  -9.259   9.021  1.00  0.00    -0.343 OA
BRANCH  25  26
HETATM   26  C   UNL     1      42.811  -9.225  10.243  1.00  0.00     0.129 C 
HETATM   27  C   UNL     1      43.231 -10.327  11.216  1.00  0.00     0.032 C 
HETATM   28  C   UNL     1      42.878  -9.745  12.572  1.00  0.00     0.002 C 
HETATM   29  C   UNL     1      43.329  -8.297  12.459  1.00  0.00     0.002 C 
HETATM   30  C   UNL     1      43.154  -7.924  10.987  1.00  0.00     0.032 C 
ENDBRANCH  25  26
ENDBRANCH  20  25
ENDBRANCH  14  17
BRANCH   1  31
HETATM   31  O   UNL     1      44.473 -19.603   4.407  1.00  0.00    -0.356 OA
HETATM   32  C   UNL     1      44.210 -20.859   5.024  1.00  0.00     0.210 C 
ENDBRANCH   1  31
TORSDOF 5
ENDMDL
MODEL 2
REMARK VINA RESULT:      -8.7      1.906      8.486
REMARK  5 active torsions:
REMARK  status: ('A' for Active; 'I' for Inactive)
REMARK    1  A    between atoms: O_2  and  C_3 
REMARK    2  A    between atoms: C_16  and  C_17 
REMARK    3  A    between atoms: C_19  and  O_20 
REMARK    4  A    between atoms: C_22  and  O_23 
REMARK    5  A    between atoms: O_23  and  C_24 
ROOT
HETATM    1  C   UNL     1      44.350  -9.725   8.659  1.00  0.00     0.069 A 
HETATM    2  C   UNL     1      43.330  -9.571   7.711  1.00  0.00     0.051 A 
HETATM    3  C   UNL     1      43.354 -10.326   6.524  1.00  0.00     0.002 A 
HETATM    4  C   UNL     1      44.411 -11.212   6.316  1.00  0.00     0.043 A 
HETATM    5  N   UNL     1      44.213 -11.824   5.097  1.00  0.00    -0.356 N 
HETATM    6  H   UNL     1      44.837 -12.523   4.709  1.00  0.00     0.166 HD
HETATM    7  C   UNL     1      43.037 -11.380   4.547  1.00  0.00     0.052 A 
HETATM    8  C   UNL     1      42.502 -10.428   5.394  1.00  0.00    -0.019 A 
HETATM    9  C   UNL     1      41.225  -9.721   5.087  1.00  0.00     0.069 C 
HETATM   10  C   UNL     1      40.863  -9.890   3.600  1.00  0.00     0.238 C 
HETATM   11  N   UNL     1      41.036 -11.323   3.164  1.00  0.00    -0.061 N 
HETATM   12  H   UNL     1      40.461 -11.928   3.762  1.00  0.00     0.278 HD
HETATM   13  H   UNL     1      40.697 -11.460   2.206  1.00  0.00     0.278 HD
HETATM   14  C   UNL     1      42.455 -11.828   3.248  1.00  0.00     0.269 C 
HETATM   15  C   UNL     1      45.444 -11.378   7.244  1.00  0.00     0.033 A 
HETATM   16  C   UNL     1      45.393 -10.618   8.422  1.00  0.00     0.039 A 
ENDROOT
BRANCH  14  17
HETATM   17  C   UNL     1      42.480 -13.328   3.037  1.00  0.00    -0.019 A 
HETATM   18  C   UNL     1      41.595 -14.179   3.725  1.00  0.00     0.049 A 
HETATM   19  C   UNL     1      41.616 -15.562   3.511  1.00  0.00     0.102 A 
HETATM   20  C   UNL     1      42.510 -16.114   2.577  1.00  0.00     0.102 A 
HETATM   21  C   UNL     1      43.370 -15.271   1.873  1.00  0.00     0.040 A 
HETATM   22  C   UNL     1      43.360 -13.891   2.102  1.00  0.00     0.012 A 
BRANCH  19  23
HETATM   23  O   UNL     1      40.771 -16.438   4.144  1.00  0.00    -0.353 OA
HETATM   24  C   UNL     1      40.567 -16.250   5.539  1.00  0.00     0.210 C 
ENDBRANCH  19  23
BRANCH  20  25
HETATM   25  O   UNL     1      42.450 -17.472   2.421  1.00  0.00    -0.343 OA
BRANCH  25  26
HETATM   26  C   UNL     1      43.569 -18.271   2.792  1.00  0.00     0.129 C 
HETATM   27  C   UNL     1      43.698 -18.448   4.304  1.00  0.00     0.032 C 
HETATM   28  C   UNL     1      44.447 -19.761   4.437  1.00  0.00     0.002 C 
HETATM   29  C   UNL     1      43.790 -20.644   3.388  1.00  0.00     0.002 C 
HETATM   30  C   UNL     1      43.351 -19.700   2.270  1.00  0.00     0.032 C 
ENDBRANCH  25  26
ENDBRANCH  20  25
ENDBRANCH  14  17
BRANCH   1  31
HETATM   31  O   UNL     1      44.202  -8.941   9.772  1.00  0.00    -0.356 OA
HETATM   32  C   UNL     1      43.958  -9.607  11.006  1.00  0.00     0.210 C 
ENDBRANCH   1  31
TORSDOF 5
ENDMDL
MODEL 3
REMARK VINA RESULT:      -8.4      1.785      2.674
REMARK  5 active torsions:
REMARK  status: ('A' for Active; 'I' for Inactive)
REMARK    1  A    between atoms: O_2  and  C_3 
REMARK    2  A    between atoms: C_16  and  C_17 
REMARK    3  A    between atoms: C_19  and  O_20 
REMARK    4  A    between atoms: C_22  and  O_23 
REMARK    5  A    between atoms: O_23  and  C_24 
ROOT
HETATM    1  C   UNL     1      43.879 -19.014   3.341  1.00  0.00     0.069 A 
HETATM    2  C   UNL     1      43.201 -18.036   2.601  1.00  0.00     0.051 A 
HETATM    3  C   UNL     1      42.633 -16.928   3.256  1.00  0.00     0.002 A 
HETATM    4  C   UNL     1      42.755 -16.835   4.643  1.00  0.00     0.043 A 
HETATM    5  N   UNL     1      42.123 -15.678   5.044  1.00  0.00    -0.356 N 
HETATM    6  H   UNL     1      42.074 -15.367   6.008  1.00  0.00     0.166 HD
HETATM    7  C   UNL     1      41.642 -15.013   3.945  1.00  0.00     0.052 A 
HETATM    8  C   UNL     1      41.915 -15.781   2.828  1.00  0.00    -0.019 A 
HETATM    9  C   UNL     1      41.508 -15.360   1.456  1.00  0.00     0.069 C 
HETATM   10  C   UNL     1      40.444 -14.248   1.531  1.00  0.00     0.238 C 
HETATM   11  N   UNL     1      40.836 -13.198   2.540  1.00  0.00    -0.061 N 
HETATM   12  H   UNL     1      41.757 -12.820   2.292  1.00  0.00     0.278 HD
HETATM   13  H   UNL     1      40.185 -12.405   2.516  1.00  0.00     0.278 HD
HETATM   14  C   UNL     1      40.924 -13.705   3.957  1.00  0.00     0.269 C 
HETATM   15  C   UNL     1      43.421 -17.802   5.403  1.00  0.00     0.033 A 
HETATM   16  C   UNL     1      43.984 -18.893   4.726  1.00  0.00     0.039 A 
ENDROOT
BRANCH  14  17
HETATM   17  C   UNL     1      41.562 -12.652   4.841  1.00  0.00    -0.019 A 
HETATM   18  C   UNL     1      40.780 -11.784   5.627  1.00  0.00     0.049 A 
HETATM   19  C   UNL     1      41.380 -10.825   6.451  1.00  0.00     0.102 A 
HETATM   20  C   UNL     1      42.781 -10.740   6.524  1.00  0.00     0.102 A 
HETATM   21  C   UNL     1      43.560 -11.616   5.767  1.00  0.00     0.040 A 
HETATM   22  C   UNL     1      42.958 -12.562   4.930  1.00  0.00     0.012 A 
BRANCH  19  23
HETATM   23  O   UNL     1      40.670  -9.962   7.245  1.00  0.00    -0.353 OA
HETATM   24  C   UNL     1      39.337 -10.330   7.577  1.00  0.00     0.210 C 
ENDBRANCH  19  23
BRANCH  20  25
HETATM   25  O   UNL     1      43.280  -9.784   7.367  1.00  0.00    -0.343 OA
BRANCH  25  26
HETATM   26  C   UNL     1      43.940 -10.181   8.564  1.00  0.00     0.129 C 
HETATM   27  C   UNL     1      45.297  -9.502   8.747  1.00  0.00     0.032 C 
HETATM   28  C   UNL     1      45.491  -9.515  10.252  1.00  0.00     0.002 C 
HETATM   29  C   UNL     1      44.117  -9.142  10.784  1.00  0.00     0.002 C 
HETATM   30  C   UNL     1      43.117  -9.691   9.767  1.00  0.00     0.032 C 
ENDBRANCH  25  26
ENDBRANCH  20  25
ENDBRANCH  14  17
BRANCH   1  31
HETATM   31  O   UNL     1      44.392 -20.032   2.583  1.00  0.00    -0.356 OA
HETATM   32  C   UNL     1      43.552 -20.569   1.566  1.00  0.00     0.210 C 
ENDBRANCH   1  31
TORSDOF 5
ENDMDL
MODEL 4
REMARK VINA RESULT:      -8.1      2.160      8.523
REMARK  5 active torsions:
REMARK  status: ('A' for Active; 'I' for Inactive)
REMARK    1  A    between atoms: O_2  and  C_3 
REMARK    2  A    between atoms: C_16  and  C_17 
REMARK    3  A    between atoms: C_19  and  O_20 
REMARK    4  A    between atoms: C_22  and  O_23 
REMARK    5  A    between atoms: O_23  and  C_24 
ROOT
HETATM    1  C   UNL     1      43.834  -9.067  10.803  1.00  0.00     0.069 A 
HETATM    2  C   UNL     1      42.836  -8.802   9.854  1.00  0.00     0.051 A 
HETATM    3  C   UNL     1      42.898  -9.403   8.583  1.00  0.00     0.002 A 
HETATM    4  C   UNL     1      43.968 -10.251   8.295  1.00  0.00     0.043 A 
HETATM    5  N   UNL     1      43.806 -10.707   7.005  1.00  0.00    -0.356 N 
HETATM    6  H   UNL     1      44.446 -11.350   6.550  1.00  0.00     0.166 HD
HETATM    7  C   UNL     1      42.641 -10.205   6.483  1.00  0.00     0.052 A 
HETATM    8  C   UNL     1      42.076  -9.369   7.427  1.00  0.00    -0.019 A 
HETATM    9  C   UNL     1      40.801  -8.636   7.177  1.00  0.00     0.069 C 
HETATM   10  C   UNL     1      40.479  -8.620   5.671  1.00  0.00     0.238 C 
HETATM   11  N   UNL     1      40.675  -9.988   5.066  1.00  0.00    -0.061 N 
HETATM   12  H   UNL     1      40.091 -10.665   5.568  1.00  0.00     0.278 HD
HETATM   13  H   UNL     1      40.362 -10.006   4.089  1.00  0.00     0.278 HD
HETATM   14  C   UNL     1      42.096 -10.491   5.124  1.00  0.00     0.269 C 
HETATM   15  C   UNL     1      44.978 -10.525   9.223  1.00  0.00     0.033 A 
HETATM   16  C   UNL     1      44.890  -9.918  10.484  1.00  0.00     0.039 A 
ENDROOT
BRANCH  14  17
HETATM   17  C   UNL     1      42.140 -11.953   4.728  1.00  0.00    -0.019 A 
HETATM   18  C   UNL     1      41.379 -12.920   5.413  1.00  0.00     0.049 A 
HETATM   19  C   UNL     1      41.414 -14.265   5.030  1.00  0.00     0.102 A 
HETATM   20  C   UNL     1      42.196 -14.661   3.930  1.00  0.00     0.102 A 
HETATM   21  C   UNL     1      42.930 -13.702   3.232  1.00  0.00     0.040 A 
HETATM   22  C   UNL     1      42.907 -12.361   3.628  1.00  0.00     0.012 A 
BRANCH  19  23
HETATM   23  O   UNL     1      40.687 -15.247   5.652  1.00  0.00    -0.353 OA
HETATM   24  C   UNL     1      41.186 -15.742   6.889  1.00  0.00     0.210 C 
ENDBRANCH  19  23
BRANCH  20  25
HETATM   25  O   UNL     1      42.158 -15.993   3.618  1.00  0.00    -0.343 OA
BRANCH  25  26
HETATM   26  C   UNL     1      43.375 -16.726   3.523  1.00  0.00     0.129 C 
HETATM   27  C   UNL     1      43.647 -17.588   4.756  1.00  0.00     0.032 C 
HETATM   28  C   UNL     1      44.525 -18.700   4.214  1.00  0.00     0.002 C 
HETATM   29  C   UNL     1      43.869 -19.047   2.887  1.00  0.00     0.002 C 
HETATM   30  C   UNL     1      43.249 -17.746   2.380  1.00  0.00     0.032 C 
ENDBRANCH  25  26
ENDBRANCH  20  25
ENDBRANCH  14  17
BRANCH   1  31
HETATM   31  O   UNL     1      43.650  -8.428  11.999  1.00  0.00    -0.356 OA
HETATM   32  C   UNL     1      42.569  -7.506  12.082  1.00  0.00     0.210 C 
ENDBRANCH   1  31
TORSDOF 5
ENDMDL
MODEL 5
REMARK VINA RESULT:      -8.1      4.155      7.906
REMARK  5 active torsions:
REMARK  status: ('A' for Active; 'I' for Inactive)
REMARK    1  A    between atoms: O_2  and  C_3 
REMARK    2  A    between atoms: C_16  and  C_17 
REMARK    3  A    between atoms: C_19  and  O_20 
REMARK    4  A    between atoms: C_22  and  O_23 
REMARK    5  A    between atoms: O_23  and  C_24 
ROOT
HETATM    1  C   UNL     1      43.756 -18.666   4.943  1.00  0.00     0.069 A 
HETATM    2  C   UNL     1      43.478 -17.441   5.566  1.00  0.00     0.051 A 
HETATM    3  C   UNL     1      43.261 -16.290   4.787  1.00  0.00     0.002 A 
HETATM    4  C   UNL     1      43.337 -16.397   3.398  1.00  0.00     0.043 A 
HETATM    5  N   UNL     1      43.092 -15.149   2.866  1.00  0.00    -0.356 N 
HETATM    6  H   UNL     1      43.079 -14.953   1.871  1.00  0.00     0.166 HD
HETATM    7  C   UNL     1      42.821 -14.264   3.879  1.00  0.00     0.052 A 
HETATM    8  C   UNL     1      42.950 -14.936   5.080  1.00  0.00    -0.019 A 
HETATM    9  C   UNL     1      42.742 -14.261   6.393  1.00  0.00     0.069 C 
HETATM   10  C   UNL     1      42.788 -12.732   6.223  1.00  0.00     0.238 C 
HETATM   11  N   UNL     1      41.969 -12.299   5.033  1.00  0.00    -0.061 N 
HETATM   12  H   UNL     1      41.007 -12.635   5.147  1.00  0.00     0.278 HD
HETATM   13  H   UNL     1      41.911 -11.277   4.978  1.00  0.00     0.278 HD
HETATM   14  C   UNL     1      42.474 -12.823   3.712  1.00  0.00     0.269 C 
HETATM   15  C   UNL     1      43.620 -17.606   2.754  1.00  0.00     0.033 A 
HETATM   16  C   UNL     1      43.826 -18.740   3.553  1.00  0.00     0.039 A 
ENDROOT
BRANCH  14  17
HETATM   17  C   UNL     1      41.454 -12.548   2.626  1.00  0.00    -0.019 A 
HETATM   18  C   UNL     1      41.825 -11.953   1.405  1.00  0.00     0.049 A 
HETATM   19  C   UNL     1      40.877 -11.718   0.403  1.00  0.00     0.102 A 
HETATM   20  C   UNL     1      39.539 -12.104   0.598  1.00  0.00     0.102 A 
HETATM   21  C   UNL     1      39.172 -12.719   1.795  1.00  0.00     0.040 A 
HETATM   22  C   UNL     1      40.118 -12.936   2.803  1.00  0.00     0.012 A 
BRANCH  19  23
HETATM   23  O   UNL     1      41.183 -11.151  -0.808  1.00  0.00    -0.353 OA
HETATM   24  C   UNL     1      41.688  -9.822  -0.795  1.00  0.00     0.210 C 
ENDBRANCH  19  23
BRANCH  20  25
HETATM   25  O   UNL     1      38.685 -11.849  -0.441  1.00  0.00    -0.343 OA
BRANCH  25  26
HETATM   26  C   UNL     1      38.118 -12.936  -1.164  1.00  0.00     0.129 C 
HETATM   27  C   UNL     1      37.786 -12.577  -2.612  1.00  0.00     0.032 C 
HETATM   28  C   UNL     1      37.847 -13.915  -3.324  1.00  0.00     0.002 C 
HETATM   29  C   UNL     1      39.078 -14.574  -2.724  1.00  0.00     0.002 C 
HETATM   30  C   UNL     1      39.171 -14.048  -1.292  1.00  0.00     0.032 C 
ENDBRANCH  25  26
ENDBRANCH  20  25
ENDBRANCH  14  17
BRANCH   1  31
HETATM   31  O   UNL     1      43.937 -19.707   5.813  1.00  0.00    -0.356 OA
HETATM   32  C   UNL     1      44.319 -20.959   5.254  1.00  0.00     0.210 C 
ENDBRANCH   1  31
TORSDOF 5
ENDMDL
MODEL 6
REMARK VINA RESULT:      -8.0      7.461     13.741
REMARK  5 active torsions:
REMARK  status: ('A' for Active; 'I' for Inactive)
REMARK    1  A    between atoms: O_2  and  C_3 
REMARK    2  A    between atoms: C_16  and  C_17 
REMARK    3  A    between atoms: C_19  and  O_20 
REMARK    4  A    between atoms: C_22  and  O_23 
REMARK    5  A    between atoms: O_23  and  C_24 
ROOT
HETATM    1  C   UNL     1      37.510  -2.409  16.519  1.00  0.00     0.069 A 
HETATM    2  C   UNL     1      38.644  -2.912  17.172  1.00  0.00     0.051 A 
HETATM    3  C   UNL     1      39.145  -4.181  16.831  1.00  0.00     0.002 A 
HETATM    4  C   UNL     1      38.488  -4.918  15.845  1.00  0.00     0.043 A 
HETATM    5  N   UNL     1      39.161  -6.111  15.694  1.00  0.00    -0.356 N 
HETATM    6  H   UNL     1      38.893  -6.829  15.030  1.00  0.00     0.166 HD
HETATM    7  C   UNL     1      40.250  -6.133  16.528  1.00  0.00     0.052 A 
HETATM    8  C   UNL     1      40.246  -4.964  17.266  1.00  0.00    -0.019 A 
HETATM    9  C   UNL     1      41.289  -4.669  18.291  1.00  0.00     0.069 C 
HETATM   10  C   UNL     1      42.048  -5.955  18.668  1.00  0.00     0.238 C 
HETATM   11  N   UNL     1      42.426  -6.737  17.435  1.00  0.00    -0.061 N 
HETATM   12  H   UNL     1      42.984  -6.140  16.816  1.00  0.00     0.278 HD
HETATM   13  H   UNL     1      43.020  -7.537  17.675  1.00  0.00     0.278 HD
HETATM   14  C   UNL     1      41.248  -7.237  16.636  1.00  0.00     0.269 C 
HETATM   15  C   UNL     1      37.352  -4.439  15.184  1.00  0.00     0.033 A 
HETATM   16  C   UNL     1      36.876  -3.169  15.538  1.00  0.00     0.039 A 
ENDROOT
BRANCH  14  17
HETATM   17  C   UNL     1      41.724  -7.780  15.304  1.00  0.00    -0.019 A 
HETATM   18  C   UNL     1      41.074  -8.862  14.679  1.00  0.00     0.049 A 
HETATM   19  C   UNL     1      41.513  -9.346  13.442  1.00  0.00     0.102 A 
HETATM   20  C   UNL     1      42.599  -8.733  12.793  1.00  0.00     0.102 A 
HETATM   21  C   UNL     1      43.229  -7.643  13.396  1.00  0.00     0.040 A 
HETATM   22  C   UNL     1      42.800  -7.173  14.642  1.00  0.00     0.012 A 
BRANCH  19  23
HETATM   23  O   UNL     1      40.912 -10.388  12.782  1.00  0.00    -0.353 OA
HETATM   24  C   UNL     1      39.560 -10.676  13.116  1.00  0.00     0.210 C 
ENDBRANCH  19  23
BRANCH  20  25
HETATM   25  O   UNL     1      42.949  -9.262  11.581  1.00  0.00    -0.343 OA
BRANCH  25  26
HETATM   26  C   UNL     1      44.115  -8.786  10.918  1.00  0.00     0.129 C 
HETATM   27  C   UNL     1      44.989  -9.914  10.370  1.00  0.00     0.032 C 
HETATM   28  C   UNL     1      45.724  -9.255   9.218  1.00  0.00     0.002 C 
HETATM   29  C   UNL     1      44.644  -8.421   8.546  1.00  0.00     0.002 C 
HETATM   30  C   UNL     1      43.688  -8.007   9.663  1.00  0.00     0.032 C 
ENDBRANCH  25  26
ENDBRANCH  20  25
ENDBRANCH  14  17
BRANCH   1  31
HETATM   31  O   UNL     1      37.132  -1.161  16.937  1.00  0.00    -0.356 OA
HETATM   32  C   UNL     1      37.365  -0.838  18.304  1.00  0.00     0.210 C 
ENDBRANCH   1  31
TORSDOF 5
ENDMDL
MODEL 7
REMARK VINA RESULT:      -7.9      2.472      8.859
REMARK  5 active torsions:
REMARK  status: ('A' for Active; 'I' for Inactive)
REMARK    1  A    between atoms: O_2  and  C_3 
REMARK    2  A    between atoms: C_16  and  C_17 
REMARK    3  A    between atoms: C_19  and  O_20 
REMARK    4  A    between atoms: C_22  and  O_23 
REMARK    5  A    between atoms: O_23  and  C_24 
ROOT
HETATM    1  C   UNL     1      42.005  -8.533  12.431  1.00  0.00     0.069 A 
HETATM    2  C   UNL     1      41.694  -8.222  11.101  1.00  0.00     0.051 A 
HETATM    3  C   UNL     1      42.233  -8.992  10.054  1.00  0.00     0.002 A 
HETATM    4  C   UNL     1      43.080 -10.054  10.372  1.00  0.00     0.043 A 
HETATM    5  N   UNL     1      43.474 -10.645   9.191  1.00  0.00    -0.356 N 
HETATM    6  H   UNL     1      44.089 -11.451   9.142  1.00  0.00     0.166 HD
HETATM    7  C   UNL     1      42.866 -10.014   8.136  1.00  0.00     0.052 A 
HETATM    8  C   UNL     1      42.117  -8.966   8.640  1.00  0.00    -0.019 A 
HETATM    9  C   UNL     1      41.336  -8.053   7.756  1.00  0.00     0.069 C 
HETATM   10  C   UNL     1      41.809  -8.185   6.297  1.00  0.00     0.238 C 
HETATM   11  N   UNL     1      41.959  -9.635   5.910  1.00  0.00    -0.061 N 
HETATM   12  H   UNL     1      41.067 -10.118   6.061  1.00  0.00     0.278 HD
HETATM   13  H   UNL     1      42.171  -9.729   4.911  1.00  0.00     0.278 HD
HETATM   14  C   UNL     1      43.010 -10.378   6.697  1.00  0.00     0.269 C 
HETATM   15  C   UNL     1      43.411 -10.379  11.691  1.00  0.00     0.033 A 
HETATM   16  C   UNL     1      42.856  -9.600  12.716  1.00  0.00     0.039 A 
ENDROOT
BRANCH  14  17
HETATM   17  C   UNL     1      42.908 -11.863   6.415  1.00  0.00    -0.019 A 
HETATM   18  C   UNL     1      41.769 -12.415   5.799  1.00  0.00     0.049 A 
HETATM   19  C   UNL     1      41.691 -13.786   5.529  1.00  0.00     0.102 A 
HETATM   20  C   UNL     1      42.771 -14.627   5.849  1.00  0.00     0.102 A 
HETATM   21  C   UNL     1      43.913 -14.080   6.436  1.00  0.00     0.040 A 
HETATM   22  C   UNL     1      43.981 -12.712   6.721  1.00  0.00     0.012 A 
BRANCH  19  23
HETATM   23  O   UNL     1      40.612 -14.376   4.922  1.00  0.00    -0.353 OA
HETATM   24  C   UNL     1      40.385 -14.063   3.553  1.00  0.00     0.210 C 
ENDBRANCH  19  23
BRANCH  20  25
HETATM   25  O   UNL     1      42.614 -15.950   5.536  1.00  0.00    -0.343 OA
BRANCH  25  26
HETATM   26  C   UNL     1      43.605 -16.608   4.755  1.00  0.00     0.129 C 
HETATM   27  C   UNL     1      43.756 -18.087   5.110  1.00  0.00     0.032 C 
HETATM   28  C   UNL     1      44.292 -18.699   3.830  1.00  0.00     0.002 C 
HETATM   29  C   UNL     1      43.469 -18.018   2.747  1.00  0.00     0.002 C 
HETATM   30  C   UNL     1      43.146 -16.626   3.288  1.00  0.00     0.032 C 
ENDBRANCH  25  26
ENDBRANCH  20  25
ENDBRANCH  14  17
BRANCH   1  31
HETATM   31  O   UNL     1      41.409  -7.714  13.351  1.00  0.00    -0.356 OA
HETATM   32  C   UNL     1      41.019  -8.303  14.587  1.00  0.00     0.210 C 
ENDBRANCH   1  31
TORSDOF 5
ENDMDL
MODEL 8
REMARK VINA RESULT:      -7.4      5.583     10.066
REMARK  5 active torsions:
REMARK  status: ('A' for Active; 'I' for Inactive)
REMARK    1  A    between atoms: O_2  and  C_3 
REMARK    2  A    between atoms: C_16  and  C_17 
REMARK    3  A    between atoms: C_19  and  O_20 
REMARK    4  A    between atoms: C_22  and  O_23 
REMARK    5  A    between atoms: O_23  and  C_24 
ROOT
HETATM    1  C   UNL     1      40.378  -7.769  -2.713  1.00  0.00     0.069 A 
HETATM    2  C   UNL     1      39.435  -8.806  -2.738  1.00  0.00     0.051 A 
HETATM    3  C   UNL     1      39.808 -10.105  -2.347  1.00  0.00     0.002 A 
HETATM    4  C   UNL     1      41.125 -10.331  -1.946  1.00  0.00     0.043 A 
HETATM    5  N   UNL     1      41.241 -11.665  -1.618  1.00  0.00    -0.356 N 
HETATM    6  H   UNL     1      42.100 -12.091  -1.285  1.00  0.00     0.166 HD
HETATM    7  C   UNL     1      40.023 -12.279  -1.759  1.00  0.00     0.052 A 
HETATM    8  C   UNL     1      39.126 -11.345  -2.240  1.00  0.00    -0.019 A 
HETATM    9  C   UNL     1      37.702 -11.686  -2.527  1.00  0.00     0.069 C 
HETATM   10  C   UNL     1      37.524 -13.213  -2.612  1.00  0.00     0.238 C 
HETATM   11  N   UNL     1      38.231 -13.900  -1.470  1.00  0.00    -0.061 N 
HETATM   12  H   UNL     1      37.876 -13.528  -0.582  1.00  0.00     0.278 HD
HETATM   13  H   UNL     1      38.027 -14.905  -1.463  1.00  0.00     0.278 HD
HETATM   14  C   UNL     1      39.728 -13.713  -1.469  1.00  0.00     0.269 C 
HETATM   15  C   UNL     1      42.085  -9.315  -1.919  1.00  0.00     0.033 A 
HETATM   16  C   UNL     1      41.687  -8.028  -2.308  1.00  0.00     0.039 A 
ENDROOT
BRANCH  14  17
HETATM   17  C   UNL     1      40.307 -14.218  -0.163  1.00  0.00    -0.019 A 
HETATM   18  C   UNL     1      41.337 -13.523   0.499  1.00  0.00     0.049 A 
HETATM   19  C   UNL     1      41.855 -13.990   1.712  1.00  0.00     0.102 A 
HETATM   20  C   UNL     1      41.325 -15.152   2.300  1.00  0.00     0.102 A 
HETATM   21  C   UNL     1      40.285 -15.829   1.661  1.00  0.00     0.040 A 
HETATM   22  C   UNL     1      39.783 -15.371   0.439  1.00  0.00     0.012 A 
BRANCH  19  23
HETATM   23  O   UNL     1      42.849 -13.349   2.406  1.00  0.00    -0.353 OA
HETATM   24  C   UNL     1      42.553 -12.058   2.924  1.00  0.00     0.210 C 
ENDBRANCH  19  23
BRANCH  20  25
HETATM   25  O   UNL     1      41.881 -15.526   3.493  1.00  0.00    -0.343 OA
BRANCH  25  26
HETATM   26  C   UNL     1      42.259 -16.884   3.696  1.00  0.00     0.129 C 
HETATM   27  C   UNL     1      43.347 -17.349   2.729  1.00  0.00     0.032 C 
HETATM   28  C   UNL     1      44.030 -18.470   3.489  1.00  0.00     0.002 C 
HETATM   29  C   UNL     1      44.129 -17.923   4.904  1.00  0.00     0.002 C 
HETATM   30  C   UNL     1      42.915 -17.012   5.081  1.00  0.00     0.032 C 
ENDBRANCH  25  26
ENDBRANCH  20  25
ENDBRANCH  14  17
BRANCH   1  31
HETATM   31  O   UNL     1      39.885  -6.555  -3.107  1.00  0.00    -0.356 OA
HETATM   32  C   UNL     1      39.537  -6.413  -4.481  1.00  0.00     0.210 C 
ENDBRANCH   1  31
TORSDOF 5
ENDMDL
MODEL 9
REMARK VINA RESULT:      -7.2     18.146     20.177
REMARK  5 active torsions:
REMARK  status: ('A' for Active; 'I' for Inactive)
REMARK    1  A    between atoms: O_2  and  C_3 
REMARK    2  A    between atoms: C_16  and  C_17 
REMARK    3  A    between atoms: C_19  and  O_20 
REMARK    4  A    between atoms: C_22  and  O_23 
REMARK    5  A    between atoms: O_23  and  C_24 
ROOT
HETATM    1  C   UNL     1      43.775 -33.497  -5.243  1.00  0.00     0.069 A 
HETATM    2  C   UNL     1      44.101 -32.134  -5.245  1.00  0.00     0.051 A 
HETATM    3  C   UNL     1      44.495 -31.503  -4.051  1.00  0.00     0.002 A 
HETATM    4  C   UNL     1      44.543 -32.259  -2.879  1.00  0.00     0.043 A 
HETATM    5  N   UNL     1      44.949 -31.427  -1.859  1.00  0.00    -0.356 N 
HETATM    6  H   UNL     1      45.075 -31.731  -0.899  1.00  0.00     0.166 HD
HETATM    7  C   UNL     1      45.200 -30.175  -2.360  1.00  0.00     0.052 A 
HETATM    8  C   UNL     1      44.896 -30.186  -3.708  1.00  0.00    -0.019 A 
HETATM    9  C   UNL     1      45.037 -28.972  -4.563  1.00  0.00     0.069 C 
HETATM   10  C   UNL     1      45.144 -27.710  -3.688  1.00  0.00     0.238 C 
HETATM   11  N   UNL     1      46.110 -27.926  -2.550  1.00  0.00    -0.061 N 
HETATM   12  H   UNL     1      47.023 -28.199  -2.930  1.00  0.00     0.278 HD
HETATM   13  H   UNL     1      46.264 -27.057  -2.028  1.00  0.00     0.278 HD
HETATM   14  C   UNL     1      45.689 -29.001  -1.579  1.00  0.00     0.269 C 
HETATM   15  C   UNL     1      44.216 -33.619  -2.851  1.00  0.00     0.033 A 
HETATM   16  C   UNL     1      43.833 -34.225  -4.055  1.00  0.00     0.039 A 
ENDROOT
BRANCH  14  17
HETATM   17  C   UNL     1      46.830 -29.313  -0.632  1.00  0.00    -0.019 A 
HETATM   18  C   UNL     1      48.139 -29.526  -1.107  1.00  0.00     0.049 A 
HETATM   19  C   UNL     1      49.188 -29.798  -0.222  1.00  0.00     0.102 A 
HETATM   20  C   UNL     1      48.948 -29.834   1.163  1.00  0.00     0.102 A 
HETATM   21  C   UNL     1      47.658 -29.596   1.639  1.00  0.00     0.040 A 
HETATM   22  C   UNL     1      46.607 -29.342   0.752  1.00  0.00     0.012 A 
BRANCH  19  23
HETATM   23  O   UNL     1      50.483 -30.003  -0.626  1.00  0.00    -0.353 OA
HETATM   24  C   UNL     1      50.692 -30.335  -1.994  1.00  0.00     0.210 C 
ENDBRANCH  19  23
BRANCH  20  25
HETATM   25  O   UNL     1      50.035 -30.091   1.953  1.00  0.00    -0.343 OA
BRANCH  25  26
HETATM   26  C   UNL     1      49.890 -30.928   3.095  1.00  0.00     0.129 C 
HETATM   27  C   UNL     1      50.751 -32.189   3.021  1.00  0.00     0.032 C 
HETATM   28  C   UNL     1      50.966 -32.548   4.479  1.00  0.00     0.002 C 
HETATM   29  C   UNL     1      51.233 -31.202   5.134  1.00  0.00     0.002 C 
HETATM   30  C   UNL     1      50.431 -30.183   4.326  1.00  0.00     0.032 C 
ENDBRANCH  25  26
ENDBRANCH  20  25
ENDBRANCH  14  17
BRANCH   1  31
HETATM   31  O   UNL     1      43.419 -33.989  -6.469  1.00  0.00    -0.356 OA
HETATM   32  C   UNL     1      43.981 -33.351  -7.611  1.00  0.00     0.210 C 
ENDBRANCH   1  31
TORSDOF 5
ENDMDL
MODEL 10
REMARK VINA RESULT:      -7.1      1.717      2.656
REMARK  5 active torsions:
REMARK  status: ('A' for Active; 'I' for Inactive)
REMARK    1  A    between atoms: O_2  and  C_3 
REMARK    2  A    between atoms: C_16  and  C_17 
REMARK    3  A    between atoms: C_19  and  O_20 
REMARK    4  A    between atoms: C_22  and  O_23 
REMARK    5  A    between atoms: O_23  and  C_24 
ROOT
HETATM    1  C   UNL     1      42.363 -16.483   4.442  1.00  0.00     0.069 A 
HETATM    2  C   UNL     1      42.501 -15.200   3.895  1.00  0.00     0.051 A 
HETATM    3  C   UNL     1      42.043 -14.078   4.609  1.00  0.00     0.002 A 
HETATM    4  C   UNL     1      41.450 -14.275   5.856  1.00  0.00     0.043 A 
HETATM    5  N   UNL     1      41.088 -13.040   6.349  1.00  0.00    -0.356 N 
HETATM    6  H   UNL     1      40.643 -12.900   7.250  1.00  0.00     0.166 HD
HETATM    7  C   UNL     1      41.475 -12.063   5.467  1.00  0.00     0.052 A 
HETATM    8  C   UNL     1      42.040 -12.680   4.367  1.00  0.00    -0.019 A 
HETATM    9  C   UNL     1      42.554 -11.906   3.200  1.00  0.00     0.069 C 
HETATM   10  C   UNL     1      42.002 -10.468   3.225  1.00  0.00     0.238 C 
HETATM   11  N   UNL     1      42.111  -9.877   4.609  1.00  0.00    -0.061 N 
HETATM   12  H   UNL     1      43.090  -9.909   4.913  1.00  0.00     0.278 HD
HETATM   13  H   UNL     1      41.843  -8.887   4.607  1.00  0.00     0.278 HD
HETATM   14  C   UNL     1      41.292 -10.594   5.653  1.00  0.00     0.269 C 
HETATM   15  C   UNL     1      41.295 -15.545   6.420  1.00  0.00     0.033 A 
HETATM   16  C   UNL     1      41.764 -16.647   5.691  1.00  0.00     0.039 A 
ENDROOT
BRANCH  14  17
HETATM   17  C   UNL     1      41.663 -10.088   7.033  1.00  0.00    -0.019 A 
HETATM   18  C   UNL     1      42.991 -10.137   7.498  1.00  0.00     0.049 A 
HETATM   19  C   UNL     1      43.326  -9.654   8.768  1.00  0.00     0.102 A 
HETATM   20  C   UNL     1      42.334  -9.083   9.585  1.00  0.00     0.102 A 
HETATM   21  C   UNL     1      41.022  -9.007   9.117  1.00  0.00     0.040 A 
HETATM   22  C   UNL     1      40.687  -9.508   7.854  1.00  0.00     0.012 A 
BRANCH  19  23
HETATM   23  O   UNL     1      44.602  -9.666   9.269  1.00  0.00    -0.353 OA
HETATM   24  C   UNL     1      45.579  -8.894   8.580  1.00  0.00     0.210 C 
ENDBRANCH  19  23
BRANCH  20  25
HETATM   25  O   UNL     1      42.754  -8.622  10.803  1.00  0.00    -0.343 OA
BRANCH  25  26
HETATM   26  C   UNL     1      42.892  -7.221  11.014  1.00  0.00     0.129 C 
HETATM   27  C   UNL     1      42.991  -6.431   9.709  1.00  0.00     0.032 C 
HETATM   28  C   UNL     1      42.475  -5.058  10.095  1.00  0.00     0.002 C 
HETATM   29  C   UNL     1      41.275  -5.371  10.975  1.00  0.00     0.002 C 
HETATM   30  C   UNL     1      41.605  -6.691  11.669  1.00  0.00     0.032 C 
ENDBRANCH  25  26
ENDBRANCH  20  25
ENDBRANCH  14  17
BRANCH   1  31
HETATM   31  O   UNL     1      42.856 -17.485   3.651  1.00  0.00    -0.356 OA
HETATM   32  C   UNL     1      43.992 -18.194   4.136  1.00  0.00     0.210 C 
ENDBRANCH   1  31
TORSDOF 5
ENDMDL
