MODEL 1
REMARK VINA RESULT:      -8.5      0.000      0.000
REMARK  4 active torsions:
REMARK  status: ('A' for Active; 'I' for Inactive)
REMARK    1  A    between atoms: C_9  and  C_10 
REMARK    2  A    between atoms: C_18  and  C_19 
REMARK       I    between atoms: C_19  and  N_20 
REMARK    3  A    between atoms: N_20  and  C_21 
REMARK    4  A    between atoms: C_24  and  O_25 
ROOT
HETATM    1  C   UNL     1      39.824 -14.953  -0.258  1.00  0.00     0.070 C 
HETATM    2  C   UNL     1      39.805 -13.830   0.747  1.00  0.00     0.037 A 
HETATM    3  N   UNL     1      39.326 -12.611   0.274  1.00  0.00    -0.192 N 
HETATM    4  C   UNL     1      39.106 -11.543   1.065  1.00  0.00     0.725 A 
HETATM    5  N   UNL     1      39.439 -11.608   2.391  1.00  0.00    -0.084 N 
HETATM    6  N   UNL     1      39.076 -10.483   3.044  1.00  0.00    -0.149 NA
HETATM    7  C   UNL     1      38.577  -9.763   2.033  1.00  0.00     0.275 A 
HETATM    8  N   UNL     1      38.574 -10.376   0.806  1.00  0.00    -0.054 NA
HETATM    9  C   UNL     1      39.996 -12.801   3.038  1.00  0.00     0.204 A 
HETATM   10  C   UNL     1      40.157 -13.951   2.051  1.00  0.00     0.062 A 
HETATM   11  H   UNL     1      39.026 -12.562  -0.696  1.00  0.00     0.184 HD
ENDROOT
BRANCH  10  12
HETATM   12  C   UNL     1      40.609 -15.218   2.682  1.00  0.00     0.256 C 
HETATM   13  N   UNL     1      41.973 -15.400   2.634  1.00  0.00    -0.323 N 
HETATM   14  H   UNL     1      42.520 -14.677   2.182  1.00  0.00     0.169 HD
HETATM   15  O   UNL     1      39.773 -15.931   3.222  1.00  0.00    -0.267 OA
BRANCH  13  16
HETATM   16  C   UNL     1      42.701 -16.496   3.142  1.00  0.00     0.035 A 
HETATM   17  C   UNL     1      43.253 -16.539   4.422  1.00  0.00     0.032 A 
HETATM   18  C   UNL     1      43.955 -17.671   4.853  1.00  0.00     0.039 A 
HETATM   19  C   UNL     1      44.109 -18.778   4.020  1.00  0.00     0.068 A 
HETATM   20  C   UNL     1      43.563 -18.741   2.739  1.00  0.00     0.039 A 
HETATM   21  C   UNL     1      42.868 -17.605   2.303  1.00  0.00     0.032 A 
BRANCH  19  22
HETATM   22  O   UNL     1      44.809 -19.815   4.571  1.00  0.00    -0.356 OA
HETATM   23  C   UNL     1      44.079 -20.733   5.374  1.00  0.00     0.210 C 
ENDBRANCH  19  22
ENDBRANCH  13  16
ENDBRANCH  10  12
BRANCH   9  24
HETATM   24  C   UNL     1      41.266 -12.465   3.822  1.00  0.00    -0.006 A 
HETATM   25  C   UNL     1      41.454 -12.735   5.190  1.00  0.00     0.044 A 
HETATM   26 CL   UNL     1      40.228 -13.442   6.179  1.00  0.00    -0.084 Cl
HETATM   27  C   UNL     1      42.657 -12.408   5.827  1.00  0.00     0.048 A 
HETATM   28  C   UNL     1      43.680 -11.797   5.110  1.00  0.00     0.035 A 
HETATM   29 CL   UNL     1      45.155 -11.396   5.900  1.00  0.00    -0.084 Cl
HETATM   30  C   UNL     1      43.516 -11.502   3.763  1.00  0.00     0.024 A 
HETATM   31  C   UNL     1      42.318 -11.834   3.124  1.00  0.00     0.013 A 
ENDBRANCH   9  24
TORSDOF 4
ENDMDL
MODEL 2
REMARK VINA RESULT:      -7.9      2.982      6.608
REMARK  4 active torsions:
REMARK  status: ('A' for Active; 'I' for Inactive)
REMARK    1  A    between atoms: C_9  and  C_10 
REMARK    2  A    between atoms: C_18  and  C_19 
REMARK       I    between atoms: C_19  and  N_20 
REMARK    3  A    between atoms: N_20  and  C_21 
REMARK    4  A    between atoms: C_24  and  O_25 
ROOT
HETATM    1  C   UNL     1      42.841 -18.176   2.278  1.00  0.00     0.070 C 
HETATM    2  C   UNL     1      42.942 -17.288   3.492  1.00  0.00     0.037 A 
HETATM    3  N   UNL     1      43.183 -17.944   4.696  1.00  0.00    -0.192 N 
HETATM    4  C   UNL     1      43.443 -17.304   5.852  1.00  0.00     0.725 A 
HETATM    5  N   UNL     1      43.392 -15.936   5.889  1.00  0.00    -0.084 N 
HETATM    6  N   UNL     1      43.758 -15.464   7.100  1.00  0.00    -0.149 NA
HETATM    7  C   UNL     1      43.963 -16.610   7.758  1.00  0.00     0.275 A 
HETATM    8  N   UNL     1      43.784 -17.759   7.030  1.00  0.00    -0.054 NA
HETATM    9  C   UNL     1      43.108 -15.095   4.721  1.00  0.00     0.204 A 
HETATM   10  C   UNL     1      42.875 -15.934   3.470  1.00  0.00     0.062 A 
HETATM   11  H   UNL     1      43.275 -18.957   4.675  1.00  0.00     0.184 HD
ENDROOT
BRANCH  10  12
HETATM   12  C   UNL     1      42.696 -15.124   2.236  1.00  0.00     0.256 C 
HETATM   13  N   UNL     1      41.378 -14.888   1.919  1.00  0.00    -0.323 N 
HETATM   14  H   UNL     1      40.677 -15.280   2.537  1.00  0.00     0.169 HD
HETATM   15  O   UNL     1      43.695 -14.705   1.666  1.00  0.00    -0.267 OA
BRANCH  13  16
HETATM   16  C   UNL     1      40.888 -14.158   0.816  1.00  0.00     0.035 A 
HETATM   17  C   UNL     1      41.186 -12.818   0.574  1.00  0.00     0.032 A 
HETATM   18  C   UNL     1      40.665 -12.169  -0.552  1.00  0.00     0.039 A 
HETATM   19  C   UNL     1      39.848 -12.846  -1.456  1.00  0.00     0.068 A 
HETATM   20  C   UNL     1      39.544 -14.185  -1.218  1.00  0.00     0.039 A 
HETATM   21  C   UNL     1      40.058 -14.833  -0.087  1.00  0.00     0.032 A 
BRANCH  19  22
HETATM   22  O   UNL     1      39.417 -12.094  -2.512  1.00  0.00    -0.356 OA
HETATM   23  C   UNL     1      40.297 -11.085  -2.989  1.00  0.00     0.210 C 
ENDBRANCH  19  22
ENDBRANCH  13  16
ENDBRANCH  10  12
BRANCH   9  24
HETATM   24  C   UNL     1      41.994 -14.091   5.020  1.00  0.00    -0.006 A 
HETATM   25  C   UNL     1      40.728 -14.433   5.533  1.00  0.00     0.044 A 
HETATM   26 CL   UNL     1      40.255 -16.065   5.840  1.00  0.00    -0.084 Cl
HETATM   27  C   UNL     1      39.770 -13.446   5.794  1.00  0.00     0.048 A 
HETATM   28  C   UNL     1      40.057 -12.111   5.534  1.00  0.00     0.035 A 
HETATM   29 CL   UNL     1      38.874 -10.904   5.855  1.00  0.00    -0.084 Cl
HETATM   30  C   UNL     1      41.292 -11.746   5.011  1.00  0.00     0.024 A 
HETATM   31  C   UNL     1      42.252 -12.729   4.757  1.00  0.00     0.013 A 
ENDBRANCH   9  24
TORSDOF 4
ENDMDL
MODEL 3
REMARK VINA RESULT:      -7.8      3.170      5.470
REMARK  4 active torsions:
REMARK  status: ('A' for Active; 'I' for Inactive)
REMARK    1  A    between atoms: C_9  and  C_10 
REMARK    2  A    between atoms: C_18  and  C_19 
REMARK       I    between atoms: C_19  and  N_20 
REMARK    3  A    between atoms: N_20  and  C_21 
REMARK    4  A    between atoms: C_24  and  O_25 
ROOT
HETATM    1  C   UNL     1      39.116 -10.278   2.550  1.00  0.00     0.070 C 
HETATM    2  C   UNL     1      39.586 -11.429   1.698  1.00  0.00     0.037 A 
HETATM    3  N   UNL     1      38.713 -11.825   0.689  1.00  0.00    -0.192 N 
HETATM    4  C   UNL     1      39.028 -12.736  -0.251  1.00  0.00     0.725 A 
HETATM    5  N   UNL     1      40.233 -13.382  -0.185  1.00  0.00    -0.084 N 
HETATM    6  N   UNL     1      40.414 -14.196  -1.247  1.00  0.00    -0.149 NA
HETATM    7  C   UNL     1      39.249 -14.029  -1.884  1.00  0.00     0.275 A 
HETATM    8  N   UNL     1      38.374 -13.143  -1.309  1.00  0.00    -0.054 NA
HETATM    9  C   UNL     1      41.250 -13.116   0.840  1.00  0.00     0.204 A 
HETATM   10  C   UNL     1      40.793 -12.038   1.816  1.00  0.00     0.062 A 
HETATM   11  H   UNL     1      37.835 -11.320   0.595  1.00  0.00     0.184 HD
ENDROOT
BRANCH  10  12
HETATM   12  C   UNL     1      41.833 -11.651   2.804  1.00  0.00     0.256 C 
HETATM   13  N   UNL     1      41.584 -12.116   4.075  1.00  0.00    -0.323 N 
HETATM   14  H   UNL     1      40.739 -12.657   4.212  1.00  0.00     0.169 HD
HETATM   15  O   UNL     1      42.811 -11.030   2.407  1.00  0.00    -0.267 OA
BRANCH  13  16
HETATM   16  C   UNL     1      42.380 -11.915   5.223  1.00  0.00     0.035 A 
HETATM   17  C   UNL     1      42.389 -10.738   5.969  1.00  0.00     0.032 A 
HETATM   18  C   UNL     1      43.203 -10.624   7.103  1.00  0.00     0.039 A 
HETATM   19  C   UNL     1      44.011 -11.682   7.513  1.00  0.00     0.068 A 
HETATM   20  C   UNL     1      44.010 -12.860   6.770  1.00  0.00     0.039 A 
HETATM   21  C   UNL     1      43.202 -12.973   5.630  1.00  0.00     0.032 A 
BRANCH  19  22
HETATM   22  O   UNL     1      44.747 -11.436   8.639  1.00  0.00    -0.356 OA
HETATM   23  C   UNL     1      45.544 -10.259   8.646  1.00  0.00     0.210 C 
ENDBRANCH  19  22
ENDBRANCH  13  16
ENDBRANCH  10  12
BRANCH   9  24
HETATM   24  C   UNL     1      41.715 -14.410   1.508  1.00  0.00    -0.006 A 
HETATM   25  C   UNL     1      40.888 -15.257   2.270  1.00  0.00     0.044 A 
HETATM   26 CL   UNL     1      39.231 -14.897   2.596  1.00  0.00    -0.084 Cl
HETATM   27  C   UNL     1      41.393 -16.435   2.834  1.00  0.00     0.048 A 
HETATM   28  C   UNL     1      42.729 -16.776   2.654  1.00  0.00     0.035 A 
HETATM   29 CL   UNL     1      43.342 -18.224   3.351  1.00  0.00    -0.084 Cl
HETATM   30  C   UNL     1      43.572 -15.950   1.920  1.00  0.00     0.024 A 
HETATM   31  C   UNL     1      43.069 -14.778   1.352  1.00  0.00     0.013 A 
ENDBRANCH   9  24
TORSDOF 4
ENDMDL
MODEL 4
REMARK VINA RESULT:      -7.8      1.356      1.672
REMARK  4 active torsions:
REMARK  status: ('A' for Active; 'I' for Inactive)
REMARK    1  A    between atoms: C_9  and  C_10 
REMARK    2  A    between atoms: C_18  and  C_19 
REMARK       I    between atoms: C_19  and  N_20 
REMARK    3  A    between atoms: N_20  and  C_21 
REMARK    4  A    between atoms: C_24  and  O_25 
ROOT
HETATM    1  C   UNL     1      40.076 -14.151  -0.888  1.00  0.00     0.070 C 
HETATM    2  C   UNL     1      39.730 -13.184   0.215  1.00  0.00     0.037 A 
HETATM    3  N   UNL     1      39.221 -11.957  -0.201  1.00  0.00    -0.192 N 
HETATM    4  C   UNL     1      38.728 -11.032   0.644  1.00  0.00     0.725 A 
HETATM    5  N   UNL     1      38.795 -11.251   1.994  1.00  0.00    -0.084 N 
HETATM    6  N   UNL     1      38.184 -10.264   2.683  1.00  0.00    -0.149 NA
HETATM    7  C   UNL     1      37.820  -9.455   1.681  1.00  0.00     0.275 A 
HETATM    8  N   UNL     1      38.132  -9.889   0.418  1.00  0.00    -0.054 NA
HETATM    9  C   UNL     1      39.342 -12.471   2.600  1.00  0.00     0.204 A 
HETATM   10  C   UNL     1      39.825 -13.454   1.541  1.00  0.00     0.062 A 
HETATM   11  H   UNL     1      39.118 -11.799  -1.200  1.00  0.00     0.184 HD
ENDROOT
BRANCH  10  12
HETATM   12  C   UNL     1      40.282 -14.753   2.100  1.00  0.00     0.256 C 
HETATM   13  N   UNL     1      41.634 -14.800   2.348  1.00  0.00    -0.323 N 
HETATM   14  H   UNL     1      42.174 -13.971   2.129  1.00  0.00     0.169 HD
HETATM   15  O   UNL     1      39.442 -15.612   2.338  1.00  0.00    -0.267 OA
BRANCH  13  16
HETATM   16  C   UNL     1      42.363 -15.888   2.874  1.00  0.00     0.035 A 
HETATM   17  C   UNL     1      42.599 -16.083   4.234  1.00  0.00     0.032 A 
HETATM   18  C   UNL     1      43.326 -17.196   4.675  1.00  0.00     0.039 A 
HETATM   19  C   UNL     1      43.821 -18.132   3.769  1.00  0.00     0.068 A 
HETATM   20  C   UNL     1      43.592 -17.941   2.407  1.00  0.00     0.039 A 
HETATM   21  C   UNL     1      42.872 -16.823   1.965  1.00  0.00     0.032 A 
BRANCH  19  22
HETATM   22  O   UNL     1      44.504 -19.171   4.336  1.00  0.00    -0.356 OA
HETATM   23  C   UNL     1      43.917 -19.786   5.475  1.00  0.00     0.210 C 
ENDBRANCH  19  22
ENDBRANCH  13  16
ENDBRANCH  10  12
BRANCH   9  24
HETATM   24  C   UNL     1      40.382 -12.139   3.670  1.00  0.00    -0.006 A 
HETATM   25  C   UNL     1      41.560 -11.405   3.437  1.00  0.00     0.044 A 
HETATM   26 CL   UNL     1      42.006 -10.828   1.872  1.00  0.00    -0.084 Cl
HETATM   27  C   UNL     1      42.453 -11.131   4.480  1.00  0.00     0.048 A 
HETATM   28  C   UNL     1      42.188 -11.597   5.763  1.00  0.00     0.035 A 
HETATM   29 CL   UNL     1      43.291 -11.259   7.039  1.00  0.00    -0.084 Cl
HETATM   30  C   UNL     1      41.042 -12.339   6.019  1.00  0.00     0.024 A 
HETATM   31  C   UNL     1      40.146 -12.607   4.980  1.00  0.00     0.013 A 
ENDBRANCH   9  24
TORSDOF 4
ENDMDL
MODEL 5
REMARK VINA RESULT:      -7.7      3.033      4.931
REMARK  4 active torsions:
REMARK  status: ('A' for Active; 'I' for Inactive)
REMARK    1  A    between atoms: C_9  and  C_10 
REMARK    2  A    between atoms: C_18  and  C_19 
REMARK       I    between atoms: C_19  and  N_20 
REMARK    3  A    between atoms: N_20  and  C_21 
REMARK    4  A    between atoms: C_24  and  O_25 
ROOT
HETATM    1  C   UNL     1      39.934 -11.487   4.231  1.00  0.00     0.070 C 
HETATM    2  C   UNL     1      40.179 -11.183   2.776  1.00  0.00     0.037 A 
HETATM    3  N   UNL     1      40.094  -9.839   2.421  1.00  0.00    -0.192 N 
HETATM    4  C   UNL     1      40.422  -9.371   1.202  1.00  0.00     0.725 A 
HETATM    5  N   UNL     1      40.780 -10.251   0.217  1.00  0.00    -0.084 N 
HETATM    6  N   UNL     1      41.152  -9.605  -0.908  1.00  0.00    -0.149 NA
HETATM    7  C   UNL     1      40.939  -8.335  -0.543  1.00  0.00     0.275 A 
HETATM    8  N   UNL     1      40.494  -8.148   0.740  1.00  0.00    -0.054 NA
HETATM    9  C   UNL     1      40.876 -11.703   0.411  1.00  0.00     0.204 A 
HETATM   10  C   UNL     1      40.525 -12.102   1.839  1.00  0.00     0.062 A 
HETATM   11  H   UNL     1      39.879  -9.168   3.153  1.00  0.00     0.184 HD
ENDROOT
BRANCH  10  12
HETATM   12  C   UNL     1      40.718 -13.549   2.117  1.00  0.00     0.256 C 
HETATM   13  N   UNL     1      42.029 -13.891   2.361  1.00  0.00    -0.323 N 
HETATM   14  H   UNL     1      42.716 -13.147   2.324  1.00  0.00     0.169 HD
HETATM   15  O   UNL     1      39.729 -14.270   2.163  1.00  0.00    -0.267 OA
BRANCH  13  16
HETATM   16  C   UNL     1      42.529 -15.178   2.653  1.00  0.00     0.035 A 
HETATM   17  C   UNL     1      42.834 -16.133   1.685  1.00  0.00     0.032 A 
HETATM   18  C   UNL     1      43.336 -17.386   2.060  1.00  0.00     0.039 A 
HETATM   19  C   UNL     1      43.549 -17.700   3.401  1.00  0.00     0.068 A 
HETATM   20  C   UNL     1      43.243 -16.750   4.373  1.00  0.00     0.039 A 
HETATM   21  C   UNL     1      42.732 -15.500   4.000  1.00  0.00     0.032 A 
BRANCH  19  22
HETATM   22  O   UNL     1      44.050 -18.952   3.622  1.00  0.00    -0.356 OA
HETATM   23  C   UNL     1      43.700 -19.963   2.686  1.00  0.00     0.210 C 
ENDBRANCH  19  22
ENDBRANCH  13  16
ENDBRANCH  10  12
BRANCH   9  24
HETATM   24  C   UNL     1      40.092 -12.458  -0.663  1.00  0.00    -0.006 A 
HETATM   25  C   UNL     1      38.695 -12.394  -0.823  1.00  0.00     0.044 A 
HETATM   26 CL   UNL     1      37.675 -11.481   0.229  1.00  0.00    -0.084 Cl
HETATM   27  C   UNL     1      38.058 -13.106  -1.847  1.00  0.00     0.048 A 
HETATM   28  C   UNL     1      38.804 -13.900  -2.711  1.00  0.00     0.035 A 
HETATM   29 CL   UNL     1      38.013 -14.774  -3.964  1.00  0.00    -0.084 Cl
HETATM   30  C   UNL     1      40.182 -13.995  -2.565  1.00  0.00     0.024 A 
HETATM   31  C   UNL     1      40.820 -13.279  -1.549  1.00  0.00     0.013 A 
ENDBRANCH   9  24
TORSDOF 4
ENDMDL
MODEL 6
REMARK VINA RESULT:      -7.6      3.115      7.643
REMARK  4 active torsions:
REMARK  status: ('A' for Active; 'I' for Inactive)
REMARK    1  A    between atoms: C_9  and  C_10 
REMARK    2  A    between atoms: C_18  and  C_19 
REMARK       I    between atoms: C_19  and  N_20 
REMARK    3  A    between atoms: N_20  and  C_21 
REMARK    4  A    between atoms: C_24  and  O_25 
ROOT
HETATM    1  C   UNL     1      43.421 -14.713   7.080  1.00  0.00     0.070 C 
HETATM    2  C   UNL     1      43.127 -15.515   5.838  1.00  0.00     0.037 A 
HETATM    3  N   UNL     1      44.099 -16.445   5.481  1.00  0.00    -0.192 N 
HETATM    4  C   UNL     1      43.940 -17.342   4.489  1.00  0.00     0.725 A 
HETATM    5  N   UNL     1      42.806 -17.304   3.724  1.00  0.00    -0.084 N 
HETATM    6  N   UNL     1      42.777 -18.321   2.836  1.00  0.00    -0.149 NA
HETATM    7  C   UNL     1      43.957 -18.899   3.089  1.00  0.00     0.275 A 
HETATM    8  N   UNL     1      44.698 -18.333   4.095  1.00  0.00    -0.054 NA
HETATM    9  C   UNL     1      41.704 -16.358   3.938  1.00  0.00     0.204 A 
HETATM   10  C   UNL     1      41.984 -15.428   5.112  1.00  0.00     0.062 A 
HETATM   11  H   UNL     1      44.924 -16.520   6.070  1.00  0.00     0.184 HD
ENDROOT
BRANCH  10  12
HETATM   12  C   UNL     1      40.849 -14.528   5.442  1.00  0.00     0.256 C 
HETATM   13  N   UNL     1      41.025 -13.236   5.000  1.00  0.00    -0.323 N 
HETATM   14  H   UNL     1      41.888 -13.028   4.511  1.00  0.00     0.169 HD
HETATM   15  O   UNL     1      39.870 -15.006   6.001  1.00  0.00    -0.267 OA
BRANCH  13  16
HETATM   16  C   UNL     1      40.132 -12.156   5.159  1.00  0.00     0.035 A 
HETATM   17  C   UNL     1      39.717 -11.663   6.395  1.00  0.00     0.032 A 
HETATM   18  C   UNL     1      38.833 -10.579   6.466  1.00  0.00     0.039 A 
HETATM   19  C   UNL     1      38.357  -9.966   5.308  1.00  0.00     0.068 A 
HETATM   20  C   UNL     1      38.765 -10.457   4.069  1.00  0.00     0.039 A 
HETATM   21  C   UNL     1      39.643 -11.547   3.997  1.00  0.00     0.032 A 
BRANCH  19  22
HETATM   22  O   UNL     1      37.509  -8.917   5.523  1.00  0.00    -0.356 OA
HETATM   23  C   UNL     1      37.523  -7.868   4.564  1.00  0.00     0.210 C 
ENDBRANCH  19  22
ENDBRANCH  13  16
ENDBRANCH  10  12
BRANCH   9  24
HETATM   24  C   UNL     1      41.333 -15.637   2.641  1.00  0.00    -0.006 A 
HETATM   25  C   UNL     1      42.107 -14.627   2.040  1.00  0.00     0.044 A 
HETATM   26 CL   UNL     1      43.569 -14.031   2.739  1.00  0.00    -0.084 Cl
HETATM   27  C   UNL     1      41.701 -14.030   0.840  1.00  0.00     0.048 A 
HETATM   28  C   UNL     1      40.513 -14.424   0.234  1.00  0.00     0.035 A 
HETATM   29 CL   UNL     1      40.019 -13.685  -1.238  1.00  0.00    -0.084 Cl
HETATM   30  C   UNL     1      39.720 -15.407   0.814  1.00  0.00     0.024 A 
HETATM   31  C   UNL     1      40.128 -16.008   2.008  1.00  0.00     0.013 A 
ENDBRANCH   9  24
TORSDOF 4
ENDMDL
MODEL 7
REMARK VINA RESULT:      -7.6      3.689      5.098
REMARK  4 active torsions:
REMARK  status: ('A' for Active; 'I' for Inactive)
REMARK    1  A    between atoms: C_9  and  C_10 
REMARK    2  A    between atoms: C_18  and  C_19 
REMARK       I    between atoms: C_19  and  N_20 
REMARK    3  A    between atoms: N_20  and  C_21 
REMARK    4  A    between atoms: C_24  and  O_25 
ROOT
HETATM    1  C   UNL     1      37.980 -14.792  -3.410  1.00  0.00     0.070 C 
HETATM    2  C   UNL     1      37.883 -13.407  -2.822  1.00  0.00     0.037 A 
HETATM    3  N   UNL     1      36.822 -12.633  -3.283  1.00  0.00    -0.192 N 
HETATM    4  C   UNL     1      36.499 -11.432  -2.765  1.00  0.00     0.725 A 
HETATM    5  N   UNL     1      37.290 -10.885  -1.791  1.00  0.00    -0.084 N 
HETATM    6  N   UNL     1      36.775  -9.724  -1.334  1.00  0.00    -0.149 NA
HETATM    7  C   UNL     1      35.699  -9.607  -2.121  1.00  0.00     0.275 A 
HETATM    8  N   UNL     1      35.492 -10.632  -3.008  1.00  0.00    -0.054 NA
HETATM    9  C   UNL     1      38.471 -11.549  -1.226  1.00  0.00     0.204 A 
HETATM   10  C   UNL     1      38.704 -12.914  -1.861  1.00  0.00     0.062 A 
HETATM   11  H   UNL     1      36.195 -13.045  -3.969  1.00  0.00     0.184 HD
ENDROOT
BRANCH  10  12
HETATM   12  C   UNL     1      39.820 -13.676  -1.242  1.00  0.00     0.256 C 
HETATM   13  N   UNL     1      39.646 -13.910   0.103  1.00  0.00    -0.323 N 
HETATM   14  H   UNL     1      38.802 -13.547   0.530  1.00  0.00     0.169 HD
HETATM   15  O   UNL     1      40.730 -14.065  -1.963  1.00  0.00    -0.267 OA
BRANCH  13  16
HETATM   16  C   UNL     1      40.525 -14.599   0.965  1.00  0.00     0.035 A 
HETATM   17  C   UNL     1      40.248 -15.844   1.527  1.00  0.00     0.032 A 
HETATM   18  C   UNL     1      41.181 -16.465   2.367  1.00  0.00     0.039 A 
HETATM   19  C   UNL     1      42.404 -15.861   2.651  1.00  0.00     0.068 A 
HETATM   20  C   UNL     1      42.686 -14.614   2.095  1.00  0.00     0.039 A 
HETATM   21  C   UNL     1      41.750 -13.988   1.261  1.00  0.00     0.032 A 
BRANCH  19  22
HETATM   22  O   UNL     1      43.220 -16.581   3.477  1.00  0.00    -0.356 OA
HETATM   23  C   UNL     1      43.447 -17.942   3.136  1.00  0.00     0.210 C 
ENDBRANCH  19  22
ENDBRANCH  13  16
ENDBRANCH  10  12
BRANCH   9  24
HETATM   24  C   UNL     1      39.691 -10.627  -1.254  1.00  0.00    -0.006 A 
HETATM   25  C   UNL     1      40.417 -10.230  -0.116  1.00  0.00     0.044 A 
HETATM   26 CL   UNL     1      39.975 -10.701   1.485  1.00  0.00    -0.084 Cl
HETATM   27  C   UNL     1      41.535  -9.396  -0.234  1.00  0.00     0.048 A 
HETATM   28  C   UNL     1      41.933  -8.937  -1.485  1.00  0.00     0.035 A 
HETATM   29 CL   UNL     1      43.306  -7.910  -1.622  1.00  0.00    -0.084 Cl
HETATM   30  C   UNL     1      41.224  -9.299  -2.624  1.00  0.00     0.024 A 
HETATM   31  C   UNL     1      40.113 -10.138  -2.509  1.00  0.00     0.013 A 
ENDBRANCH   9  24
TORSDOF 4
ENDMDL
MODEL 8
REMARK VINA RESULT:      -7.3     16.006     17.880
REMARK  4 active torsions:
REMARK  status: ('A' for Active; 'I' for Inactive)
REMARK    1  A    between atoms: C_9  and  C_10 
REMARK    2  A    between atoms: C_18  and  C_19 
REMARK       I    between atoms: C_19  and  N_20 
REMARK    3  A    between atoms: N_20  and  C_21 
REMARK    4  A    between atoms: C_24  and  O_25 
ROOT
HETATM    1  C   UNL     1      46.683 -30.887   4.139  1.00  0.00     0.070 C 
HETATM    2  C   UNL     1      45.520 -30.560   3.239  1.00  0.00     0.037 A 
HETATM    3  N   UNL     1      44.259 -30.822   3.769  1.00  0.00    -0.192 N 
HETATM    4  C   UNL     1      43.110 -30.462   3.166  1.00  0.00     0.725 A 
HETATM    5  N   UNL     1      43.155 -29.880   1.927  1.00  0.00    -0.084 N 
HETATM    6  N   UNL     1      41.923 -29.513   1.513  1.00  0.00    -0.149 NA
HETATM    7  C   UNL     1      41.180 -29.956   2.533  1.00  0.00     0.275 A 
HETATM    8  N   UNL     1      41.867 -30.540   3.566  1.00  0.00    -0.054 NA
HETATM    9  C   UNL     1      44.398 -29.575   1.209  1.00  0.00     0.204 A 
HETATM   10  C   UNL     1      45.625 -29.990   2.012  1.00  0.00     0.062 A 
HETATM   11  H   UNL     1      44.210 -31.206   4.709  1.00  0.00     0.184 HD
ENDROOT
BRANCH  10  12
HETATM   12  C   UNL     1      46.910 -29.598   1.378  1.00  0.00     0.256 C 
HETATM   13  N   UNL     1      47.475 -30.596   0.617  1.00  0.00    -0.323 N 
HETATM   14  H   UNL     1      46.977 -31.477   0.566  1.00  0.00     0.169 HD
HETATM   15  O   UNL     1      47.310 -28.451   1.533  1.00  0.00    -0.267 OA
BRANCH  13  16
HETATM   16  C   UNL     1      48.686 -30.531  -0.104  1.00  0.00     0.035 A 
HETATM   17  C   UNL     1      49.919 -30.933   0.405  1.00  0.00     0.032 A 
HETATM   18  C   UNL     1      51.074 -30.844  -0.381  1.00  0.00     0.039 A 
HETATM   19  C   UNL     1      51.015 -30.362  -1.688  1.00  0.00     0.068 A 
HETATM   20  C   UNL     1      49.786 -29.955  -2.202  1.00  0.00     0.039 A 
HETATM   21  C   UNL     1      48.631 -30.036  -1.413  1.00  0.00     0.032 A 
BRANCH  19  22
HETATM   22  O   UNL     1      52.215 -30.336  -2.343  1.00  0.00    -0.356 OA
HETATM   23  C   UNL     1      52.633 -31.541  -2.971  1.00  0.00     0.210 C 
ENDBRANCH  19  22
ENDBRANCH  13  16
ENDBRANCH  10  12
BRANCH   9  24
HETATM   24  C   UNL     1      44.364 -30.129  -0.216  1.00  0.00    -0.006 A 
HETATM   25  C   UNL     1      44.670 -29.383  -1.369  1.00  0.00     0.044 A 
HETATM   26 CL   UNL     1      45.074 -27.705  -1.316  1.00  0.00    -0.084 Cl
HETATM   27  C   UNL     1      44.631 -29.975  -2.638  1.00  0.00     0.048 A 
HETATM   28  C   UNL     1      44.273 -31.312  -2.771  1.00  0.00     0.035 A 
HETATM   29 CL   UNL     1      44.224 -32.031  -4.333  1.00  0.00    -0.084 Cl
HETATM   30  C   UNL     1      43.949 -32.068  -1.651  1.00  0.00     0.024 A 
HETATM   31  C   UNL     1      43.995 -31.481  -0.384  1.00  0.00     0.013 A 
ENDBRANCH   9  24
TORSDOF 4
ENDMDL
MODEL 9
REMARK VINA RESULT:      -7.3     16.397     17.919
REMARK  4 active torsions:
REMARK  status: ('A' for Active; 'I' for Inactive)
REMARK    1  A    between atoms: C_9  and  C_10 
REMARK    2  A    between atoms: C_18  and  C_19 
REMARK       I    between atoms: C_19  and  N_20 
REMARK    3  A    between atoms: N_20  and  C_21 
REMARK    4  A    between atoms: C_24  and  O_25 
ROOT
HETATM    1  C   UNL     1      44.157 -29.527   1.801  1.00  0.00     0.070 C 
HETATM    2  C   UNL     1      44.801 -29.456   0.440  1.00  0.00     0.037 A 
HETATM    3  N   UNL     1      43.930 -29.551  -0.641  1.00  0.00    -0.192 N 
HETATM    4  C   UNL     1      44.310 -29.366  -1.920  1.00  0.00     0.725 A 
HETATM    5  N   UNL     1      45.632 -29.154  -2.204  1.00  0.00    -0.084 N 
HETATM    6  N   UNL     1      45.819 -28.909  -3.519  1.00  0.00    -0.149 NA
HETATM    7  C   UNL     1      44.568 -29.044  -3.973  1.00  0.00     0.275 A 
HETATM    8  N   UNL     1      43.614 -29.321  -3.027  1.00  0.00    -0.054 NA
HETATM    9  C   UNL     1      46.686 -29.071  -1.186  1.00  0.00     0.204 A 
HETATM   10  C   UNL     1      46.124 -29.253   0.218  1.00  0.00     0.062 A 
HETATM   11  H   UNL     1      42.938 -29.657  -0.444  1.00  0.00     0.184 HD
ENDROOT
BRANCH  10  12
HETATM   12  C   UNL     1      47.134 -29.062   1.292  1.00  0.00     0.256 C 
HETATM   13  N   UNL     1      47.765 -30.227   1.665  1.00  0.00    -0.323 N 
HETATM   14  H   UNL     1      47.487 -31.077   1.190  1.00  0.00     0.169 HD
HETATM   15  O   UNL     1      47.350 -27.926   1.693  1.00  0.00    -0.267 OA
BRANCH  13  16
HETATM   16  C   UNL     1      48.764 -30.372   2.651  1.00  0.00     0.035 A 
HETATM   17  C   UNL     1      48.510 -30.750   3.969  1.00  0.00     0.032 A 
HETATM   18  C   UNL     1      49.561 -30.879   4.884  1.00  0.00     0.039 A 
HETATM   19  C   UNL     1      50.879 -30.643   4.499  1.00  0.00     0.068 A 
HETATM   20  C   UNL     1      51.140 -30.261   3.185  1.00  0.00     0.039 A 
HETATM   21  C   UNL     1      50.088 -30.123   2.270  1.00  0.00     0.032 A 
BRANCH  19  22
HETATM   22  O   UNL     1      51.804 -30.814   5.491  1.00  0.00    -0.356 OA
HETATM   23  C   UNL     1      51.765 -32.042   6.206  1.00  0.00     0.210 C 
ENDBRANCH  19  22
ENDBRANCH  13  16
ENDBRANCH  10  12
BRANCH   9  24
HETATM   24  C   UNL     1      47.853 -30.001  -1.520  1.00  0.00    -0.006 A 
HETATM   25  C   UNL     1      47.746 -31.397  -1.659  1.00  0.00     0.044 A 
HETATM   26 CL   UNL     1      46.265 -32.250  -1.407  1.00  0.00    -0.084 Cl
HETATM   27  C   UNL     1      48.865 -32.174  -1.984  1.00  0.00     0.048 A 
HETATM   28  C   UNL     1      50.104 -31.569  -2.161  1.00  0.00     0.035 A 
HETATM   29 CL   UNL     1      51.475 -32.530  -2.558  1.00  0.00    -0.084 Cl
HETATM   30  C   UNL     1      50.243 -30.194  -2.014  1.00  0.00     0.024 A 
HETATM   31  C   UNL     1      49.126 -29.417  -1.697  1.00  0.00     0.013 A 
ENDBRANCH   9  24
TORSDOF 4
ENDMDL
MODEL 10
REMARK VINA RESULT:      -7.1     16.462     18.096
REMARK  4 active torsions:
REMARK  status: ('A' for Active; 'I' for Inactive)
REMARK    1  A    between atoms: C_9  and  C_10 
REMARK    2  A    between atoms: C_18  and  C_19 
REMARK       I    between atoms: C_19  and  N_20 
REMARK    3  A    between atoms: N_20  and  C_21 
REMARK    4  A    between atoms: C_24  and  O_25 
ROOT
HETATM    1  C   UNL     1      48.780 -28.965   3.814  1.00  0.00     0.070 C 
HETATM    2  C   UNL     1      48.825 -29.555   2.427  1.00  0.00     0.037 A 
HETATM    3  N   UNL     1      50.098 -29.824   1.931  1.00  0.00    -0.192 N 
HETATM    4  C   UNL     1      50.321 -30.479   0.776  1.00  0.00     0.725 A 
HETATM    5  N   UNL     1      49.259 -30.837  -0.010  1.00  0.00    -0.084 N 
HETATM    6  N   UNL     1      49.661 -31.553  -1.083  1.00  0.00    -0.149 NA
HETATM    7  C   UNL     1      50.987 -31.539  -0.903  1.00  0.00     0.275 A 
HETATM    8  N   UNL     1      51.432 -30.895   0.223  1.00  0.00    -0.054 NA
HETATM    9  C   UNL     1      47.857 -30.589   0.344  1.00  0.00     0.204 A 
HETATM   10  C   UNL     1      47.735 -29.883   1.689  1.00  0.00     0.062 A 
HETATM   11  H   UNL     1      50.894 -29.611   2.525  1.00  0.00     0.184 HD
ENDROOT
BRANCH  10  12
HETATM   12  C   UNL     1      46.332 -29.712   2.146  1.00  0.00     0.256 C 
HETATM   13  N   UNL     1      45.624 -30.891   2.201  1.00  0.00    -0.323 N 
HETATM   14  H   UNL     1      46.112 -31.737   1.929  1.00  0.00     0.169 HD
HETATM   15  O   UNL     1      45.959 -28.593   2.478  1.00  0.00    -0.267 OA
BRANCH  13  16
HETATM   16  C   UNL     1      44.279 -31.056   2.593  1.00  0.00     0.035 A 
HETATM   17  C   UNL     1      43.882 -31.644   3.792  1.00  0.00     0.032 A 
HETATM   18  C   UNL     1      42.524 -31.761   4.109  1.00  0.00     0.039 A 
HETATM   19  C   UNL     1      41.542 -31.287   3.241  1.00  0.00     0.068 A 
HETATM   20  C   UNL     1      41.931 -30.700   2.038  1.00  0.00     0.039 A 
HETATM   21  C   UNL     1      43.291 -30.590   1.716  1.00  0.00     0.032 A 
BRANCH  19  22
HETATM   22  O   UNL     1      40.259 -31.459   3.679  1.00  0.00    -0.356 OA
HETATM   23  C   UNL     1      40.068 -31.599   5.081  1.00  0.00     0.210 C 
ENDBRANCH  19  22
ENDBRANCH  13  16
ENDBRANCH  10  12
BRANCH   9  24
HETATM   24  C   UNL     1      47.112 -29.897  -0.798  1.00  0.00    -0.006 A 
HETATM   25  C   UNL     1      46.009 -30.445  -1.480  1.00  0.00     0.044 A 
HETATM   26 CL   UNL     1      45.391 -32.021  -1.138  1.00  0.00    -0.084 Cl
HETATM   27  C   UNL     1      45.373 -29.735  -2.504  1.00  0.00     0.048 A 
HETATM   28  C   UNL     1      45.837 -28.475  -2.869  1.00  0.00     0.035 A 
HETATM   29 CL   UNL     1      45.052 -27.609  -4.131  1.00  0.00    -0.084 Cl
HETATM   30  C   UNL     1      46.934 -27.917  -2.225  1.00  0.00     0.024 A 
HETATM   31  C   UNL     1      47.565 -28.622  -1.198  1.00  0.00     0.013 A 
ENDBRANCH   9  24
TORSDOF 4
ENDMDL
