MODEL 1
REMARK VINA RESULT:      -8.9      0.000      0.000
REMARK  8 active torsions:
REMARK  status: ('A' for Active; 'I' for Inactive)
REMARK    1  A    between atoms: C_2  and  C_3 
REMARK    2  A    between atoms: C_3  and  C_4 
REMARK    3  A    between atoms: C_7  and  N_8 
REMARK       I    between atoms: N_8  and  C_9 
REMARK    4  A    between atoms: C_9  and  C_10 
REMARK    5  A    between atoms: C_13  and  N_14 
REMARK       I    between atoms: N_14  and  C_15 
REMARK    6  A    between atoms: C_15  and  C_16 
REMARK    7  A    between atoms: C_16  and  C_17 
REMARK    8  A    between atoms: C_19  and  N_20 
ROOT
HETATM    1  C   UNL     1      44.244 -10.756   8.425  1.00  0.00     0.032 A 
HETATM    2  C   UNL     1      45.196 -10.500   9.417  1.00  0.00     0.019 A 
HETATM    3  C   UNL     1      44.934  -9.565  10.429  1.00  0.00     0.030 A 
HETATM    4  C   UNL     1      43.714  -8.886  10.481  1.00  0.00     0.034 A 
HETATM    5  C   UNL     1      42.750  -9.165   9.506  1.00  0.00     0.030 A 
HETATM    6  C   UNL     1      43.013 -10.089   8.486  1.00  0.00     0.019 A 
ENDROOT
BRANCH   4   7
HETATM    7  N   UNL     1      43.377  -7.939  11.473  1.00  0.00    -0.327 N 
HETATM    8  C   UNL     1      42.897  -8.198  12.746  1.00  0.00     0.223 C 
HETATM    9  O   UNL     1      42.687  -9.308  13.224  1.00  0.00    -0.273 OA
HETATM   10  H   UNL     1      43.548  -6.970  11.233  1.00  0.00     0.169 HD
BRANCH   8  11
HETATM   11  C   UNL     1      42.587  -6.929  13.523  1.00  0.00     0.128 C 
BRANCH  11  12
HETATM   12  C   UNL     1      41.381  -7.131  14.431  1.00  0.00     0.158 C 
HETATM   13  S   UNL     1      41.864  -7.450  16.157  1.00  0.00    -0.077 SA
HETATM   14  C   UNL     1      40.519  -6.464  16.712  1.00  0.00     0.168 C 
HETATM   15  N   UNL     1      39.938  -5.751  15.803  1.00  0.00    -0.189 NA
HETATM   16  C   UNL     1      40.504  -5.899  14.556  1.00  0.00     0.260 C 
HETATM   17  O   UNL     1      40.278  -5.145  13.618  1.00  0.00    -0.270 OA
BRANCH  14  18
HETATM   18  N   UNL     1      40.125  -6.547  18.028  1.00  0.00    -0.360 N 
HETATM   19  C   UNL     1      39.711  -7.798  18.669  1.00  0.00     0.125 C 
HETATM   20  C   UNL     1      40.870  -8.354  19.502  1.00  0.00     0.020 C 
HETATM   21  C   UNL     1      41.374  -7.322  20.511  1.00  0.00     0.003 C 
HETATM   22  C   UNL     1      41.716  -6.004  19.819  1.00  0.00     0.020 C 
HETATM   23  C   UNL     1      40.541  -5.511  18.979  1.00  0.00     0.125 C 
ENDBRANCH  14  18
ENDBRANCH  11  12
ENDBRANCH   8  11
ENDBRANCH   4   7
BRANCH   1  24
HETATM   24  C   UNL     1      44.464 -11.738   7.316  1.00  0.00     0.256 C 
HETATM   25  N   UNL     1      43.456 -12.668   7.124  1.00  0.00    -0.323 N 
HETATM   26  H   UNL     1      42.687 -12.665   7.779  1.00  0.00     0.169 HD
HETATM   27  O   UNL     1      45.513 -11.665   6.686  1.00  0.00    -0.267 OA
BRANCH  25  28
HETATM   28  C   UNL     1      43.405 -13.692   6.152  1.00  0.00     0.035 A 
HETATM   29  C   UNL     1      43.749 -15.020   6.392  1.00  0.00     0.030 A 
HETATM   30  C   UNL     1      43.654 -15.979   5.374  1.00  0.00     0.010 A 
HETATM   31  C   UNL     1      43.207 -15.631   4.093  1.00  0.00    -0.054 A 
HETATM   32  C   UNL     1      42.885 -14.289   3.850  1.00  0.00     0.010 A 
HETATM   33  C   UNL     1      42.979 -13.332   4.868  1.00  0.00     0.030 A 
BRANCH  31  34
HETATM   34  C   UNL     1      43.090 -16.648   2.966  1.00  0.00     0.014 C 
HETATM   35  C   UNL     1      41.662 -16.747   2.416  1.00  0.00     0.015 C 
BRANCH  34  36
HETATM   36  C   UNL     1      43.640 -18.011   3.428  1.00  0.00     0.004 C 
HETATM   37  C   UNL     1      43.390 -19.134   2.430  1.00  0.00     0.006 C 
ENDBRANCH  34  36
ENDBRANCH  31  34
ENDBRANCH  25  28
ENDBRANCH   1  24
TORSDOF 8
ENDMDL
MODEL 2
REMARK VINA RESULT:      -8.7      1.298      1.893
REMARK  8 active torsions:
REMARK  status: ('A' for Active; 'I' for Inactive)
REMARK    1  A    between atoms: C_2  and  C_3 
REMARK    2  A    between atoms: C_3  and  C_4 
REMARK    3  A    between atoms: C_7  and  N_8 
REMARK       I    between atoms: N_8  and  C_9 
REMARK    4  A    between atoms: C_9  and  C_10 
REMARK    5  A    between atoms: C_13  and  N_14 
REMARK       I    between atoms: N_14  and  C_15 
REMARK    6  A    between atoms: C_15  and  C_16 
REMARK    7  A    between atoms: C_16  and  C_17 
REMARK    8  A    between atoms: C_19  and  N_20 
ROOT
HETATM    1  C   UNL     1      44.361 -10.858   8.289  1.00  0.00     0.032 A 
HETATM    2  C   UNL     1      45.430 -10.594   9.150  1.00  0.00     0.019 A 
HETATM    3  C   UNL     1      45.267  -9.727  10.240  1.00  0.00     0.030 A 
HETATM    4  C   UNL     1      44.033  -9.125  10.500  1.00  0.00     0.034 A 
HETATM    5  C   UNL     1      42.956  -9.414   9.655  1.00  0.00     0.030 A 
HETATM    6  C   UNL     1      43.118 -10.270   8.558  1.00  0.00     0.019 A 
ENDROOT
BRANCH   4   7
HETATM    7  N   UNL     1      43.793  -8.248  11.582  1.00  0.00    -0.327 N 
HETATM    8  C   UNL     1      43.119  -8.537  12.756  1.00  0.00     0.223 C 
HETATM    9  O   UNL     1      42.618  -9.617  13.052  1.00  0.00    -0.273 OA
HETATM   10  H   UNL     1      44.196  -7.323  11.497  1.00  0.00     0.169 HD
BRANCH   8  11
HETATM   11  C   UNL     1      42.999  -7.331  13.673  1.00  0.00     0.128 C 
BRANCH  11  12
HETATM   12  C   UNL     1      41.584  -7.206  14.223  1.00  0.00     0.158 C 
HETATM   13  S   UNL     1      41.567  -6.672  15.964  1.00  0.00    -0.077 SA
HETATM   14  C   UNL     1      40.166  -5.663  15.636  1.00  0.00     0.168 C 
HETATM   15  N   UNL     1      39.885  -5.489  14.386  1.00  0.00    -0.189 NA
HETATM   16  C   UNL     1      40.760  -6.132  13.539  1.00  0.00     0.260 C 
HETATM   17  O   UNL     1      40.831  -5.902  12.338  1.00  0.00    -0.270 OA
BRANCH  14  18
HETATM   18  N   UNL     1      39.427  -5.179  16.692  1.00  0.00    -0.360 N 
HETATM   19  C   UNL     1      39.969  -4.997  18.041  1.00  0.00     0.125 C 
HETATM   20  C   UNL     1      40.315  -3.522  18.258  1.00  0.00     0.020 C 
HETATM   21  C   UNL     1      39.109  -2.622  17.990  1.00  0.00     0.003 C 
HETATM   22  C   UNL     1      38.518  -2.899  16.608  1.00  0.00     0.020 C 
HETATM   23  C   UNL     1      38.221  -4.385  16.432  1.00  0.00     0.125 C 
ENDBRANCH  14  18
ENDBRANCH  11  12
ENDBRANCH   8  11
ENDBRANCH   4   7
BRANCH   1  24
HETATM   24  C   UNL     1      44.470 -11.771   7.106  1.00  0.00     0.256 C 
HETATM   25  N   UNL     1      43.570 -12.822   7.069  1.00  0.00    -0.323 N 
HETATM   26  H   UNL     1      42.957 -12.941   7.862  1.00  0.00     0.169 HD
HETATM   27  O   UNL     1      45.351 -11.540   6.285  1.00  0.00    -0.267 OA
BRANCH  25  28
HETATM   28  C   UNL     1      43.450 -13.816   6.072  1.00  0.00     0.035 A 
HETATM   29  C   UNL     1      43.754 -15.162   6.265  1.00  0.00     0.030 A 
HETATM   30  C   UNL     1      43.591 -16.088   5.225  1.00  0.00     0.010 A 
HETATM   31  C   UNL     1      43.115 -15.690   3.970  1.00  0.00    -0.054 A 
HETATM   32  C   UNL     1      42.834 -14.331   3.773  1.00  0.00     0.010 A 
HETATM   33  C   UNL     1      42.996 -13.407   4.813  1.00  0.00     0.030 A 
BRANCH  31  34
HETATM   34  C   UNL     1      42.925 -16.670   2.821  1.00  0.00     0.014 C 
HETATM   35  C   UNL     1      41.468 -16.735   2.345  1.00  0.00     0.015 C 
BRANCH  34  36
HETATM   36  C   UNL     1      43.479 -18.053   3.212  1.00  0.00     0.004 C 
HETATM   37  C   UNL     1      43.148 -19.145   2.204  1.00  0.00     0.006 C 
ENDBRANCH  34  36
ENDBRANCH  31  34
ENDBRANCH  25  28
ENDBRANCH   1  24
TORSDOF 8
ENDMDL
MODEL 3
REMARK VINA RESULT:      -8.4      4.482     13.280
REMARK  8 active torsions:
REMARK  status: ('A' for Active; 'I' for Inactive)
REMARK    1  A    between atoms: C_2  and  C_3 
REMARK    2  A    between atoms: C_3  and  C_4 
REMARK    3  A    between atoms: C_7  and  N_8 
REMARK       I    between atoms: N_8  and  C_9 
REMARK    4  A    between atoms: C_9  and  C_10 
REMARK    5  A    between atoms: C_13  and  N_14 
REMARK       I    between atoms: N_14  and  C_15 
REMARK    6  A    between atoms: C_15  and  C_16 
REMARK    7  A    between atoms: C_16  and  C_17 
REMARK    8  A    between atoms: C_19  and  N_20 
ROOT
HETATM    1  C   UNL     1      43.408 -10.998   7.037  1.00  0.00     0.032 A 
HETATM    2  C   UNL     1      43.805 -12.305   6.737  1.00  0.00     0.019 A 
HETATM    3  C   UNL     1      43.481 -12.879   5.500  1.00  0.00     0.030 A 
HETATM    4  C   UNL     1      42.775 -12.156   4.535  1.00  0.00     0.034 A 
HETATM    5  C   UNL     1      42.406 -10.838   4.824  1.00  0.00     0.030 A 
HETATM    6  C   UNL     1      42.716 -10.264   6.064  1.00  0.00     0.019 A 
ENDROOT
BRANCH   4   7
HETATM    7  N   UNL     1      42.421 -12.665   3.266  1.00  0.00    -0.327 N 
HETATM    8  C   UNL     1      41.193 -13.178   2.885  1.00  0.00     0.223 C 
HETATM    9  O   UNL     1      40.199 -13.270   3.598  1.00  0.00    -0.273 OA
HETATM   10  H   UNL     1      43.138 -12.608   2.553  1.00  0.00     0.169 HD
BRANCH   8  11
HETATM   11  C   UNL     1      41.192 -13.692   1.455  1.00  0.00     0.128 C 
BRANCH  11  12
HETATM   12  C   UNL     1      41.739 -15.112   1.388  1.00  0.00     0.158 C 
HETATM   13  S   UNL     1      43.382 -15.253   2.159  1.00  0.00    -0.077 SA
HETATM   14  C   UNL     1      42.930 -16.817   2.825  1.00  0.00     0.168 C 
HETATM   15  N   UNL     1      41.673 -17.109   2.756  1.00  0.00    -0.189 NA
HETATM   16  C   UNL     1      40.917 -16.115   2.174  1.00  0.00     0.260 C 
HETATM   17  O   UNL     1      39.694 -16.073   2.233  1.00  0.00    -0.270 OA
BRANCH  14  18
HETATM   18  N   UNL     1      43.914 -17.648   3.309  1.00  0.00    -0.360 N 
HETATM   19  C   UNL     1      44.358 -17.646   4.706  1.00  0.00     0.125 C 
HETATM   20  C   UNL     1      43.703 -18.811   5.453  1.00  0.00     0.020 C 
HETATM   21  C   UNL     1      43.980 -20.143   4.757  1.00  0.00     0.003 C 
HETATM   22  C   UNL     1      43.583 -20.082   3.283  1.00  0.00     0.020 C 
HETATM   23  C   UNL     1      44.237 -18.887   2.594  1.00  0.00     0.125 C 
ENDBRANCH  14  18
ENDBRANCH  11  12
ENDBRANCH   8  11
ENDBRANCH   4   7
BRANCH   1  24
HETATM   24  C   UNL     1      43.719 -10.328   8.341  1.00  0.00     0.256 C 
HETATM   25  N   UNL     1      42.636 -10.090   9.170  1.00  0.00    -0.323 N 
HETATM   26  H   UNL     1      41.718 -10.317   8.817  1.00  0.00     0.169 HD
HETATM   27  O   UNL     1      44.885 -10.022   8.563  1.00  0.00    -0.267 OA
BRANCH  25  28
HETATM   28  C   UNL     1      42.649  -9.487  10.448  1.00  0.00     0.035 A 
HETATM   29  C   UNL     1      42.696 -10.192  11.649  1.00  0.00     0.030 A 
HETATM   30  C   UNL     1      42.721  -9.514  12.875  1.00  0.00     0.010 A 
HETATM   31  C   UNL     1      42.706  -8.115  12.929  1.00  0.00    -0.054 A 
HETATM   32  C   UNL     1      42.635  -7.410  11.719  1.00  0.00     0.010 A 
HETATM   33  C   UNL     1      42.610  -8.088  10.494  1.00  0.00     0.030 A 
BRANCH  31  34
HETATM   34  C   UNL     1      42.735  -7.348  14.244  1.00  0.00     0.014 C 
HETATM   35  C   UNL     1      41.840  -7.990  15.311  1.00  0.00     0.015 C 
BRANCH  34  36
HETATM   36  C   UNL     1      42.391  -5.867  13.998  1.00  0.00     0.004 C 
HETATM   37  C   UNL     1      41.089  -5.431  14.657  1.00  0.00     0.006 C 
ENDBRANCH  34  36
ENDBRANCH  31  34
ENDBRANCH  25  28
ENDBRANCH   1  24
TORSDOF 8
ENDMDL
MODEL 4
REMARK VINA RESULT:      -8.4      3.782      5.378
REMARK  8 active torsions:
REMARK  status: ('A' for Active; 'I' for Inactive)
REMARK    1  A    between atoms: C_2  and  C_3 
REMARK    2  A    between atoms: C_3  and  C_4 
REMARK    3  A    between atoms: C_7  and  N_8 
REMARK       I    between atoms: N_8  and  C_9 
REMARK    4  A    between atoms: C_9  and  C_10 
REMARK    5  A    between atoms: C_13  and  N_14 
REMARK       I    between atoms: N_14  and  C_15 
REMARK    6  A    between atoms: C_15  and  C_16 
REMARK    7  A    between atoms: C_16  and  C_17 
REMARK    8  A    between atoms: C_19  and  N_20 
ROOT
HETATM    1  C   UNL     1      42.270 -11.592   4.536  1.00  0.00     0.032 A 
HETATM    2  C   UNL     1      41.897 -10.483   3.771  1.00  0.00     0.019 A 
HETATM    3  C   UNL     1      41.334  -9.353   4.383  1.00  0.00     0.030 A 
HETATM    4  C   UNL     1      41.153  -9.302   5.768  1.00  0.00     0.034 A 
HETATM    5  C   UNL     1      41.554 -10.400   6.536  1.00  0.00     0.030 A 
HETATM    6  C   UNL     1      42.105 -11.535   5.927  1.00  0.00     0.019 A 
ENDROOT
BRANCH   4   7
HETATM    7  N   UNL     1      40.601  -8.197   6.453  1.00  0.00    -0.327 N 
HETATM    8  C   UNL     1      39.265  -7.976   6.739  1.00  0.00     0.223 C 
HETATM    9  O   UNL     1      38.333  -8.715   6.443  1.00  0.00    -0.273 OA
HETATM   10  H   UNL     1      41.267  -7.520   6.804  1.00  0.00     0.169 HD
BRANCH   8  11
HETATM   11  C   UNL     1      39.030  -6.648   7.440  1.00  0.00     0.128 C 
BRANCH  11  12
HETATM   12  C   UNL     1      39.492  -6.710   8.891  1.00  0.00     0.158 C 
HETATM   13  S   UNL     1      39.086  -8.303   9.674  1.00  0.00    -0.077 SA
HETATM   14  C   UNL     1      40.632  -8.279  10.512  1.00  0.00     0.168 C 
HETATM   15  N   UNL     1      41.478  -7.395  10.096  1.00  0.00    -0.189 NA
HETATM   16  C   UNL     1      40.999  -6.637   9.050  1.00  0.00     0.260 C 
HETATM   17  O   UNL     1      41.709  -5.926   8.349  1.00  0.00    -0.270 OA
BRANCH  14  18
HETATM   18  N   UNL     1      40.830  -9.130  11.576  1.00  0.00    -0.360 N 
HETATM   19  C   UNL     1      42.112  -9.779  11.862  1.00  0.00     0.125 C 
HETATM   20  C   UNL     1      42.832  -9.021  12.980  1.00  0.00     0.020 C 
HETATM   21  C   UNL     1      41.952  -8.898  14.224  1.00  0.00     0.003 C 
HETATM   22  C   UNL     1      40.593  -8.294  13.873  1.00  0.00     0.020 C 
HETATM   23  C   UNL     1      39.933  -9.067  12.735  1.00  0.00     0.125 C 
ENDBRANCH  14  18
ENDBRANCH  11  12
ENDBRANCH   8  11
ENDBRANCH   4   7
BRANCH   1  24
HETATM   24  C   UNL     1      42.872 -12.829   3.944  1.00  0.00     0.256 C 
HETATM   25  N   UNL     1      42.408 -14.030   4.454  1.00  0.00    -0.323 N 
HETATM   26  H   UNL     1      41.757 -13.990   5.226  1.00  0.00     0.169 HD
HETATM   27  O   UNL     1      43.735 -12.690   3.085  1.00  0.00    -0.267 OA
BRANCH  25  28
HETATM   28  C   UNL     1      42.796 -15.333   4.071  1.00  0.00     0.035 A 
HETATM   29  C   UNL     1      42.511 -15.906   2.833  1.00  0.00     0.030 A 
HETATM   30  C   UNL     1      42.948 -17.202   2.527  1.00  0.00     0.010 A 
HETATM   31  C   UNL     1      43.686 -17.953   3.451  1.00  0.00    -0.054 A 
HETATM   32  C   UNL     1      43.949 -17.383   4.703  1.00  0.00     0.010 A 
HETATM   33  C   UNL     1      43.512 -16.087   5.008  1.00  0.00     0.030 A 
BRANCH  31  34
HETATM   34  C   UNL     1      44.176 -19.362   3.149  1.00  0.00     0.014 C 
HETATM   35  C   UNL     1      43.169 -20.164   2.316  1.00  0.00     0.015 C 
BRANCH  34  36
HETATM   36  C   UNL     1      44.560 -20.077   4.458  1.00  0.00     0.004 C 
HETATM   37  C   UNL     1      43.540 -21.118   4.901  1.00  0.00     0.006 C 
ENDBRANCH  34  36
ENDBRANCH  31  34
ENDBRANCH  25  28
ENDBRANCH   1  24
TORSDOF 8
ENDMDL
MODEL 5
REMARK VINA RESULT:      -8.3      4.400     14.139
REMARK  8 active torsions:
REMARK  status: ('A' for Active; 'I' for Inactive)
REMARK    1  A    between atoms: C_2  and  C_3 
REMARK    2  A    between atoms: C_3  and  C_4 
REMARK    3  A    between atoms: C_7  and  N_8 
REMARK       I    between atoms: N_8  and  C_9 
REMARK    4  A    between atoms: C_9  and  C_10 
REMARK    5  A    between atoms: C_13  and  N_14 
REMARK       I    between atoms: N_14  and  C_15 
REMARK    6  A    between atoms: C_15  and  C_16 
REMARK    7  A    between atoms: C_16  and  C_17 
REMARK    8  A    between atoms: C_19  and  N_20 
ROOT
HETATM    1  C   UNL     1      43.730  -9.962   9.041  1.00  0.00     0.032 A 
HETATM    2  C   UNL     1      42.627  -9.673   8.232  1.00  0.00     0.019 A 
HETATM    3  C   UNL     1      42.540 -10.197   6.934  1.00  0.00     0.030 A 
HETATM    4  C   UNL     1      43.540 -11.032   6.428  1.00  0.00     0.034 A 
HETATM    5  C   UNL     1      44.629 -11.345   7.249  1.00  0.00     0.030 A 
HETATM    6  C   UNL     1      44.726 -10.813   8.541  1.00  0.00     0.019 A 
ENDROOT
BRANCH   4   7
HETATM    7  N   UNL     1      43.516 -11.601   5.136  1.00  0.00    -0.327 N 
HETATM    8  C   UNL     1      42.921 -12.794   4.761  1.00  0.00     0.223 C 
HETATM    9  O   UNL     1      42.307 -13.556   5.500  1.00  0.00    -0.273 OA
HETATM   10  H   UNL     1      43.948 -11.051   4.404  1.00  0.00     0.169 HD
BRANCH   8  11
HETATM   11  C   UNL     1      43.147 -13.123   3.294  1.00  0.00     0.128 C 
BRANCH  11  12
HETATM   12  C   UNL     1      41.922 -13.803   2.696  1.00  0.00     0.158 C 
HETATM   13  S   UNL     1      40.852 -12.633   1.802  1.00  0.00    -0.077 SA
HETATM   14  C   UNL     1      40.557 -13.850   0.569  1.00  0.00     0.168 C 
HETATM   15  N   UNL     1      41.331 -14.885   0.611  1.00  0.00    -0.189 NA
HETATM   16  C   UNL     1      42.259 -14.826   1.627  1.00  0.00     0.260 C 
HETATM   17  O   UNL     1      43.235 -15.564   1.695  1.00  0.00    -0.270 OA
BRANCH  14  18
HETATM   18  N   UNL     1      39.511 -13.676  -0.308  1.00  0.00    -0.360 N 
HETATM   19  C   UNL     1      38.848 -12.387  -0.528  1.00  0.00     0.125 C 
HETATM   20  C   UNL     1      39.379 -11.754  -1.817  1.00  0.00     0.020 C 
HETATM   21  C   UNL     1      39.221 -12.699  -3.007  1.00  0.00     0.003 C 
HETATM   22  C   UNL     1      39.850 -14.060  -2.710  1.00  0.00     0.020 C 
HETATM   23  C   UNL     1      39.311 -14.632  -1.402  1.00  0.00     0.125 C 
ENDBRANCH  14  18
ENDBRANCH  11  12
ENDBRANCH   8  11
ENDBRANCH   4   7
BRANCH   1  24
HETATM   24  C   UNL     1      43.885  -9.431  10.433  1.00  0.00     0.256 C 
HETATM   25  N   UNL     1      42.734  -8.939  11.023  1.00  0.00    -0.323 N 
HETATM   26  H   UNL     1      41.896  -8.908  10.460  1.00  0.00     0.169 HD
HETATM   27  O   UNL     1      45.006  -9.447  10.929  1.00  0.00    -0.267 OA
BRANCH  25  28
HETATM   28  C   UNL     1      42.598  -8.393  12.319  1.00  0.00     0.035 A 
HETATM   29  C   UNL     1      43.022  -7.116  12.681  1.00  0.00     0.030 A 
HETATM   30  C   UNL     1      42.835  -6.644  13.988  1.00  0.00     0.010 A 
HETATM   31  C   UNL     1      42.214  -7.437  14.961  1.00  0.00    -0.054 A 
HETATM   32  C   UNL     1      41.812  -8.730  14.599  1.00  0.00     0.010 A 
HETATM   33  C   UNL     1      41.999  -9.200  13.293  1.00  0.00     0.030 A 
BRANCH  31  34
HETATM   34  C   UNL     1      41.994  -6.955  16.388  1.00  0.00     0.014 C 
HETATM   35  C   UNL     1      41.149  -7.935  17.211  1.00  0.00     0.015 C 
BRANCH  34  36
HETATM   36  C   UNL     1      41.403  -5.532  16.377  1.00  0.00     0.004 C 
HETATM   37  C   UNL     1      39.927  -5.493  16.006  1.00  0.00     0.006 C 
ENDBRANCH  34  36
ENDBRANCH  31  34
ENDBRANCH  25  28
ENDBRANCH   1  24
TORSDOF 8
ENDMDL
MODEL 6
REMARK VINA RESULT:      -8.1      2.210      4.050
REMARK  8 active torsions:
REMARK  status: ('A' for Active; 'I' for Inactive)
REMARK    1  A    between atoms: C_2  and  C_3 
REMARK    2  A    between atoms: C_3  and  C_4 
REMARK    3  A    between atoms: C_7  and  N_8 
REMARK       I    between atoms: N_8  and  C_9 
REMARK    4  A    between atoms: C_9  and  C_10 
REMARK    5  A    between atoms: C_13  and  N_14 
REMARK       I    between atoms: N_14  and  C_15 
REMARK    6  A    between atoms: C_15  and  C_16 
REMARK    7  A    between atoms: C_16  and  C_17 
REMARK    8  A    between atoms: C_19  and  N_20 
ROOT
HETATM    1  C   UNL     1      44.058 -10.702   8.615  1.00  0.00     0.032 A 
HETATM    2  C   UNL     1      42.892  -9.957   8.818  1.00  0.00     0.019 A 
HETATM    3  C   UNL     1      42.779  -9.101   9.923  1.00  0.00     0.030 A 
HETATM    4  C   UNL     1      43.831  -8.958  10.832  1.00  0.00     0.034 A 
HETATM    5  C   UNL     1      45.008  -9.681  10.611  1.00  0.00     0.030 A 
HETATM    6  C   UNL     1      45.121 -10.547   9.516  1.00  0.00     0.019 A 
ENDROOT
BRANCH   4   7
HETATM    7  N   UNL     1      43.791  -8.110  11.961  1.00  0.00    -0.327 N 
HETATM    8  C   UNL     1      43.105  -8.327  13.144  1.00  0.00     0.223 C 
HETATM    9  O   UNL     1      42.414  -9.306  13.406  1.00  0.00    -0.273 OA
HETATM   10  H   UNL     1      44.362  -7.276  11.905  1.00  0.00     0.169 HD
BRANCH   8  11
HETATM   11  C   UNL     1      43.243  -7.170  14.119  1.00  0.00     0.128 C 
BRANCH  11  12
HETATM   12  C   UNL     1      41.954  -6.359  14.185  1.00  0.00     0.158 C 
HETATM   13  S   UNL     1      41.200  -6.131  12.544  1.00  0.00    -0.077 SA
HETATM   14  C   UNL     1      39.605  -6.345  13.252  1.00  0.00     0.168 C 
HETATM   15  N   UNL     1      39.589  -6.801  14.462  1.00  0.00    -0.189 NA
HETATM   16  C   UNL     1      40.848  -7.043  14.966  1.00  0.00     0.260 C 
HETATM   17  O   UNL     1      41.056  -7.700  15.979  1.00  0.00    -0.270 OA
BRANCH  14  18
HETATM   18  N   UNL     1      38.495  -5.969  12.530  1.00  0.00    -0.360 N 
HETATM   19  C   UNL     1      37.841  -4.666  12.676  1.00  0.00     0.125 C 
HETATM   20  C   UNL     1      38.278  -3.743  11.535  1.00  0.00     0.020 C 
HETATM   21  C   UNL     1      38.008  -4.380  10.172  1.00  0.00     0.003 C 
HETATM   22  C   UNL     1      38.634  -5.771  10.086  1.00  0.00     0.020 C 
HETATM   23  C   UNL     1      38.191  -6.639  11.261  1.00  0.00     0.125 C 
ENDBRANCH  14  18
ENDBRANCH  11  12
ENDBRANCH   8  11
ENDBRANCH   4   7
BRANCH   1  24
HETATM   24  C   UNL     1      44.240 -11.637   7.459  1.00  0.00     0.256 C 
HETATM   25  N   UNL     1      43.365 -12.708   7.405  1.00  0.00    -0.323 N 
HETATM   26  H   UNL     1      42.720 -12.824   8.173  1.00  0.00     0.169 HD
HETATM   27  O   UNL     1      45.151 -11.403   6.673  1.00  0.00    -0.267 OA
BRANCH  25  28
HETATM   28  C   UNL     1      43.312 -13.725   6.425  1.00  0.00     0.035 A 
HETATM   29  C   UNL     1      43.720 -15.041   6.636  1.00  0.00     0.030 A 
HETATM   30  C   UNL     1      43.619 -15.994   5.614  1.00  0.00     0.010 A 
HETATM   31  C   UNL     1      43.101 -15.654   4.358  1.00  0.00    -0.054 A 
HETATM   32  C   UNL     1      42.715 -14.325   4.142  1.00  0.00     0.010 A 
HETATM   33  C   UNL     1      42.816 -13.373   5.165  1.00  0.00     0.030 A 
BRANCH  31  34
HETATM   34  C   UNL     1      42.976 -16.666   3.227  1.00  0.00     0.014 C 
HETATM   35  C   UNL     1      43.821 -17.922   3.473  1.00  0.00     0.015 C 
BRANCH  34  36
HETATM   36  C   UNL     1      43.299 -15.992   1.880  1.00  0.00     0.004 C 
HETATM   37  C   UNL     1      42.061 -15.549   1.112  1.00  0.00     0.006 C 
ENDBRANCH  34  36
ENDBRANCH  31  34
ENDBRANCH  25  28
ENDBRANCH   1  24
TORSDOF 8
ENDMDL
MODEL 7
REMARK VINA RESULT:      -8.0      3.467      4.870
REMARK  8 active torsions:
REMARK  status: ('A' for Active; 'I' for Inactive)
REMARK    1  A    between atoms: C_2  and  C_3 
REMARK    2  A    between atoms: C_3  and  C_4 
REMARK    3  A    between atoms: C_7  and  N_8 
REMARK       I    between atoms: N_8  and  C_9 
REMARK    4  A    between atoms: C_9  and  C_10 
REMARK    5  A    between atoms: C_13  and  N_14 
REMARK       I    between atoms: N_14  and  C_15 
REMARK    6  A    between atoms: C_15  and  C_16 
REMARK    7  A    between atoms: C_16  and  C_17 
REMARK    8  A    between atoms: C_19  and  N_20 
ROOT
HETATM    1  C   UNL     1      41.394 -12.535   5.057  1.00  0.00     0.032 A 
HETATM    2  C   UNL     1      40.391 -12.128   5.942  1.00  0.00     0.019 A 
HETATM    3  C   UNL     1      40.403 -10.836   6.484  1.00  0.00     0.030 A 
HETATM    4  C   UNL     1      41.403  -9.921   6.140  1.00  0.00     0.034 A 
HETATM    5  C   UNL     1      42.389 -10.319   5.231  1.00  0.00     0.030 A 
HETATM    6  C   UNL     1      42.387 -11.614   4.696  1.00  0.00     0.019 A 
ENDROOT
BRANCH   4   7
HETATM    7  N   UNL     1      41.474  -8.602   6.640  1.00  0.00    -0.327 N 
HETATM    8  C   UNL     1      42.463  -8.070   7.450  1.00  0.00     0.223 C 
HETATM    9  O   UNL     1      43.451  -8.665   7.866  1.00  0.00    -0.273 OA
HETATM   10  H   UNL     1      40.740  -7.975   6.335  1.00  0.00     0.169 HD
BRANCH   8  11
HETATM   11  C   UNL     1      42.182  -6.629   7.844  1.00  0.00     0.128 C 
BRANCH  11  12
HETATM   12  C   UNL     1      41.190  -6.565   8.998  1.00  0.00     0.158 C 
HETATM   13  S   UNL     1      41.775  -7.478  10.460  1.00  0.00    -0.077 SA
HETATM   14  C   UNL     1      41.124  -6.220  11.501  1.00  0.00     0.168 C 
HETATM   15  N   UNL     1      40.768  -5.130  10.903  1.00  0.00    -0.189 NA
HETATM   16  C   UNL     1      40.983  -5.165   9.542  1.00  0.00     0.260 C 
HETATM   17  O   UNL     1      40.955  -4.170   8.828  1.00  0.00    -0.270 OA
BRANCH  14  18
HETATM   18  N   UNL     1      40.970  -6.475  12.845  1.00  0.00    -0.360 N 
HETATM   19  C   UNL     1      40.042  -7.478  13.375  1.00  0.00     0.125 C 
HETATM   20  C   UNL     1      40.814  -8.750  13.733  1.00  0.00     0.020 C 
HETATM   21  C   UNL     1      41.961  -8.452  14.697  1.00  0.00     0.003 C 
HETATM   22  C   UNL     1      42.860  -7.344  14.150  1.00  0.00     0.020 C 
HETATM   23  C   UNL     1      42.039  -6.111  13.781  1.00  0.00     0.125 C 
ENDBRANCH  14  18
ENDBRANCH  11  12
ENDBRANCH   8  11
ENDBRANCH   4   7
BRANCH   1  24
HETATM   24  C   UNL     1      41.441 -13.902   4.445  1.00  0.00     0.256 C 
HETATM   25  N   UNL     1      42.638 -14.583   4.581  1.00  0.00    -0.323 N 
HETATM   26  H   UNL     1      43.408 -14.094   5.014  1.00  0.00     0.169 HD
HETATM   27  O   UNL     1      40.442 -14.300   3.858  1.00  0.00    -0.267 OA
BRANCH  25  28
HETATM   28  C   UNL     1      42.948 -15.879   4.111  1.00  0.00     0.035 A 
HETATM   29  C   UNL     1      42.827 -16.282   2.783  1.00  0.00     0.030 A 
HETATM   30  C   UNL     1      43.170 -17.585   2.396  1.00  0.00     0.010 A 
HETATM   31  C   UNL     1      43.649 -18.513   3.329  1.00  0.00    -0.054 A 
HETATM   32  C   UNL     1      43.746 -18.111   4.668  1.00  0.00     0.010 A 
HETATM   33  C   UNL     1      43.403 -16.809   5.053  1.00  0.00     0.030 A 
BRANCH  31  34
HETATM   34  C   UNL     1      44.033 -19.934   2.942  1.00  0.00     0.014 C 
HETATM   35  C   UNL     1      43.486 -20.331   1.565  1.00  0.00     0.015 C 
BRANCH  34  36
HETATM   36  C   UNL     1      43.606 -20.915   4.050  1.00  0.00     0.004 C 
HETATM   37  C   UNL     1      44.563 -20.945   5.234  1.00  0.00     0.006 C 
ENDBRANCH  34  36
ENDBRANCH  31  34
ENDBRANCH  25  28
ENDBRANCH   1  24
TORSDOF 8
ENDMDL
MODEL 8
REMARK VINA RESULT:      -7.9      4.451      5.988
REMARK  8 active torsions:
REMARK  status: ('A' for Active; 'I' for Inactive)
REMARK    1  A    between atoms: C_2  and  C_3 
REMARK    2  A    between atoms: C_3  and  C_4 
REMARK    3  A    between atoms: C_7  and  N_8 
REMARK       I    between atoms: N_8  and  C_9 
REMARK    4  A    between atoms: C_9  and  C_10 
REMARK    5  A    between atoms: C_13  and  N_14 
REMARK       I    between atoms: N_14  and  C_15 
REMARK    6  A    between atoms: C_15  and  C_16 
REMARK    7  A    between atoms: C_16  and  C_17 
REMARK    8  A    between atoms: C_19  and  N_20 
ROOT
HETATM    1  C   UNL     1      40.862 -12.664   5.809  1.00  0.00     0.032 A 
HETATM    2  C   UNL     1      39.618 -12.126   6.158  1.00  0.00     0.019 A 
HETATM    3  C   UNL     1      39.507 -10.781   6.536  1.00  0.00     0.030 A 
HETATM    4  C   UNL     1      40.626  -9.944   6.554  1.00  0.00     0.034 A 
HETATM    5  C   UNL     1      41.864 -10.475   6.176  1.00  0.00     0.030 A 
HETATM    6  C   UNL     1      41.982 -11.822   5.810  1.00  0.00     0.019 A 
ENDROOT
BRANCH   4   7
HETATM    7  N   UNL     1      40.588  -8.579   6.915  1.00  0.00    -0.327 N 
HETATM    8  C   UNL     1      39.508  -7.882   7.429  1.00  0.00     0.223 C 
HETATM    9  O   UNL     1      38.396  -8.345   7.659  1.00  0.00    -0.273 OA
HETATM   10  H   UNL     1      41.461  -8.075   6.824  1.00  0.00     0.169 HD
BRANCH   8  11
HETATM   11  C   UNL     1      39.813  -6.409   7.646  1.00  0.00     0.128 C 
BRANCH  11  12
HETATM   12  C   UNL     1      41.017  -6.234   8.562  1.00  0.00     0.158 C 
HETATM   13  S   UNL     1      40.998  -7.403   9.957  1.00  0.00    -0.077 SA
HETATM   14  C   UNL     1      42.739  -7.600   9.811  1.00  0.00     0.168 C 
HETATM   15  N   UNL     1      43.265  -7.119   8.732  1.00  0.00    -0.189 NA
HETATM   16  C   UNL     1      42.340  -6.544   7.888  1.00  0.00     0.260 C 
HETATM   17  O   UNL     1      42.577  -6.256   6.722  1.00  0.00    -0.270 OA
BRANCH  14  18
HETATM   18  N   UNL     1      43.437  -8.179  10.846  1.00  0.00    -0.360 N 
HETATM   19  C   UNL     1      42.948  -8.219  12.227  1.00  0.00     0.125 C 
HETATM   20  C   UNL     1      42.353  -9.598  12.519  1.00  0.00     0.020 C 
HETATM   21  C   UNL     1      43.359 -10.711  12.227  1.00  0.00     0.003 C 
HETATM   22  C   UNL     1      43.910 -10.589  10.807  1.00  0.00     0.020 C 
HETATM   23  C   UNL     1      44.462  -9.188  10.557  1.00  0.00     0.125 C 
ENDBRANCH  14  18
ENDBRANCH  11  12
ENDBRANCH   8  11
ENDBRANCH   4   7
BRANCH   1  24
HETATM   24  C   UNL     1      41.049 -14.092   5.400  1.00  0.00     0.256 C 
HETATM   25  N   UNL     1      42.272 -14.402   4.830  1.00  0.00    -0.323 N 
HETATM   26  H   UNL     1      42.918 -13.642   4.667  1.00  0.00     0.169 HD
HETATM   27  O   UNL     1      40.113 -14.864   5.573  1.00  0.00    -0.267 OA
BRANCH  25  28
HETATM   28  C   UNL     1      42.711 -15.663   4.368  1.00  0.00     0.035 A 
HETATM   29  C   UNL     1      42.202 -16.306   3.242  1.00  0.00     0.030 A 
HETATM   30  C   UNL     1      42.705 -17.552   2.841  1.00  0.00     0.010 A 
HETATM   31  C   UNL     1      43.733 -18.180   3.556  1.00  0.00    -0.054 A 
HETATM   32  C   UNL     1      44.224 -17.541   4.701  1.00  0.00     0.010 A 
HETATM   33  C   UNL     1      43.722 -16.296   5.100  1.00  0.00     0.030 A 
BRANCH  31  34
HETATM   34  C   UNL     1      44.302 -19.531   3.147  1.00  0.00     0.014 C 
HETATM   35  C   UNL     1      43.363 -20.299   2.207  1.00  0.00     0.015 C 
BRANCH  34  36
HETATM   36  C   UNL     1      44.678 -20.345   4.399  1.00  0.00     0.004 C 
HETATM   37  C   UNL     1      43.470 -20.846   5.180  1.00  0.00     0.006 C 
ENDBRANCH  34  36
ENDBRANCH  31  34
ENDBRANCH  25  28
ENDBRANCH   1  24
TORSDOF 8
ENDMDL
MODEL 9
REMARK VINA RESULT:      -7.9      8.521     10.579
REMARK  8 active torsions:
REMARK  status: ('A' for Active; 'I' for Inactive)
REMARK    1  A    between atoms: C_2  and  C_3 
REMARK    2  A    between atoms: C_3  and  C_4 
REMARK    3  A    between atoms: C_7  and  N_8 
REMARK       I    between atoms: N_8  and  C_9 
REMARK    4  A    between atoms: C_9  and  C_10 
REMARK    5  A    between atoms: C_13  and  N_14 
REMARK       I    between atoms: N_14  and  C_15 
REMARK    6  A    between atoms: C_15  and  C_16 
REMARK    7  A    between atoms: C_16  and  C_17 
REMARK    8  A    between atoms: C_19  and  N_20 
ROOT
HETATM    1  C   UNL     1      39.805 -12.504   5.033  1.00  0.00     0.032 A 
HETATM    2  C   UNL     1      39.300 -11.885   6.181  1.00  0.00     0.019 A 
HETATM    3  C   UNL     1      38.627 -10.659   6.089  1.00  0.00     0.030 A 
HETATM    4  C   UNL     1      38.429 -10.038   4.853  1.00  0.00     0.034 A 
HETATM    5  C   UNL     1      38.908 -10.673   3.702  1.00  0.00     0.030 A 
HETATM    6  C   UNL     1      39.592 -11.892   3.790  1.00  0.00     0.019 A 
ENDROOT
BRANCH   4   7
HETATM    7  N   UNL     1      37.755  -8.809   4.684  1.00  0.00    -0.327 N 
HETATM    8  C   UNL     1      38.263  -7.540   4.909  1.00  0.00     0.223 C 
HETATM    9  O   UNL     1      39.397  -7.277   5.294  1.00  0.00    -0.273 OA
HETATM   10  H   UNL     1      36.813  -8.870   4.319  1.00  0.00     0.169 HD
BRANCH   8  11
HETATM   11  C   UNL     1      37.231  -6.448   4.679  1.00  0.00     0.128 C 
BRANCH  11  12
HETATM   12  C   UNL     1      35.977  -7.016   4.028  1.00  0.00     0.158 C 
HETATM   13  S   UNL     1      34.576  -7.099   5.188  1.00  0.00    -0.077 SA
HETATM   14  C   UNL     1      33.486  -6.606   3.901  1.00  0.00     0.168 C 
HETATM   15  N   UNL     1      34.054  -6.161   2.828  1.00  0.00    -0.189 NA
HETATM   16  C   UNL     1      35.429  -6.149   2.910  1.00  0.00     0.260 C 
HETATM   17  O   UNL     1      36.148  -5.544   2.124  1.00  0.00    -0.270 OA
BRANCH  14  18
HETATM   18  N   UNL     1      32.130  -6.776   4.069  1.00  0.00    -0.360 N 
HETATM   19  C   UNL     1      31.129  -6.265   3.129  1.00  0.00     0.125 C 
HETATM   20  C   UNL     1      30.652  -7.403   2.222  1.00  0.00     0.020 C 
HETATM   21  C   UNL     1      30.132  -8.585   3.039  1.00  0.00     0.003 C 
HETATM   22  C   UNL     1      31.169  -9.037   4.066  1.00  0.00     0.020 C 
HETATM   23  C   UNL     1      31.633  -7.861   4.922  1.00  0.00     0.125 C 
ENDBRANCH  14  18
ENDBRANCH  11  12
ENDBRANCH   8  11
ENDBRANCH   4   7
BRANCH   1  24
HETATM   24  C   UNL     1      40.536 -13.811   5.063  1.00  0.00     0.256 C 
HETATM   25  N   UNL     1      40.992 -14.276   3.841  1.00  0.00    -0.323 N 
HETATM   26  H   UNL     1      40.745 -13.747   3.017  1.00  0.00     0.169 HD
HETATM   27  O   UNL     1      40.652 -14.377   6.144  1.00  0.00    -0.267 OA
BRANCH  25  28
HETATM   28  C   UNL     1      41.711 -15.465   3.588  1.00  0.00     0.035 A 
HETATM   29  C   UNL     1      41.429 -16.348   2.548  1.00  0.00     0.030 A 
HETATM   30  C   UNL     1      42.203 -17.501   2.357  1.00  0.00     0.010 A 
HETATM   31  C   UNL     1      43.283 -17.793   3.199  1.00  0.00    -0.054 A 
HETATM   32  C   UNL     1      43.549 -16.916   4.259  1.00  0.00     0.010 A 
HETATM   33  C   UNL     1      42.774 -15.764   4.449  1.00  0.00     0.030 A 
BRANCH  31  34
HETATM   34  C   UNL     1      44.145 -19.035   3.018  1.00  0.00     0.014 C 
HETATM   35  C   UNL     1      43.426 -20.132   2.223  1.00  0.00     0.015 C 
BRANCH  34  36
HETATM   36  C   UNL     1      44.648 -19.531   4.387  1.00  0.00     0.004 C 
HETATM   37  C   UNL     1      43.938 -20.787   4.873  1.00  0.00     0.006 C 
ENDBRANCH  34  36
ENDBRANCH  31  34
ENDBRANCH  25  28
ENDBRANCH   1  24
TORSDOF 8
ENDMDL
MODEL 10
REMARK VINA RESULT:      -7.9      2.905     13.692
REMARK  8 active torsions:
REMARK  status: ('A' for Active; 'I' for Inactive)
REMARK    1  A    between atoms: C_2  and  C_3 
REMARK    2  A    between atoms: C_3  and  C_4 
REMARK    3  A    between atoms: C_7  and  N_8 
REMARK       I    between atoms: N_8  and  C_9 
REMARK    4  A    between atoms: C_9  and  C_10 
REMARK    5  A    between atoms: C_13  and  N_14 
REMARK       I    between atoms: N_14  and  C_15 
REMARK    6  A    between atoms: C_15  and  C_16 
REMARK    7  A    between atoms: C_16  and  C_17 
REMARK    8  A    between atoms: C_19  and  N_20 
ROOT
HETATM    1  C   UNL     1      42.644  -8.033  12.347  1.00  0.00     0.032 A 
HETATM    2  C   UNL     1      42.749  -9.426  12.275  1.00  0.00     0.019 A 
HETATM    3  C   UNL     1      42.973 -10.059  11.045  1.00  0.00     0.030 A 
HETATM    4  C   UNL     1      43.114  -9.317   9.869  1.00  0.00     0.034 A 
HETATM    5  C   UNL     1      43.039  -7.921   9.946  1.00  0.00     0.030 A 
HETATM    6  C   UNL     1      42.803  -7.285  11.172  1.00  0.00     0.019 A 
ENDROOT
BRANCH   4   7
HETATM    7  N   UNL     1      43.348  -9.885   8.598  1.00  0.00    -0.327 N 
HETATM    8  C   UNL     1      42.515  -9.831   7.493  1.00  0.00     0.223 C 
HETATM    9  O   UNL     1      41.426  -9.271   7.440  1.00  0.00    -0.273 OA
HETATM   10  H   UNL     1      44.243 -10.344   8.479  1.00  0.00     0.169 HD
BRANCH   8  11
HETATM   11  C   UNL     1      43.065 -10.608   6.308  1.00  0.00     0.128 C 
BRANCH  11  12
HETATM   12  C   UNL     1      42.349 -11.944   6.156  1.00  0.00     0.158 C 
HETATM   13  S   UNL     1      41.961 -12.323   4.419  1.00  0.00    -0.077 SA
HETATM   14  C   UNL     1      42.360 -14.012   4.703  1.00  0.00     0.168 C 
HETATM   15  N   UNL     1      42.965 -14.262   5.818  1.00  0.00    -0.189 NA
HETATM   16  C   UNL     1      43.193 -13.134   6.574  1.00  0.00     0.260 C 
HETATM   17  O   UNL     1      43.959 -13.104   7.530  1.00  0.00    -0.270 OA
BRANCH  14  18
HETATM   18  N   UNL     1      41.962 -14.958   3.785  1.00  0.00    -0.360 N 
HETATM   19  C   UNL     1      42.049 -14.762   2.335  1.00  0.00     0.125 C 
HETATM   20  C   UNL     1      43.286 -15.483   1.795  1.00  0.00     0.020 C 
HETATM   21  C   UNL     1      43.282 -16.962   2.183  1.00  0.00     0.003 C 
HETATM   22  C   UNL     1      43.106 -17.129   3.692  1.00  0.00     0.020 C 
HETATM   23  C   UNL     1      41.878 -16.367   4.183  1.00  0.00     0.125 C 
ENDBRANCH  14  18
ENDBRANCH  11  12
ENDBRANCH   8  11
ENDBRANCH   4   7
BRANCH   1  24
HETATM   24  C   UNL     1      42.402  -7.296  13.628  1.00  0.00     0.256 C 
HETATM   25  N   UNL     1      41.706  -7.991  14.602  1.00  0.00    -0.323 N 
HETATM   26  H   UNL     1      41.353  -8.906  14.362  1.00  0.00     0.169 HD
HETATM   27  O   UNL     1      42.808  -6.142  13.710  1.00  0.00    -0.267 OA
BRANCH  25  28
HETATM   28  C   UNL     1      41.353  -7.539  15.894  1.00  0.00     0.035 A 
HETATM   29  C   UNL     1      40.068  -7.149  16.266  1.00  0.00     0.030 A 
HETATM   30  C   UNL     1      39.799  -6.728  17.575  1.00  0.00     0.010 A 
HETATM   31  C   UNL     1      40.809  -6.693  18.545  1.00  0.00    -0.054 A 
HETATM   32  C   UNL     1      42.105  -7.062  18.160  1.00  0.00     0.010 A 
HETATM   33  C   UNL     1      42.372  -7.483  16.851  1.00  0.00     0.030 A 
BRANCH  31  34
HETATM   34  C   UNL     1      40.550  -6.242  19.976  1.00  0.00     0.014 C 
HETATM   35  C   UNL     1      41.705  -5.406  20.541  1.00  0.00     0.015 C 
BRANCH  34  36
HETATM   36  C   UNL     1      40.216  -7.460  20.858  1.00  0.00     0.004 C 
HETATM   37  C   UNL     1      39.239  -7.143  21.982  1.00  0.00     0.006 C 
ENDBRANCH  34  36
ENDBRANCH  31  34
ENDBRANCH  25  28
ENDBRANCH   1  24
TORSDOF 8
ENDMDL
