MODEL 1
REMARK VINA RESULT:      -9.1      0.000      0.000
REMARK  6 active torsions:
REMARK  status: ('A' for Active; 'I' for Inactive)
REMARK    1  A    between atoms: C_3  and  N_4 
REMARK       I    between atoms: N_4  and  C_5 
REMARK       I    between atoms: C_5  and  N_6 
REMARK    2  A    between atoms: N_6  and  N_7 
REMARK       I    between atoms: N_7  and  C_8 
REMARK    3  A    between atoms: C_8  and  C_9 
REMARK    4  A    between atoms: C_9  and  N_10 
REMARK       I    between atoms: N_10  and  C_11 
REMARK       I    between atoms: C_11  and  N_12 
REMARK    5  A    between atoms: N_12  and  C_13 
REMARK    6  A    between atoms: C_16  and  O_17 
ROOT
HETATM    1  N   UNL     1      43.709 -13.318   6.969  1.00  0.00    -0.265 N 
HETATM    2  C   UNL     1      43.002 -12.228   6.477  1.00  0.00     0.253 C 
HETATM    3  O   UNL     1      41.787 -12.267   6.279  1.00  0.00    -0.270 OA
HETATM    4  H   UNL     1      44.557 -13.102   7.508  1.00  0.00     0.190 HD
ENDROOT
BRANCH   2   5
HETATM    5  C   UNL     1      43.781 -10.914   6.415  1.00  0.00     0.228 C 
BRANCH   5   6
HETATM    6  N   UNL     1      44.122 -10.281   7.676  1.00  0.00    -0.334 N 
HETATM    7  C   UNL     1      45.331 -10.423   8.270  1.00  0.00     0.321 C 
HETATM    8  N   UNL     1      45.441 -10.062   9.575  1.00  0.00    -0.309 N 
HETATM    9  O   UNL     1      46.314 -10.806   7.637  1.00  0.00    -0.247 OA
HETATM   10  H   UNL     1      46.408 -10.023   9.874  1.00  0.00     0.170 HD
HETATM   11  H   UNL     1      43.557  -9.504   7.991  1.00  0.00     0.164 HD
BRANCH   8  12
HETATM   12  C   UNL     1      44.479  -9.931  10.600  1.00  0.00     0.036 A 
HETATM   13  C   UNL     1      43.924 -10.997  11.309  1.00  0.00     0.032 A 
HETATM   14  C   UNL     1      43.006 -10.763  12.341  1.00  0.00     0.039 A 
HETATM   15  C   UNL     1      42.651  -9.465  12.703  1.00  0.00     0.068 A 
HETATM   16  C   UNL     1      43.205  -8.395  12.007  1.00  0.00     0.039 A 
HETATM   17  C   UNL     1      44.116  -8.629  10.966  1.00  0.00     0.032 A 
BRANCH  15  18
HETATM   18  O   UNL     1      41.763  -9.380  13.738  1.00  0.00    -0.356 OA
HETATM   19  C   UNL     1      41.942  -8.299  14.645  1.00  0.00     0.210 C 
ENDBRANCH  15  18
ENDBRANCH   8  12
ENDBRANCH   5   6
ENDBRANCH   2   5
BRANCH   1  20
HETATM   20  N   UNL     1      42.906 -14.377   7.458  1.00  0.00    -0.249 N 
HETATM   21  C   UNL     1      42.670 -15.520   6.723  1.00  0.00     0.339 C 
HETATM   22  N   UNL     1      43.632 -15.784   5.778  1.00  0.00    -0.307 N 
HETATM   23  O   UNL     1      41.685 -16.201   6.984  1.00  0.00    -0.245 OA
HETATM   24  H   UNL     1      44.413 -15.150   5.818  1.00  0.00     0.170 HD
HETATM   25  H   UNL     1      42.097 -14.087   8.009  1.00  0.00     0.192 HD
BRANCH  22  26
HETATM   26  C   UNL     1      43.677 -16.857   4.861  1.00  0.00     0.042 A 
HETATM   27  C   UNL     1      43.275 -16.635   3.526  1.00  0.00    -0.034 A 
HETATM   28  C   UNL     1      42.825 -15.285   3.035  1.00  0.00     0.050 C 
HETATM   29  C   UNL     1      43.301 -17.705   2.611  1.00  0.00     0.032 A 
HETATM   30  C   UNL     1      43.721 -18.972   3.010  1.00  0.00     0.034 A 
HETATM   31  C   UNL     1      44.117 -19.194   4.322  1.00  0.00     0.026 A 
HETATM   32 CL   UNL     1      43.747 -20.264   1.875  1.00  0.00    -0.084 Cl
HETATM   33  C   UNL     1      44.093 -18.141   5.240  1.00  0.00     0.032 A 
ENDBRANCH  22  26
ENDBRANCH   1  20
TORSDOF 6
ENDMDL
MODEL 2
REMARK VINA RESULT:      -8.8      4.076     10.148
REMARK  6 active torsions:
REMARK  status: ('A' for Active; 'I' for Inactive)
REMARK    1  A    between atoms: C_3  and  N_4 
REMARK       I    between atoms: N_4  and  C_5 
REMARK       I    between atoms: C_5  and  N_6 
REMARK    2  A    between atoms: N_6  and  N_7 
REMARK       I    between atoms: N_7  and  C_8 
REMARK    3  A    between atoms: C_8  and  C_9 
REMARK    4  A    between atoms: C_9  and  N_10 
REMARK       I    between atoms: N_10  and  C_11 
REMARK       I    between atoms: C_11  and  N_12 
REMARK    5  A    between atoms: N_12  and  C_13 
REMARK    6  A    between atoms: C_16  and  O_17 
ROOT
HETATM    1  N   UNL     1      42.493 -11.306   7.142  1.00  0.00    -0.265 N 
HETATM    2  C   UNL     1      42.635 -11.318   5.760  1.00  0.00     0.253 C 
HETATM    3  O   UNL     1      43.738 -11.321   5.212  1.00  0.00    -0.270 OA
HETATM    4  H   UNL     1      41.637 -11.737   7.514  1.00  0.00     0.190 HD
ENDROOT
BRANCH   2   5
HETATM    5  C   UNL     1      41.347 -11.557   4.971  1.00  0.00     0.228 C 
BRANCH   5   6
HETATM    6  N   UNL     1      40.984 -12.934   4.689  1.00  0.00    -0.334 N 
HETATM    7  C   UNL     1      40.270 -13.699   5.548  1.00  0.00     0.321 C 
HETATM    8  N   UNL     1      40.257 -15.042   5.339  1.00  0.00    -0.309 N 
HETATM    9  O   UNL     1      39.603 -13.196   6.451  1.00  0.00    -0.247 OA
HETATM   10  H   UNL     1      39.555 -15.503   5.905  1.00  0.00     0.170 HD
HETATM   11  H   UNL     1      41.023 -13.254   3.730  1.00  0.00     0.164 HD
BRANCH   8  12
HETATM   12  C   UNL     1      41.146 -15.896   4.650  1.00  0.00     0.036 A 
HETATM   13  C   UNL     1      41.058 -16.205   3.293  1.00  0.00     0.032 A 
HETATM   14  C   UNL     1      42.016 -17.029   2.688  1.00  0.00     0.039 A 
HETATM   15  C   UNL     1      43.091 -17.533   3.418  1.00  0.00     0.068 A 
HETATM   16  C   UNL     1      43.192 -17.223   4.771  1.00  0.00     0.039 A 
HETATM   17  C   UNL     1      42.227 -16.407   5.380  1.00  0.00     0.032 A 
BRANCH  15  18
HETATM   18  O   UNL     1      43.961 -18.305   2.701  1.00  0.00    -0.356 OA
HETATM   19  C   UNL     1      43.525 -19.618   2.370  1.00  0.00     0.210 C 
ENDBRANCH  15  18
ENDBRANCH   8  12
ENDBRANCH   5   6
ENDBRANCH   2   5
BRANCH   1  20
HETATM   20  N   UNL     1      43.685 -11.551   7.865  1.00  0.00    -0.249 N 
HETATM   21  C   UNL     1      43.997 -10.866   9.022  1.00  0.00     0.339 C 
HETATM   22  N   UNL     1      42.904 -10.353   9.678  1.00  0.00    -0.307 N 
HETATM   23  O   UNL     1      45.168 -10.805   9.379  1.00  0.00    -0.245 OA
HETATM   24  H   UNL     1      42.027 -10.624   9.262  1.00  0.00     0.170 HD
HETATM   25  H   UNL     1      44.506 -11.750   7.292  1.00  0.00     0.192 HD
BRANCH  22  26
HETATM   26  C   UNL     1      42.883  -9.596  10.869  1.00  0.00     0.042 A 
HETATM   27  C   UNL     1      43.023  -8.193  10.793  1.00  0.00    -0.034 A 
HETATM   28  C   UNL     1      43.167  -7.469   9.481  1.00  0.00     0.050 C 
HETATM   29  C   UNL     1      43.020  -7.434  11.978  1.00  0.00     0.032 A 
HETATM   30  C   UNL     1      42.877  -8.052  13.218  1.00  0.00     0.034 A 
HETATM   31  C   UNL     1      42.738  -9.431  13.298  1.00  0.00     0.026 A 
HETATM   32 CL   UNL     1      42.875  -7.105  14.655  1.00  0.00    -0.084 Cl
HETATM   33  C   UNL     1      42.743 -10.196  12.128  1.00  0.00     0.032 A 
ENDBRANCH  22  26
ENDBRANCH   1  20
TORSDOF 6
ENDMDL
MODEL 3
REMARK VINA RESULT:      -8.5      3.728      6.864
REMARK  6 active torsions:
REMARK  status: ('A' for Active; 'I' for Inactive)
REMARK    1  A    between atoms: C_3  and  N_4 
REMARK       I    between atoms: N_4  and  C_5 
REMARK       I    between atoms: C_5  and  N_6 
REMARK    2  A    between atoms: N_6  and  N_7 
REMARK       I    between atoms: N_7  and  C_8 
REMARK    3  A    between atoms: C_8  and  C_9 
REMARK    4  A    between atoms: C_9  and  N_10 
REMARK       I    between atoms: N_10  and  C_11 
REMARK       I    between atoms: C_11  and  N_12 
REMARK    5  A    between atoms: N_12  and  C_13 
REMARK    6  A    between atoms: C_16  and  O_17 
ROOT
HETATM    1  N   UNL     1      42.605 -13.107   6.337  1.00  0.00    -0.265 N 
HETATM    2  C   UNL     1      43.553 -12.188   6.769  1.00  0.00     0.253 C 
HETATM    3  O   UNL     1      44.097 -12.272   7.871  1.00  0.00    -0.270 OA
HETATM    4  H   UNL     1      42.536 -13.244   5.321  1.00  0.00     0.190 HD
ENDROOT
BRANCH   2   5
HETATM    5  C   UNL     1      44.043 -11.205   5.706  1.00  0.00     0.228 C 
BRANCH   5   6
HETATM    6  N   UNL     1      43.146 -10.914   4.602  1.00  0.00    -0.334 N 
HETATM    7  C   UNL     1      42.076 -10.093   4.719  1.00  0.00     0.321 C 
HETATM    8  N   UNL     1      41.135 -10.137   3.739  1.00  0.00    -0.309 N 
HETATM    9  O   UNL     1      41.983  -9.289   5.645  1.00  0.00    -0.247 OA
HETATM   10  H   UNL     1      40.481  -9.367   3.811  1.00  0.00     0.170 HD
HETATM   11  H   UNL     1      43.466 -11.101   3.661  1.00  0.00     0.164 HD
BRANCH   8  12
HETATM   12  C   UNL     1      40.804 -11.134   2.796  1.00  0.00     0.036 A 
HETATM   13  C   UNL     1      41.467 -11.334   1.585  1.00  0.00     0.032 A 
HETATM   14  C   UNL     1      41.092 -12.381   0.734  1.00  0.00     0.039 A 
HETATM   15  C   UNL     1      40.073 -13.263   1.089  1.00  0.00     0.068 A 
HETATM   16  C   UNL     1      39.411 -13.077   2.299  1.00  0.00     0.039 A 
HETATM   17  C   UNL     1      39.778 -12.022   3.147  1.00  0.00     0.032 A 
BRANCH  15  18
HETATM   18  O   UNL     1      39.823 -14.250   0.177  1.00  0.00    -0.356 OA
HETATM   19  C   UNL     1      39.449 -13.831  -1.130  1.00  0.00     0.210 C 
ENDBRANCH  15  18
ENDBRANCH   8  12
ENDBRANCH   5   6
ENDBRANCH   2   5
BRANCH   1  20
HETATM   20  N   UNL     1      42.497 -14.271   7.137  1.00  0.00    -0.249 N 
HETATM   21  C   UNL     1      42.540 -15.540   6.597  1.00  0.00     0.339 C 
HETATM   22  N   UNL     1      43.190 -15.610   5.388  1.00  0.00    -0.307 N 
HETATM   23  O   UNL     1      42.050 -16.471   7.227  1.00  0.00    -0.245 OA
HETATM   24  H   UNL     1      43.615 -14.738   5.115  1.00  0.00     0.170 HD
HETATM   25  H   UNL     1      41.848 -14.198   7.921  1.00  0.00     0.192 HD
BRANCH  22  26
HETATM   26  C   UNL     1      43.392 -16.746   4.576  1.00  0.00     0.042 A 
HETATM   27  C   UNL     1      42.651 -16.875   3.380  1.00  0.00    -0.034 A 
HETATM   28  C   UNL     1      41.671 -15.827   2.925  1.00  0.00     0.050 C 
HETATM   29  C   UNL     1      42.835 -18.014   2.574  1.00  0.00     0.032 A 
HETATM   30  C   UNL     1      43.739 -19.008   2.943  1.00  0.00     0.034 A 
HETATM   31  C   UNL     1      44.469 -18.885   4.117  1.00  0.00     0.026 A 
HETATM   32 CL   UNL     1      43.949 -20.391   1.942  1.00  0.00    -0.084 Cl
HETATM   33  C   UNL     1      44.294 -17.761   4.927  1.00  0.00     0.032 A 
ENDBRANCH  22  26
ENDBRANCH   1  20
TORSDOF 6
ENDMDL
MODEL 4
REMARK VINA RESULT:      -8.4      3.994     10.323
REMARK  6 active torsions:
REMARK  status: ('A' for Active; 'I' for Inactive)
REMARK    1  A    between atoms: C_3  and  N_4 
REMARK       I    between atoms: N_4  and  C_5 
REMARK       I    between atoms: C_5  and  N_6 
REMARK    2  A    between atoms: N_6  and  N_7 
REMARK       I    between atoms: N_7  and  C_8 
REMARK    3  A    between atoms: C_8  and  C_9 
REMARK    4  A    between atoms: C_9  and  N_10 
REMARK       I    between atoms: N_10  and  C_11 
REMARK       I    between atoms: C_11  and  N_12 
REMARK    5  A    between atoms: N_12  and  C_13 
REMARK    6  A    between atoms: C_16  and  O_17 
ROOT
HETATM    1  N   UNL     1      42.864 -12.952   7.156  1.00  0.00    -0.265 N 
HETATM    2  C   UNL     1      42.586 -13.666   5.998  1.00  0.00     0.253 C 
HETATM    3  O   UNL     1      43.286 -13.582   4.989  1.00  0.00    -0.270 OA
HETATM    4  H   UNL     1      42.550 -13.376   8.038  1.00  0.00     0.190 HD
ENDROOT
BRANCH   2   5
HETATM    5  C   UNL     1      41.496 -14.730   6.131  1.00  0.00     0.228 C 
BRANCH   5   6
HETATM    6  N   UNL     1      41.924 -16.096   6.373  1.00  0.00    -0.334 N 
HETATM    7  C   UNL     1      42.790 -16.434   7.356  1.00  0.00     0.321 C 
HETATM    8  N   UNL     1      43.364 -17.665   7.299  1.00  0.00    -0.309 N 
HETATM    9  O   UNL     1      43.007 -15.682   8.305  1.00  0.00    -0.247 OA
HETATM   10  H   UNL     1      43.840 -17.898   8.162  1.00  0.00     0.170 HD
HETATM   11  H   UNL     1      41.369 -16.849   5.987  1.00  0.00     0.164 HD
BRANCH   8  12
HETATM   12  C   UNL     1      43.575 -18.556   6.225  1.00  0.00     0.036 A 
HETATM   13  C   UNL     1      43.454 -19.943   6.308  1.00  0.00     0.032 A 
HETATM   14  C   UNL     1      43.641 -20.743   5.173  1.00  0.00     0.039 A 
HETATM   15  C   UNL     1      43.919 -20.171   3.932  1.00  0.00     0.068 A 
HETATM   16  C   UNL     1      44.033 -18.787   3.837  1.00  0.00     0.039 A 
HETATM   17  C   UNL     1      43.857 -17.987   4.976  1.00  0.00     0.032 A 
BRANCH  15  18
HETATM   18  O   UNL     1      44.056 -21.064   2.907  1.00  0.00    -0.356 OA
HETATM   19  C   UNL     1      43.614 -20.635   1.625  1.00  0.00     0.210 C 
ENDBRANCH  15  18
ENDBRANCH   8  12
ENDBRANCH   5   6
ENDBRANCH   2   5
BRANCH   1  20
HETATM   20  N   UNL     1      44.134 -12.325   7.179  1.00  0.00    -0.249 N 
HETATM   21  C   UNL     1      44.295 -11.004   7.542  1.00  0.00     0.339 C 
HETATM   22  N   UNL     1      43.290 -10.520   8.344  1.00  0.00    -0.307 N 
HETATM   23  O   UNL     1      45.297 -10.404   7.170  1.00  0.00    -0.245 OA
HETATM   24  H   UNL     1      42.626 -11.226   8.619  1.00  0.00     0.170 HD
HETATM   25  H   UNL     1      44.770 -12.609   6.433  1.00  0.00     0.192 HD
BRANCH  22  26
HETATM   26  C   UNL     1      43.151  -9.218   8.871  1.00  0.00     0.042 A 
HETATM   27  C   UNL     1      43.312  -9.019  10.260  1.00  0.00    -0.034 A 
HETATM   28  C   UNL     1      43.654 -10.144  11.199  1.00  0.00     0.050 C 
HETATM   29  C   UNL     1      43.158  -7.725  10.794  1.00  0.00     0.032 A 
HETATM   30  C   UNL     1      42.854  -6.646   9.967  1.00  0.00     0.034 A 
HETATM   31  C   UNL     1      42.695  -6.837   8.602  1.00  0.00     0.026 A 
HETATM   32 CL   UNL     1      42.671  -5.074  10.641  1.00  0.00    -0.084 Cl
HETATM   33  C   UNL     1      42.843  -8.117   8.060  1.00  0.00     0.032 A 
ENDBRANCH  22  26
ENDBRANCH   1  20
TORSDOF 6
ENDMDL
MODEL 5
REMARK VINA RESULT:      -8.3      1.422      1.887
REMARK  6 active torsions:
REMARK  status: ('A' for Active; 'I' for Inactive)
REMARK    1  A    between atoms: C_3  and  N_4 
REMARK       I    between atoms: N_4  and  C_5 
REMARK       I    between atoms: C_5  and  N_6 
REMARK    2  A    between atoms: N_6  and  N_7 
REMARK       I    between atoms: N_7  and  C_8 
REMARK    3  A    between atoms: C_8  and  C_9 
REMARK    4  A    between atoms: C_9  and  N_10 
REMARK       I    between atoms: N_10  and  C_11 
REMARK       I    between atoms: C_11  and  N_12 
REMARK    5  A    between atoms: N_12  and  C_13 
REMARK    6  A    between atoms: C_16  and  O_17 
ROOT
HETATM    1  N   UNL     1      42.881 -12.278   4.769  1.00  0.00    -0.265 N 
HETATM    2  C   UNL     1      42.918 -11.488   5.911  1.00  0.00     0.253 C 
HETATM    3  O   UNL     1      41.908 -11.232   6.567  1.00  0.00    -0.270 OA
HETATM    4  H   UNL     1      43.740 -12.797   4.549  1.00  0.00     0.190 HD
ENDROOT
BRANCH   2   5
HETATM    5  C   UNL     1      44.317 -11.149   6.428  1.00  0.00     0.228 C 
BRANCH   5   6
HETATM    6  N   UNL     1      44.405 -10.353   7.639  1.00  0.00    -0.334 N 
HETATM    7  C   UNL     1      45.567 -10.139   8.298  1.00  0.00     0.321 C 
HETATM    8  N   UNL     1      45.497  -9.660   9.568  1.00  0.00    -0.309 N 
HETATM    9  O   UNL     1      46.656 -10.311   7.750  1.00  0.00    -0.247 OA
HETATM   10  H   UNL     1      46.402  -9.355   9.905  1.00  0.00     0.170 HD
HETATM   11  H   UNL     1      43.645  -9.720   7.854  1.00  0.00     0.164 HD
BRANCH   8  12
HETATM   12  C   UNL     1      44.465  -9.695  10.531  1.00  0.00     0.036 A 
HETATM   13  C   UNL     1      44.095 -10.827  11.258  1.00  0.00     0.032 A 
HETATM   14  C   UNL     1      43.085 -10.752  12.225  1.00  0.00     0.039 A 
HETATM   15  C   UNL     1      42.450  -9.543  12.505  1.00  0.00     0.068 A 
HETATM   16  C   UNL     1      42.818  -8.406  11.792  1.00  0.00     0.039 A 
HETATM   17  C   UNL     1      43.822  -8.484  10.814  1.00  0.00     0.032 A 
BRANCH  15  18
HETATM   18  O   UNL     1      41.500  -9.607  13.485  1.00  0.00    -0.356 OA
HETATM   19  C   UNL     1      40.212 -10.068  13.095  1.00  0.00     0.210 C 
ENDBRANCH  15  18
ENDBRANCH   8  12
ENDBRANCH   5   6
ENDBRANCH   2   5
BRANCH   1  20
HETATM   20  N   UNL     1      41.661 -12.965   4.560  1.00  0.00    -0.249 N 
HETATM   21  C   UNL     1      41.617 -14.243   4.042  1.00  0.00     0.339 C 
HETATM   22  N   UNL     1      42.772 -14.963   4.234  1.00  0.00    -0.307 N 
HETATM   23  O   UNL     1      40.584 -14.633   3.509  1.00  0.00    -0.245 OA
HETATM   24  H   UNL     1      43.451 -14.480   4.800  1.00  0.00     0.170 HD
HETATM   25  H   UNL     1      40.886 -12.383   4.240  1.00  0.00     0.192 HD
BRANCH  22  26
HETATM   26  C   UNL     1      43.053 -16.281   3.816  1.00  0.00     0.042 A 
HETATM   27  C   UNL     1      43.833 -17.113   4.648  1.00  0.00    -0.034 A 
HETATM   28  C   UNL     1      44.356 -16.653   5.983  1.00  0.00     0.050 C 
HETATM   29  C   UNL     1      44.131 -18.424   4.229  1.00  0.00     0.032 A 
HETATM   30  C   UNL     1      43.662 -18.904   3.009  1.00  0.00     0.034 A 
HETATM   31  C   UNL     1      42.894 -18.090   2.188  1.00  0.00     0.026 A 
HETATM   32 CL   UNL     1      44.037 -20.510   2.517  1.00  0.00    -0.084 Cl
HETATM   33  C   UNL     1      42.593 -16.786   2.591  1.00  0.00     0.032 A 
ENDBRANCH  22  26
ENDBRANCH   1  20
TORSDOF 6
ENDMDL
MODEL 6
REMARK VINA RESULT:      -8.1      1.934      2.791
REMARK  6 active torsions:
REMARK  status: ('A' for Active; 'I' for Inactive)
REMARK    1  A    between atoms: C_3  and  N_4 
REMARK       I    between atoms: N_4  and  C_5 
REMARK       I    between atoms: C_5  and  N_6 
REMARK    2  A    between atoms: N_6  and  N_7 
REMARK       I    between atoms: N_7  and  C_8 
REMARK    3  A    between atoms: C_8  and  C_9 
REMARK    4  A    between atoms: C_9  and  N_10 
REMARK       I    between atoms: N_10  and  C_11 
REMARK       I    between atoms: C_11  and  N_12 
REMARK    5  A    between atoms: N_12  and  C_13 
REMARK    6  A    between atoms: C_16  and  O_17 
ROOT
HETATM    1  N   UNL     1      42.117 -10.998   6.764  1.00  0.00    -0.265 N 
HETATM    2  C   UNL     1      41.890  -9.759   7.349  1.00  0.00     0.253 C 
HETATM    3  O   UNL     1      40.756  -9.343   7.589  1.00  0.00    -0.270 OA
HETATM    4  H   UNL     1      43.010 -11.451   6.995  1.00  0.00     0.190 HD
ENDROOT
BRANCH   2   5
HETATM    5  C   UNL     1      43.134  -9.047   7.882  1.00  0.00     0.228 C 
BRANCH   5   6
HETATM    6  N   UNL     1      43.396  -9.141   9.306  1.00  0.00    -0.334 N 
HETATM    7  C   UNL     1      43.763 -10.294   9.915  1.00  0.00     0.321 C 
HETATM    8  N   UNL     1      43.674 -10.351  11.270  1.00  0.00    -0.309 N 
HETATM    9  O   UNL     1      44.219 -11.239   9.273  1.00  0.00    -0.247 OA
HETATM   10  H   UNL     1      44.142 -11.168  11.643  1.00  0.00     0.170 HD
HETATM   11  H   UNL     1      43.577  -8.288   9.819  1.00  0.00     0.164 HD
BRANCH   8  12
HETATM   12  C   UNL     1      42.908  -9.609  12.195  1.00  0.00     0.036 A 
HETATM   13  C   UNL     1      41.689 -10.026  12.730  1.00  0.00     0.032 A 
HETATM   14  C   UNL     1      41.023  -9.238  13.678  1.00  0.00     0.039 A 
HETATM   15  C   UNL     1      41.574  -8.040  14.128  1.00  0.00     0.068 A 
HETATM   16  C   UNL     1      42.794  -7.620  13.606  1.00  0.00     0.039 A 
HETATM   17  C   UNL     1      43.456  -8.403  12.649  1.00  0.00     0.032 A 
BRANCH  15  18
HETATM   18  O   UNL     1      40.830  -7.382  15.067  1.00  0.00    -0.356 OA
HETATM   19  C   UNL     1      39.765  -6.572  14.584  1.00  0.00     0.210 C 
ENDBRANCH  15  18
ENDBRANCH   8  12
ENDBRANCH   5   6
ENDBRANCH   2   5
BRANCH   1  20
HETATM   20  N   UNL     1      40.983 -11.843   6.698  1.00  0.00    -0.249 N 
HETATM   21  C   UNL     1      40.973 -13.003   5.952  1.00  0.00     0.339 C 
HETATM   22  N   UNL     1      42.221 -13.532   5.727  1.00  0.00    -0.307 N 
HETATM   23  O   UNL     1      39.898 -13.472   5.596  1.00  0.00    -0.245 OA
HETATM   24  H   UNL     1      42.955 -13.040   6.212  1.00  0.00     0.170 HD
HETATM   25  H   UNL     1      40.084 -11.360   6.687  1.00  0.00     0.192 HD
BRANCH  22  26
HETATM   26  C   UNL     1      42.554 -14.692   4.994  1.00  0.00     0.042 A 
HETATM   27  C   UNL     1      42.614 -15.933   5.665  1.00  0.00    -0.034 A 
HETATM   28  C   UNL     1      42.310 -16.069   7.133  1.00  0.00     0.050 C 
HETATM   29  C   UNL     1      42.961 -17.091   4.944  1.00  0.00     0.032 A 
HETATM   30  C   UNL     1      43.241 -17.023   3.581  1.00  0.00     0.034 A 
HETATM   31  C   UNL     1      43.182 -15.805   2.918  1.00  0.00     0.026 A 
HETATM   32 CL   UNL     1      43.661 -18.451   2.719  1.00  0.00    -0.084 Cl
HETATM   33  C   UNL     1      42.841 -14.648   3.623  1.00  0.00     0.032 A 
ENDBRANCH  22  26
ENDBRANCH   1  20
TORSDOF 6
ENDMDL
MODEL 7
REMARK VINA RESULT:      -8.0      4.277     10.511
REMARK  6 active torsions:
REMARK  status: ('A' for Active; 'I' for Inactive)
REMARK    1  A    between atoms: C_3  and  N_4 
REMARK       I    between atoms: N_4  and  C_5 
REMARK       I    between atoms: C_5  and  N_6 
REMARK    2  A    between atoms: N_6  and  N_7 
REMARK       I    between atoms: N_7  and  C_8 
REMARK    3  A    between atoms: C_8  and  C_9 
REMARK    4  A    between atoms: C_9  and  N_10 
REMARK       I    between atoms: N_10  and  C_11 
REMARK       I    between atoms: C_11  and  N_12 
REMARK    5  A    between atoms: N_12  and  C_13 
REMARK    6  A    between atoms: C_16  and  O_17 
ROOT
HETATM    1  N   UNL     1      40.992 -10.807   7.226  1.00  0.00    -0.265 N 
HETATM    2  C   UNL     1      41.873 -11.099   6.192  1.00  0.00     0.253 C 
HETATM    3  O   UNL     1      42.233 -10.250   5.376  1.00  0.00    -0.270 OA
HETATM    4  H   UNL     1      41.084 -11.380   8.075  1.00  0.00     0.190 HD
ENDROOT
BRANCH   2   5
HETATM    5  C   UNL     1      42.540 -12.473   6.267  1.00  0.00     0.228 C 
BRANCH   5   6
HETATM    6  N   UNL     1      41.999 -13.523   5.424  1.00  0.00    -0.334 N 
HETATM    7  C   UNL     1      40.851 -14.181   5.710  1.00  0.00     0.321 C 
HETATM    8  N   UNL     1      40.603 -15.340   5.045  1.00  0.00    -0.309 N 
HETATM    9  O   UNL     1      40.028 -13.720   6.499  1.00  0.00    -0.247 OA
HETATM   10  H   UNL     1      39.650 -15.655   5.182  1.00  0.00     0.170 HD
HETATM   11  H   UNL     1      42.326 -13.588   4.468  1.00  0.00     0.164 HD
BRANCH   8  12
HETATM   12  C   UNL     1      41.459 -16.249   4.386  1.00  0.00     0.036 A 
HETATM   13  C   UNL     1      41.443 -16.502   3.014  1.00  0.00     0.032 A 
HETATM   14  C   UNL     1      42.365 -17.391   2.445  1.00  0.00     0.039 A 
HETATM   15  C   UNL     1      43.334 -18.017   3.227  1.00  0.00     0.068 A 
HETATM   16  C   UNL     1      43.362 -17.764   4.596  1.00  0.00     0.039 A 
HETATM   17  C   UNL     1      42.433 -16.883   5.168  1.00  0.00     0.032 A 
BRANCH  15  18
HETATM   18  O   UNL     1      44.180 -18.842   2.542  1.00  0.00    -0.356 OA
HETATM   19  C   UNL     1      43.721 -20.165   2.295  1.00  0.00     0.210 C 
ENDBRANCH  15  18
ENDBRANCH   8  12
ENDBRANCH   5   6
ENDBRANCH   2   5
BRANCH   1  20
HETATM   20  N   UNL     1      40.742  -9.428   7.424  1.00  0.00    -0.249 N 
HETATM   21  C   UNL     1      40.632  -8.874   8.683  1.00  0.00     0.339 C 
HETATM   22  N   UNL     1      41.272  -9.591   9.665  1.00  0.00    -0.307 N 
HETATM   23  O   UNL     1      40.032  -7.813   8.815  1.00  0.00    -0.245 OA
HETATM   24  H   UNL     1      41.800 -10.371   9.308  1.00  0.00     0.170 HD
HETATM   25  H   UNL     1      40.105  -9.002   6.749  1.00  0.00     0.192 HD
BRANCH  22  26
HETATM   26  C   UNL     1      41.336  -9.305  11.046  1.00  0.00     0.042 A 
HETATM   27  C   UNL     1      42.571  -8.912  11.609  1.00  0.00    -0.034 A 
HETATM   28  C   UNL     1      43.819  -8.759  10.781  1.00  0.00     0.050 C 
HETATM   29  C   UNL     1      42.645  -8.641  12.988  1.00  0.00     0.032 A 
HETATM   30  C   UNL     1      41.517  -8.756  13.797  1.00  0.00     0.034 A 
HETATM   31  C   UNL     1      40.302  -9.141  13.248  1.00  0.00     0.026 A 
HETATM   32 CL   UNL     1      41.630  -8.419  15.481  1.00  0.00    -0.084 Cl
HETATM   33  C   UNL     1      40.215  -9.415  11.881  1.00  0.00     0.032 A 
ENDBRANCH  22  26
ENDBRANCH   1  20
TORSDOF 6
ENDMDL
MODEL 8
REMARK VINA RESULT:      -8.0      2.289      2.658
REMARK  6 active torsions:
REMARK  status: ('A' for Active; 'I' for Inactive)
REMARK    1  A    between atoms: C_3  and  N_4 
REMARK       I    between atoms: N_4  and  C_5 
REMARK       I    between atoms: C_5  and  N_6 
REMARK    2  A    between atoms: N_6  and  N_7 
REMARK       I    between atoms: N_7  and  C_8 
REMARK    3  A    between atoms: C_8  and  C_9 
REMARK    4  A    between atoms: C_9  and  N_10 
REMARK       I    between atoms: N_10  and  C_11 
REMARK       I    between atoms: C_11  and  N_12 
REMARK    5  A    between atoms: N_12  and  C_13 
REMARK    6  A    between atoms: C_16  and  O_17 
ROOT
HETATM    1  N   UNL     1      42.217 -13.399   6.341  1.00  0.00    -0.265 N 
HETATM    2  C   UNL     1      40.859 -13.140   6.210  1.00  0.00     0.253 C 
HETATM    3  O   UNL     1      39.998 -13.946   6.567  1.00  0.00    -0.270 OA
HETATM    4  H   UNL     1      42.827 -12.579   6.451  1.00  0.00     0.190 HD
ENDROOT
BRANCH   2   5
HETATM    5  C   UNL     1      40.500 -11.709   5.809  1.00  0.00     0.228 C 
BRANCH   5   6
HETATM    6  N   UNL     1      40.338 -10.739   6.877  1.00  0.00    -0.334 N 
HETATM    7  C   UNL     1      40.711  -9.443   6.760  1.00  0.00     0.321 C 
HETATM    8  N   UNL     1      40.811  -8.707   7.898  1.00  0.00    -0.309 N 
HETATM    9  O   UNL     1      40.893  -8.927   5.658  1.00  0.00    -0.247 OA
HETATM   10  H   UNL     1      40.907  -7.719   7.699  1.00  0.00     0.170 HD
HETATM   11  H   UNL     1      39.691 -10.953   7.626  1.00  0.00     0.164 HD
BRANCH   8  12
HETATM   12  C   UNL     1      40.998  -9.081   9.246  1.00  0.00     0.036 A 
HETATM   13  C   UNL     1      42.241  -9.253   9.857  1.00  0.00     0.032 A 
HETATM   14  C   UNL     1      42.324  -9.583  11.216  1.00  0.00     0.039 A 
HETATM   15  C   UNL     1      41.175  -9.716  11.994  1.00  0.00     0.068 A 
HETATM   16  C   UNL     1      39.931  -9.537  11.395  1.00  0.00     0.039 A 
HETATM   17  C   UNL     1      39.846  -9.218  10.031  1.00  0.00     0.032 A 
BRANCH  15  18
HETATM   18  O   UNL     1      41.401 -10.019  13.306  1.00  0.00    -0.356 OA
HETATM   19  C   UNL     1      41.934  -8.979  14.118  1.00  0.00     0.210 C 
ENDBRANCH  15  18
ENDBRANCH   8  12
ENDBRANCH   5   6
ENDBRANCH   2   5
BRANCH   1  20
HETATM   20  N   UNL     1      42.535 -14.528   7.135  1.00  0.00    -0.249 N 
HETATM   21  C   UNL     1      42.704 -15.785   6.591  1.00  0.00     0.339 C 
HETATM   22  N   UNL     1      43.054 -15.775   5.262  1.00  0.00    -0.307 N 
HETATM   23  O   UNL     1      42.572 -16.767   7.313  1.00  0.00    -0.245 OA
HETATM   24  H   UNL     1      43.219 -14.849   4.902  1.00  0.00     0.170 HD
HETATM   25  H   UNL     1      42.086 -14.552   8.052  1.00  0.00     0.192 HD
BRANCH  22  26
HETATM   26  C   UNL     1      43.284 -16.882   4.417  1.00  0.00     0.042 A 
HETATM   27  C   UNL     1      42.507 -17.024   3.246  1.00  0.00    -0.034 A 
HETATM   28  C   UNL     1      41.458 -16.019   2.850  1.00  0.00     0.050 C 
HETATM   29  C   UNL     1      42.720 -18.134   2.407  1.00  0.00     0.032 A 
HETATM   30  C   UNL     1      43.687 -19.087   2.721  1.00  0.00     0.034 A 
HETATM   31  C   UNL     1      44.452 -18.951   3.871  1.00  0.00     0.026 A 
HETATM   32 CL   UNL     1      43.931 -20.436   1.681  1.00  0.00    -0.084 Cl
HETATM   33  C   UNL     1      44.249 -17.855   4.713  1.00  0.00     0.032 A 
ENDBRANCH  22  26
ENDBRANCH   1  20
TORSDOF 6
ENDMDL
MODEL 9
REMARK VINA RESULT:      -8.0     17.665     20.139
REMARK  6 active torsions:
REMARK  status: ('A' for Active; 'I' for Inactive)
REMARK    1  A    between atoms: C_3  and  N_4 
REMARK       I    between atoms: N_4  and  C_5 
REMARK       I    between atoms: C_5  and  N_6 
REMARK    2  A    between atoms: N_6  and  N_7 
REMARK       I    between atoms: N_7  and  C_8 
REMARK    3  A    between atoms: C_8  and  C_9 
REMARK    4  A    between atoms: C_9  and  N_10 
REMARK       I    between atoms: N_10  and  C_11 
REMARK       I    between atoms: C_11  and  N_12 
REMARK    5  A    between atoms: N_12  and  C_13 
REMARK    6  A    between atoms: C_16  and  O_17 
ROOT
HETATM    1  N   UNL     1      45.012 -28.837   3.030  1.00  0.00    -0.265 N 
HETATM    2  C   UNL     1      45.869 -29.929   3.051  1.00  0.00     0.253 C 
HETATM    3  O   UNL     1      45.465 -31.086   2.925  1.00  0.00    -0.270 OA
HETATM    4  H   UNL     1      45.414 -27.951   2.699  1.00  0.00     0.190 HD
ENDROOT
BRANCH   2   5
HETATM    5  C   UNL     1      47.360 -29.593   3.010  1.00  0.00     0.228 C 
BRANCH   5   6
HETATM    6  N   UNL     1      47.979 -29.464   1.703  1.00  0.00    -0.334 N 
HETATM    7  C   UNL     1      47.570 -28.563   0.779  1.00  0.00     0.321 C 
HETATM    8  N   UNL     1      47.992 -28.734  -0.502  1.00  0.00    -0.309 N 
HETATM    9  O   UNL     1      46.890 -27.587   1.093  1.00  0.00    -0.247 OA
HETATM   10  H   UNL     1      47.797 -27.921  -1.073  1.00  0.00     0.170 HD
HETATM   11  H   UNL     1      48.902 -29.856   1.568  1.00  0.00     0.164 HD
BRANCH   8  12
HETATM   12  C   UNL     1      48.455 -29.873  -1.196  1.00  0.00     0.036 A 
HETATM   13  C   UNL     1      47.635 -30.878  -1.709  1.00  0.00     0.032 A 
HETATM   14  C   UNL     1      48.187 -31.949  -2.423  1.00  0.00     0.039 A 
HETATM   15  C   UNL     1      49.558 -32.020  -2.664  1.00  0.00     0.068 A 
HETATM   16  C   UNL     1      50.383 -31.017  -2.163  1.00  0.00     0.039 A 
HETATM   17  C   UNL     1      49.833 -29.950  -1.438  1.00  0.00     0.032 A 
BRANCH  15  18
HETATM   18  O   UNL     1      49.958 -33.106  -3.390  1.00  0.00    -0.356 OA
HETATM   19  C   UNL     1      50.727 -32.844  -4.558  1.00  0.00     0.210 C 
ENDBRANCH  15  18
ENDBRANCH   8  12
ENDBRANCH   5   6
ENDBRANCH   2   5
BRANCH   1  20
HETATM   20  N   UNL     1      43.692 -29.124   2.605  1.00  0.00    -0.249 N 
HETATM   21  C   UNL     1      43.347 -29.192   1.271  1.00  0.00     0.339 C 
HETATM   22  N   UNL     1      44.401 -29.477   0.436  1.00  0.00    -0.307 N 
HETATM   23  O   UNL     1      42.174 -29.036   0.952  1.00  0.00    -0.245 OA
HETATM   24  H   UNL     1      45.255 -29.680   0.930  1.00  0.00     0.170 HD
HETATM   25  H   UNL     1      42.954 -28.720   3.183  1.00  0.00     0.192 HD
BRANCH  22  26
HETATM   26  C   UNL     1      44.386 -29.600  -0.970  1.00  0.00     0.042 A 
HETATM   27  C   UNL     1      44.107 -30.859  -1.546  1.00  0.00    -0.034 A 
HETATM   28  C   UNL     1      43.796 -32.073  -0.712  1.00  0.00     0.050 C 
HETATM   29  C   UNL     1      44.107 -30.992  -2.947  1.00  0.00     0.032 A 
HETATM   30  C   UNL     1      44.376 -29.896  -3.765  1.00  0.00     0.034 A 
HETATM   31  C   UNL     1      44.651 -28.657  -3.203  1.00  0.00     0.026 A 
HETATM   32 CL   UNL     1      44.370 -30.081  -5.476  1.00  0.00    -0.084 Cl
HETATM   33  C   UNL     1      44.656 -28.513  -1.813  1.00  0.00     0.032 A 
ENDBRANCH  22  26
ENDBRANCH   1  20
TORSDOF 6
ENDMDL
MODEL 10
REMARK VINA RESULT:      -7.9      3.739      6.504
REMARK  6 active torsions:
REMARK  status: ('A' for Active; 'I' for Inactive)
REMARK    1  A    between atoms: C_3  and  N_4 
REMARK       I    between atoms: N_4  and  C_5 
REMARK       I    between atoms: C_5  and  N_6 
REMARK    2  A    between atoms: N_6  and  N_7 
REMARK       I    between atoms: N_7  and  C_8 
REMARK    3  A    between atoms: C_8  and  C_9 
REMARK    4  A    between atoms: C_9  and  N_10 
REMARK       I    between atoms: N_10  and  C_11 
REMARK       I    between atoms: C_11  and  N_12 
REMARK    5  A    between atoms: N_12  and  C_13 
REMARK    6  A    between atoms: C_16  and  O_17 
ROOT
HETATM    1  N   UNL     1      42.689 -13.199   6.824  1.00  0.00    -0.265 N 
HETATM    2  C   UNL     1      43.424 -12.035   7.004  1.00  0.00     0.253 C 
HETATM    3  O   UNL     1      44.295 -11.934   7.869  1.00  0.00    -0.270 OA
HETATM    4  H   UNL     1      42.336 -13.371   5.874  1.00  0.00     0.190 HD
ENDROOT
BRANCH   2   5
HETATM    5  C   UNL     1      43.244 -10.972   5.920  1.00  0.00     0.228 C 
BRANCH   5   6
HETATM    6  N   UNL     1      42.605 -11.382   4.683  1.00  0.00    -0.334 N 
HETATM    7  C   UNL     1      43.259 -11.438   3.499  1.00  0.00     0.321 C 
HETATM    8  N   UNL     1      42.512 -11.523   2.367  1.00  0.00    -0.309 N 
HETATM    9  O   UNL     1      44.487 -11.474   3.447  1.00  0.00    -0.247 OA
HETATM   10  H   UNL     1      43.079 -11.750   1.559  1.00  0.00     0.170 HD
HETATM   11  H   UNL     1      41.735 -11.897   4.739  1.00  0.00     0.164 HD
BRANCH   8  12
HETATM   12  C   UNL     1      41.172 -11.171   2.095  1.00  0.00     0.036 A 
HETATM   13  C   UNL     1      40.085 -12.038   2.204  1.00  0.00     0.032 A 
HETATM   14  C   UNL     1      38.784 -11.582   1.954  1.00  0.00     0.039 A 
HETATM   15  C   UNL     1      38.543 -10.250   1.623  1.00  0.00     0.068 A 
HETATM   16  C   UNL     1      39.620  -9.375   1.521  1.00  0.00     0.039 A 
HETATM   17  C   UNL     1      40.924  -9.834   1.759  1.00  0.00     0.032 A 
BRANCH  15  18
HETATM   18  O   UNL     1      37.228  -9.936   1.427  1.00  0.00    -0.356 OA
HETATM   19  C   UNL     1      36.893  -8.554   1.440  1.00  0.00     0.210 C 
ENDBRANCH  15  18
ENDBRANCH   8  12
ENDBRANCH   5   6
ENDBRANCH   2   5
BRANCH   1  20
HETATM   20  N   UNL     1      43.180 -14.328   7.524  1.00  0.00    -0.249 N 
HETATM   21  C   UNL     1      43.275 -15.573   6.938  1.00  0.00     0.339 C 
HETATM   22  N   UNL     1      43.366 -15.538   5.567  1.00  0.00    -0.307 N 
HETATM   23  O   UNL     1      43.307 -16.567   7.655  1.00  0.00    -0.245 OA
HETATM   24  H   UNL     1      43.436 -14.604   5.197  1.00  0.00     0.170 HD
HETATM   25  H   UNL     1      42.914 -14.375   8.509  1.00  0.00     0.192 HD
BRANCH  22  26
HETATM   26  C   UNL     1      43.459 -16.628   4.675  1.00  0.00     0.042 A 
HETATM   27  C   UNL     1      42.720 -16.595   3.472  1.00  0.00    -0.034 A 
HETATM   28  C   UNL     1      41.855 -15.424   3.092  1.00  0.00     0.050 C 
HETATM   29  C   UNL     1      42.795 -17.687   2.586  1.00  0.00     0.032 A 
HETATM   30  C   UNL     1      43.591 -18.791   2.884  1.00  0.00     0.034 A 
HETATM   31  C   UNL     1      44.319 -18.827   4.065  1.00  0.00     0.026 A 
HETATM   32 CL   UNL     1      43.669 -20.114   1.787  1.00  0.00    -0.084 Cl
HETATM   33  C   UNL     1      44.251 -17.751   4.954  1.00  0.00     0.032 A 
ENDBRANCH  22  26
ENDBRANCH   1  20
TORSDOF 6
ENDMDL
