MODEL 1
REMARK VINA RESULT:      -8.9      0.000      0.000
REMARK  8 active torsions:
REMARK  status: ('A' for Active; 'I' for Inactive)
REMARK    1  A    between atoms: C_2  and  S_3 
REMARK    2  A    between atoms: C_2  and  C_24 
REMARK    3  A    between atoms: S_3  and  C_4 
REMARK    4  A    between atoms: N_5  and  C_6 
REMARK    5  A    between atoms: C_13  and  C_14 
REMARK    6  A    between atoms: C_14  and  N_15 
REMARK       I    between atoms: C_24  and  N_25 
REMARK    7  A    between atoms: N_25  and  C_26 
REMARK    8  A    between atoms: C_29  and  C_30 
REMARK       I    between atoms: C_30  and  N_31 
ROOT
HETATM    1  C   UNL     1      42.467 -11.115   4.102  1.00  0.00     0.197 A 
HETATM    2  N   UNL     1      42.168 -11.474   5.405  1.00  0.00    -0.274 N 
HETATM    3  C   UNL     1      41.743 -10.284   5.987  1.00  0.00     0.161 A 
HETATM    4  N   UNL     1      41.774  -9.315   5.092  1.00  0.00    -0.132 NA
HETATM    5  N   UNL     1      42.189  -9.846   3.908  1.00  0.00    -0.122 NA
ENDROOT
BRANCH   1   6
HETATM    6  S   UNL     1      42.842 -12.200   2.806  1.00  0.00    -0.076 SA
BRANCH   6   7
HETATM    7  C   UNL     1      41.284 -13.105   2.504  1.00  0.00     0.143 C 
HETATM    8  C   UNL     1      40.796 -12.843   1.084  1.00  0.00     0.031 C 
BRANCH   7   9
HETATM    9  C   UNL     1      41.366 -14.599   2.821  1.00  0.00     0.236 C 
HETATM   10  N   UNL     1      42.650 -15.107   2.902  1.00  0.00    -0.326 N 
HETATM   11  H   UNL     1      43.379 -14.429   3.098  1.00  0.00     0.169 HD
HETATM   12  O   UNL     1      40.335 -15.230   3.057  1.00  0.00    -0.272 OA
BRANCH  10  13
HETATM   13  C   UNL     1      42.980 -16.451   3.165  1.00  0.00     0.034 A 
HETATM   14  C   UNL     1      43.425 -16.897   4.412  1.00  0.00     0.030 A 
HETATM   15  C   UNL     1      43.758 -18.243   4.605  1.00  0.00     0.019 A 
HETATM   16  C   UNL     1      43.654 -19.148   3.544  1.00  0.00     0.032 A 
HETATM   17  C   UNL     1      43.198 -18.706   2.298  1.00  0.00     0.019 A 
HETATM   18  C   UNL     1      42.843 -17.368   2.116  1.00  0.00     0.030 A 
BRANCH  16  19
HETATM   19  C   UNL     1      44.063 -20.566   3.681  1.00  0.00     0.249 C 
HETATM   20  N   UNL     1      44.471 -20.983   4.916  1.00  0.00    -0.366 N 
HETATM   21  H   UNL     1      44.291 -20.449   5.754  1.00  0.00     0.159 HD
HETATM   22  H   UNL     1      44.635 -21.977   5.025  1.00  0.00     0.159 HD
HETATM   23  O   UNL     1      44.016 -21.332   2.727  1.00  0.00    -0.268 OA
ENDBRANCH  16  19
ENDBRANCH  10  13
ENDBRANCH   7   9
ENDBRANCH   6   7
ENDBRANCH   1   6
BRANCH   2  24
HETATM   24  C   UNL     1      42.270 -12.742   6.027  1.00  0.00     0.043 A 
HETATM   25  C   UNL     1      43.502 -13.174   6.541  1.00  0.00     0.033 A 
HETATM   26  C   UNL     1      43.599 -14.431   7.141  1.00  0.00     0.044 A 
HETATM   27  C   UNL     1      42.476 -15.245   7.224  1.00  0.00     0.116 A 
HETATM   28  F   UNL     1      42.573 -16.451   7.795  1.00  0.00    -0.206 F 
HETATM   29  C   UNL     1      41.250 -14.826   6.719  1.00  0.00     0.044 A 
HETATM   30  C   UNL     1      41.142 -13.569   6.118  1.00  0.00     0.033 A 
ENDBRANCH   2  24
BRANCH   3  31
HETATM   31  C   UNL     1      41.463 -10.065   7.432  1.00  0.00     0.315 C 
BRANCH  31  32
HETATM   32  N   UNL     1      42.714 -10.241   8.290  1.00  0.00    -0.064 N 
HETATM   33  H   UNL     1      42.851 -11.264   8.339  1.00  0.00     0.280 HD
HETATM   34  C   UNL     1      43.953  -9.681   7.628  1.00  0.00     0.235 C 
HETATM   35  C   UNL     1      45.177 -10.036   8.460  1.00  0.00     0.028 C 
HETATM   36  C   UNL     1      45.040  -9.541   9.895  1.00  0.00     0.003 C 
HETATM   37  C   UNL     1      43.753 -10.055  10.532  1.00  0.00     0.028 C 
HETATM   38  C   UNL     1      42.529  -9.722   9.690  1.00  0.00     0.235 C 
ENDBRANCH  31  32
ENDBRANCH   3  31
TORSDOF 8
ENDMDL
MODEL 2
REMARK VINA RESULT:      -8.7      4.101      9.581
REMARK  8 active torsions:
REMARK  status: ('A' for Active; 'I' for Inactive)
REMARK    1  A    between atoms: C_2  and  S_3 
REMARK    2  A    between atoms: C_2  and  C_24 
REMARK    3  A    between atoms: S_3  and  C_4 
REMARK    4  A    between atoms: N_5  and  C_6 
REMARK    5  A    between atoms: C_13  and  C_14 
REMARK    6  A    between atoms: C_14  and  N_15 
REMARK       I    between atoms: C_24  and  N_25 
REMARK    7  A    between atoms: N_25  and  C_26 
REMARK    8  A    between atoms: C_29  and  C_30 
REMARK       I    between atoms: C_30  and  N_31 
ROOT
HETATM    1  C   UNL     1      44.110 -11.741   5.823  1.00  0.00     0.197 A 
HETATM    2  N   UNL     1      43.275 -12.589   5.118  1.00  0.00    -0.274 N 
HETATM    3  C   UNL     1      43.571 -12.313   3.787  1.00  0.00     0.161 A 
HETATM    4  N   UNL     1      44.514 -11.393   3.722  1.00  0.00    -0.132 NA
HETATM    5  N   UNL     1      44.875 -11.067   4.994  1.00  0.00    -0.122 NA
ENDROOT
BRANCH   1   6
HETATM    6  S   UNL     1      44.375 -11.760   7.534  1.00  0.00    -0.076 SA
BRANCH   6   7
HETATM    7  C   UNL     1      43.643 -10.195   8.128  1.00  0.00     0.143 C 
HETATM    8  C   UNL     1      42.293  -9.964   7.457  1.00  0.00     0.031 C 
BRANCH   7   9
HETATM    9  C   UNL     1      43.558 -10.092   9.650  1.00  0.00     0.236 C 
HETATM   10  N   UNL     1      42.686  -9.127  10.121  1.00  0.00    -0.326 N 
HETATM   11  H   UNL     1      41.955  -8.843   9.477  1.00  0.00     0.169 HD
HETATM   12  O   UNL     1      44.180 -10.890  10.352  1.00  0.00    -0.272 OA
BRANCH  10  13
HETATM   13  C   UNL     1      42.449  -8.833  11.478  1.00  0.00     0.034 A 
HETATM   14  C   UNL     1      41.343  -9.317  12.182  1.00  0.00     0.030 A 
HETATM   15  C   UNL     1      41.152  -8.972  13.525  1.00  0.00     0.019 A 
HETATM   16  C   UNL     1      42.067  -8.133  14.167  1.00  0.00     0.032 A 
HETATM   17  C   UNL     1      43.180  -7.656  13.469  1.00  0.00     0.019 A 
HETATM   18  C   UNL     1      43.381  -8.023  12.137  1.00  0.00     0.030 A 
BRANCH  16  19
HETATM   19  C   UNL     1      41.869  -7.683  15.566  1.00  0.00     0.249 C 
HETATM   20  N   UNL     1      42.660  -6.662  16.013  1.00  0.00    -0.366 N 
HETATM   21  H   UNL     1      43.189  -6.073  15.385  1.00  0.00     0.159 HD
HETATM   22  H   UNL     1      42.438  -6.285  16.927  1.00  0.00     0.159 HD
HETATM   23  O   UNL     1      41.016  -8.195  16.281  1.00  0.00    -0.268 OA
ENDBRANCH  16  19
ENDBRANCH  10  13
ENDBRANCH   7   9
ENDBRANCH   6   7
ENDBRANCH   1   6
BRANCH   2  24
HETATM   24  C   UNL     1      42.327 -13.519   5.609  1.00  0.00     0.043 A 
HETATM   25  C   UNL     1      40.989 -13.134   5.781  1.00  0.00     0.033 A 
HETATM   26  C   UNL     1      40.063 -14.053   6.278  1.00  0.00     0.044 A 
HETATM   27  C   UNL     1      40.472 -15.340   6.600  1.00  0.00     0.116 A 
HETATM   28  F   UNL     1      39.583 -16.217   7.081  1.00  0.00    -0.206 F 
HETATM   29  C   UNL     1      41.795 -15.733   6.432  1.00  0.00     0.044 A 
HETATM   30  C   UNL     1      42.730 -14.822   5.934  1.00  0.00     0.033 A 
ENDBRANCH   2  24
BRANCH   3  31
HETATM   31  C   UNL     1      42.833 -12.824   2.600  1.00  0.00     0.315 C 
BRANCH  31  32
HETATM   32  N   UNL     1      42.552 -14.322   2.703  1.00  0.00    -0.064 N 
HETATM   33  H   UNL     1      42.747 -14.554   3.691  1.00  0.00     0.280 HD
HETATM   34  C   UNL     1      41.094 -14.654   2.471  1.00  0.00     0.235 C 
HETATM   35  C   UNL     1      40.860 -16.132   2.749  1.00  0.00     0.028 C 
HETATM   36  C   UNL     1      41.773 -17.011   1.902  1.00  0.00     0.003 C 
HETATM   37  C   UNL     1      43.236 -16.624   2.089  1.00  0.00     0.028 C 
HETATM   38  C   UNL     1      43.469 -15.141   1.835  1.00  0.00     0.235 C 
ENDBRANCH  31  32
ENDBRANCH   3  31
TORSDOF 8
ENDMDL
MODEL 3
REMARK VINA RESULT:      -8.6      2.473      3.890
REMARK  8 active torsions:
REMARK  status: ('A' for Active; 'I' for Inactive)
REMARK    1  A    between atoms: C_2  and  S_3 
REMARK    2  A    between atoms: C_2  and  C_24 
REMARK    3  A    between atoms: S_3  and  C_4 
REMARK    4  A    between atoms: N_5  and  C_6 
REMARK    5  A    between atoms: C_13  and  C_14 
REMARK    6  A    between atoms: C_14  and  N_15 
REMARK       I    between atoms: C_24  and  N_25 
REMARK    7  A    between atoms: N_25  and  C_26 
REMARK    8  A    between atoms: C_29  and  C_30 
REMARK       I    between atoms: C_30  and  N_31 
ROOT
HETATM    1  C   UNL     1      43.332 -11.725   6.576  1.00  0.00     0.197 A 
HETATM    2  N   UNL     1      42.745 -10.561   7.039  1.00  0.00    -0.274 N 
HETATM    3  C   UNL     1      43.464 -10.263   8.191  1.00  0.00     0.161 A 
HETATM    4  N   UNL     1      44.406 -11.168   8.375  1.00  0.00    -0.132 NA
HETATM    5  N   UNL     1      44.345 -12.057   7.344  1.00  0.00    -0.122 NA
ENDROOT
BRANCH   1   6
HETATM    6  S   UNL     1      43.027 -12.484   5.050  1.00  0.00    -0.076 SA
BRANCH   6   7
HETATM    7  C   UNL     1      41.461 -13.394   5.298  1.00  0.00     0.143 C 
HETATM    8  C   UNL     1      40.332 -12.700   4.543  1.00  0.00     0.031 C 
BRANCH   7   9
HETATM    9  C   UNL     1      41.552 -14.882   4.963  1.00  0.00     0.236 C 
HETATM   10  N   UNL     1      42.708 -15.261   4.304  1.00  0.00    -0.326 N 
HETATM   11  H   UNL     1      43.503 -14.641   4.418  1.00  0.00     0.169 HD
HETATM   12  O   UNL     1      40.670 -15.650   5.350  1.00  0.00    -0.272 OA
BRANCH  10  13
HETATM   13  C   UNL     1      43.012 -16.570   3.879  1.00  0.00     0.034 A 
HETATM   14  C   UNL     1      42.612 -17.083   2.643  1.00  0.00     0.030 A 
HETATM   15  C   UNL     1      42.928 -18.399   2.286  1.00  0.00     0.019 A 
HETATM   16  C   UNL     1      43.642 -19.210   3.173  1.00  0.00     0.032 A 
HETATM   17  C   UNL     1      44.054 -18.696   4.406  1.00  0.00     0.019 A 
HETATM   18  C   UNL     1      43.759 -17.375   4.747  1.00  0.00     0.030 A 
BRANCH  16  19
HETATM   19  C   UNL     1      43.937 -20.631   2.870  1.00  0.00     0.249 C 
HETATM   20  N   UNL     1      44.109 -21.475   3.931  1.00  0.00    -0.366 N 
HETATM   21  H   UNL     1      43.825 -21.229   4.869  1.00  0.00     0.159 HD
HETATM   22  H   UNL     1      44.194 -22.461   3.715  1.00  0.00     0.159 HD
HETATM   23  O   UNL     1      44.004 -21.031   1.714  1.00  0.00    -0.268 OA
ENDBRANCH  16  19
ENDBRANCH  10  13
ENDBRANCH   7   9
ENDBRANCH   6   7
ENDBRANCH   1   6
BRANCH   2  24
HETATM   24  C   UNL     1      41.660  -9.831   6.494  1.00  0.00     0.043 A 
HETATM   25  C   UNL     1      41.887  -8.891   5.478  1.00  0.00     0.033 A 
HETATM   26  C   UNL     1      40.815  -8.164   4.956  1.00  0.00     0.044 A 
HETATM   27  C   UNL     1      39.533  -8.376   5.446  1.00  0.00     0.116 A 
HETATM   28  F   UNL     1      38.508  -7.675   4.947  1.00  0.00    -0.206 F 
HETATM   29  C   UNL     1      39.297  -9.306   6.453  1.00  0.00     0.044 A 
HETATM   30  C   UNL     1      40.362 -10.040   6.982  1.00  0.00     0.033 A 
ENDBRANCH   2  24
BRANCH   3  31
HETATM   31  C   UNL     1      43.136  -9.201   9.181  1.00  0.00     0.315 C 
BRANCH  31  32
HETATM   32  N   UNL     1      42.400  -9.760  10.396  1.00  0.00    -0.064 N 
HETATM   33  H   UNL     1      42.371 -10.780  10.234  1.00  0.00     0.280 HD
HETATM   34  C   UNL     1      43.171  -9.560  11.683  1.00  0.00     0.235 C 
HETATM   35  C   UNL     1      42.460 -10.281  12.818  1.00  0.00     0.028 C 
HETATM   36  C   UNL     1      41.015  -9.817  12.957  1.00  0.00     0.003 C 
HETATM   37  C   UNL     1      40.264  -9.957  11.638  1.00  0.00     0.028 C 
HETATM   38  C   UNL     1      40.985  -9.257  10.494  1.00  0.00     0.235 C 
ENDBRANCH  31  32
ENDBRANCH   3  31
TORSDOF 8
ENDMDL
MODEL 4
REMARK VINA RESULT:      -8.6      2.855      5.887
REMARK  8 active torsions:
REMARK  status: ('A' for Active; 'I' for Inactive)
REMARK    1  A    between atoms: C_2  and  S_3 
REMARK    2  A    between atoms: C_2  and  C_24 
REMARK    3  A    between atoms: S_3  and  C_4 
REMARK    4  A    between atoms: N_5  and  C_6 
REMARK    5  A    between atoms: C_13  and  C_14 
REMARK    6  A    between atoms: C_14  and  N_15 
REMARK       I    between atoms: C_24  and  N_25 
REMARK    7  A    between atoms: N_25  and  C_26 
REMARK    8  A    between atoms: C_29  and  C_30 
REMARK       I    between atoms: C_30  and  N_31 
ROOT
HETATM    1  C   UNL     1      41.914 -11.062   3.808  1.00  0.00     0.197 A 
HETATM    2  N   UNL     1      40.955 -11.423   2.878  1.00  0.00    -0.274 N 
HETATM    3  C   UNL     1      40.314 -10.225   2.581  1.00  0.00     0.161 A 
HETATM    4  N   UNL     1      40.866  -9.243   3.267  1.00  0.00    -0.132 NA
HETATM    5  N   UNL     1      41.889  -9.762   4.001  1.00  0.00    -0.122 NA
ENDROOT
BRANCH   1   6
HETATM    6  S   UNL     1      43.186 -12.072   4.406  1.00  0.00    -0.076 SA
BRANCH   6   7
HETATM    7  C   UNL     1      42.373 -13.144   5.643  1.00  0.00     0.143 C 
HETATM    8  C   UNL     1      41.037 -12.539   6.059  1.00  0.00     0.031 C 
BRANCH   7   9
HETATM    9  C   UNL     1      42.237 -14.602   5.203  1.00  0.00     0.236 C 
HETATM   10  N   UNL     1      43.340 -15.117   4.548  1.00  0.00    -0.326 N 
HETATM   11  H   UNL     1      44.220 -14.644   4.727  1.00  0.00     0.169 HD
HETATM   12  O   UNL     1      41.230 -15.240   5.510  1.00  0.00    -0.272 OA
BRANCH  10  13
HETATM   13  C   UNL     1      43.447 -16.425   4.035  1.00  0.00     0.034 A 
HETATM   14  C   UNL     1      42.989 -16.787   2.766  1.00  0.00     0.030 A 
HETATM   15  C   UNL     1      43.105 -18.110   2.322  1.00  0.00     0.019 A 
HETATM   16  C   UNL     1      43.674 -19.079   3.153  1.00  0.00     0.032 A 
HETATM   17  C   UNL     1      44.143 -18.717   4.420  1.00  0.00     0.019 A 
HETATM   18  C   UNL     1      44.049 -17.392   4.849  1.00  0.00     0.030 A 
BRANCH  16  19
HETATM   19  C   UNL     1      43.753 -20.505   2.755  1.00  0.00     0.249 C 
HETATM   20  N   UNL     1      44.067 -21.410   3.729  1.00  0.00    -0.366 N 
HETATM   21  H   UNL     1      44.020 -21.184   4.713  1.00  0.00     0.159 HD
HETATM   22  H   UNL     1      44.003 -22.388   3.474  1.00  0.00     0.159 HD
HETATM   23  O   UNL     1      43.525 -20.853   1.604  1.00  0.00    -0.268 OA
ENDBRANCH  16  19
ENDBRANCH  10  13
ENDBRANCH   7   9
ENDBRANCH   6   7
ENDBRANCH   1   6
BRANCH   2  24
HETATM   24  C   UNL     1      40.666 -12.703   2.345  1.00  0.00     0.043 A 
HETATM   25  C   UNL     1      41.387 -13.184   1.242  1.00  0.00     0.033 A 
HETATM   26  C   UNL     1      41.088 -14.441   0.714  1.00  0.00     0.044 A 
HETATM   27  C   UNL     1      40.078 -15.206   1.282  1.00  0.00     0.116 A 
HETATM   28  F   UNL     1      39.789 -16.408   0.770  1.00  0.00    -0.206 F 
HETATM   29  C   UNL     1      39.358 -14.740   2.377  1.00  0.00     0.044 A 
HETATM   30  C   UNL     1      39.650 -13.484   2.915  1.00  0.00     0.033 A 
ENDBRANCH   2  24
BRANCH   3  31
HETATM   31  C   UNL     1      39.081 -10.069   1.761  1.00  0.00     0.315 C 
BRANCH  31  32
HETATM   32  N   UNL     1      39.189 -10.796   0.423  1.00  0.00    -0.064 N 
HETATM   33  H   UNL     1      39.894 -11.534   0.585  1.00  0.00     0.280 HD
HETATM   34  C   UNL     1      37.909 -11.513   0.049  1.00  0.00     0.235 C 
HETATM   35  C   UNL     1      38.141 -12.343  -1.205  1.00  0.00     0.028 C 
HETATM   36  C   UNL     1      38.656 -11.487  -2.355  1.00  0.00     0.003 C 
HETATM   37  C   UNL     1      39.906 -10.715  -1.948  1.00  0.00     0.028 C 
HETATM   38  C   UNL     1      39.685  -9.901  -0.680  1.00  0.00     0.235 C 
ENDBRANCH  31  32
ENDBRANCH   3  31
TORSDOF 8
ENDMDL
MODEL 5
REMARK VINA RESULT:      -8.4      4.156      9.825
REMARK  8 active torsions:
REMARK  status: ('A' for Active; 'I' for Inactive)
REMARK    1  A    between atoms: C_2  and  S_3 
REMARK    2  A    between atoms: C_2  and  C_24 
REMARK    3  A    between atoms: S_3  and  C_4 
REMARK    4  A    between atoms: N_5  and  C_6 
REMARK    5  A    between atoms: C_13  and  C_14 
REMARK    6  A    between atoms: C_14  and  N_15 
REMARK       I    between atoms: C_24  and  N_25 
REMARK    7  A    between atoms: N_25  and  C_26 
REMARK    8  A    between atoms: C_29  and  C_30 
REMARK       I    between atoms: C_30  and  N_31 
ROOT
HETATM    1  C   UNL     1      43.181 -13.150   6.646  1.00  0.00     0.197 A 
HETATM    2  N   UNL     1      42.438 -13.880   5.735  1.00  0.00    -0.274 N 
HETATM    3  C   UNL     1      42.379 -15.150   6.297  1.00  0.00     0.161 A 
HETATM    4  N   UNL     1      43.020 -15.157   7.451  1.00  0.00    -0.132 NA
HETATM    5  N   UNL     1      43.485 -13.898   7.683  1.00  0.00    -0.122 NA
ENDROOT
BRANCH   1   6
HETATM    6  S   UNL     1      43.422 -11.436   6.625  1.00  0.00    -0.076 SA
BRANCH   6   7
HETATM    7  C   UNL     1      44.394 -11.094   8.135  1.00  0.00     0.143 C 
HETATM    8  C   UNL     1      45.774 -10.567   7.757  1.00  0.00     0.031 C 
BRANCH   7   9
HETATM    9  C   UNL     1      43.681 -10.183   9.135  1.00  0.00     0.236 C 
HETATM   10  N   UNL     1      44.093 -10.324  10.447  1.00  0.00    -0.326 N 
HETATM   11  H   UNL     1      45.018 -10.719  10.578  1.00  0.00     0.169 HD
HETATM   12  O   UNL     1      42.869  -9.350   8.730  1.00  0.00    -0.272 OA
BRANCH  10  13
HETATM   13  C   UNL     1      43.575  -9.610  11.546  1.00  0.00     0.034 A 
HETATM   14  C   UNL     1      43.853  -8.261  11.778  1.00  0.00     0.030 A 
HETATM   15  C   UNL     1      43.324  -7.612  12.901  1.00  0.00     0.019 A 
HETATM   16  C   UNL     1      42.520  -8.317  13.801  1.00  0.00     0.032 A 
HETATM   17  C   UNL     1      42.231  -9.665  13.565  1.00  0.00     0.019 A 
HETATM   18  C   UNL     1      42.739 -10.301  12.430  1.00  0.00     0.030 A 
BRANCH  16  19
HETATM   19  C   UNL     1      41.998  -7.693  15.040  1.00  0.00     0.249 C 
HETATM   20  N   UNL     1      42.778  -6.746  15.640  1.00  0.00    -0.366 N 
HETATM   21  H   UNL     1      43.556  -6.306  15.168  1.00  0.00     0.159 HD
HETATM   22  H   UNL     1      42.363  -6.244  16.416  1.00  0.00     0.159 HD
HETATM   23  O   UNL     1      40.903  -8.003  15.491  1.00  0.00    -0.268 OA
ENDBRANCH  16  19
ENDBRANCH  10  13
ENDBRANCH   7   9
ENDBRANCH   6   7
ENDBRANCH   1   6
BRANCH   2  24
HETATM   24  C   UNL     1      41.869 -13.460   4.508  1.00  0.00     0.043 A 
HETATM   25  C   UNL     1      40.507 -13.131   4.442  1.00  0.00     0.033 A 
HETATM   26  C   UNL     1      39.950 -12.731   3.225  1.00  0.00     0.044 A 
HETATM   27  C   UNL     1      40.747 -12.665   2.090  1.00  0.00     0.116 A 
HETATM   28  F   UNL     1      40.209 -12.286   0.924  1.00  0.00    -0.206 F 
HETATM   29  C   UNL     1      42.098 -12.988   2.144  1.00  0.00     0.044 A 
HETATM   30  C   UNL     1      42.666 -13.387   3.356  1.00  0.00     0.033 A 
ENDBRANCH   2  24
BRANCH   3  31
HETATM   31  C   UNL     1      41.843 -16.376   5.644  1.00  0.00     0.315 C 
BRANCH  31  32
HETATM   32  N   UNL     1      42.832 -16.970   4.644  1.00  0.00    -0.064 N 
HETATM   33  H   UNL     1      43.600 -16.280   4.598  1.00  0.00     0.280 HD
HETATM   34  C   UNL     1      43.453 -18.258   5.139  1.00  0.00     0.235 C 
HETATM   35  C   UNL     1      44.540 -18.702   4.171  1.00  0.00     0.028 C 
HETATM   36  C   UNL     1      43.999 -18.853   2.754  1.00  0.00     0.003 C 
HETATM   37  C   UNL     1      43.315 -17.572   2.289  1.00  0.00     0.028 C 
HETATM   38  C   UNL     1      42.242 -17.112   3.266  1.00  0.00     0.235 C 
ENDBRANCH  31  32
ENDBRANCH   3  31
TORSDOF 8
ENDMDL
MODEL 6
REMARK VINA RESULT:      -8.4      3.284      6.813
REMARK  8 active torsions:
REMARK  status: ('A' for Active; 'I' for Inactive)
REMARK    1  A    between atoms: C_2  and  S_3 
REMARK    2  A    between atoms: C_2  and  C_24 
REMARK    3  A    between atoms: S_3  and  C_4 
REMARK    4  A    between atoms: N_5  and  C_6 
REMARK    5  A    between atoms: C_13  and  C_14 
REMARK    6  A    between atoms: C_14  and  N_15 
REMARK       I    between atoms: C_24  and  N_25 
REMARK    7  A    between atoms: N_25  and  C_26 
REMARK    8  A    between atoms: C_29  and  C_30 
REMARK       I    between atoms: C_30  and  N_31 
ROOT
HETATM    1  C   UNL     1      41.040 -12.995   5.194  1.00  0.00     0.197 A 
HETATM    2  N   UNL     1      42.380 -13.303   5.349  1.00  0.00    -0.274 N 
HETATM    3  C   UNL     1      42.491 -14.579   4.806  1.00  0.00     0.161 A 
HETATM    4  N   UNL     1      41.316 -14.975   4.356  1.00  0.00    -0.132 NA
HETATM    5  N   UNL     1      40.422 -13.969   4.564  1.00  0.00    -0.122 NA
ENDROOT
BRANCH   1   6
HETATM    6  S   UNL     1      40.310 -11.451   5.475  1.00  0.00    -0.076 SA
BRANCH   6   7
HETATM    7  C   UNL     1      40.346 -10.625   3.845  1.00  0.00     0.143 C 
HETATM    8  C   UNL     1      41.783 -10.294   3.461  1.00  0.00     0.031 C 
BRANCH   7   9
HETATM    9  C   UNL     1      39.616 -11.397   2.746  1.00  0.00     0.236 C 
HETATM   10  N   UNL     1      40.439 -12.085   1.873  1.00  0.00    -0.326 N 
HETATM   11  H   UNL     1      41.364 -12.308   2.225  1.00  0.00     0.169 HD
HETATM   12  O   UNL     1      38.385 -11.432   2.740  1.00  0.00    -0.272 OA
BRANCH  10  13
HETATM   13  C   UNL     1      40.003 -12.852   0.775  1.00  0.00     0.034 A 
HETATM   14  C   UNL     1      40.221 -14.228   0.670  1.00  0.00     0.030 A 
HETATM   15  C   UNL     1      39.781 -14.931  -0.457  1.00  0.00     0.019 A 
HETATM   16  C   UNL     1      39.127 -14.255  -1.491  1.00  0.00     0.032 A 
HETATM   17  C   UNL     1      38.898 -12.880  -1.385  1.00  0.00     0.019 A 
HETATM   18  C   UNL     1      39.315 -12.187  -0.246  1.00  0.00     0.030 A 
BRANCH  16  19
HETATM   19  C   UNL     1      38.708 -14.943  -2.736  1.00  0.00     0.249 C 
HETATM   20  N   UNL     1      38.233 -16.219  -2.615  1.00  0.00    -0.366 N 
HETATM   21  H   UNL     1      37.951 -16.610  -1.727  1.00  0.00     0.159 HD
HETATM   22  H   UNL     1      37.842 -16.636  -3.452  1.00  0.00     0.159 HD
HETATM   23  O   UNL     1      38.768 -14.380  -3.821  1.00  0.00    -0.268 OA
ENDBRANCH  16  19
ENDBRANCH  10  13
ENDBRANCH   7   9
ENDBRANCH   6   7
ENDBRANCH   1   6
BRANCH   2  24
HETATM   24  C   UNL     1      43.413 -12.526   5.928  1.00  0.00     0.043 A 
HETATM   25  C   UNL     1      44.397 -11.947   5.113  1.00  0.00     0.033 A 
HETATM   26  C   UNL     1      45.420 -11.194   5.691  1.00  0.00     0.044 A 
HETATM   27  C   UNL     1      45.459 -11.026   7.069  1.00  0.00     0.116 A 
HETATM   28  F   UNL     1      46.444 -10.308   7.622  1.00  0.00    -0.206 F 
HETATM   29  C   UNL     1      44.488 -11.595   7.887  1.00  0.00     0.044 A 
HETATM   30  C   UNL     1      43.459 -12.349   7.318  1.00  0.00     0.033 A 
ENDBRANCH   2  24
BRANCH   3  31
HETATM   31  C   UNL     1      43.690 -15.459   4.871  1.00  0.00     0.315 C 
BRANCH  31  32
HETATM   32  N   UNL     1      43.424 -16.833   4.261  1.00  0.00    -0.064 N 
HETATM   33  H   UNL     1      42.441 -17.038   4.504  1.00  0.00     0.280 HD
HETATM   34  C   UNL     1      43.489 -16.817   2.749  1.00  0.00     0.235 C 
HETATM   35  C   UNL     1      43.056 -18.172   2.209  1.00  0.00     0.028 C 
HETATM   36  C   UNL     1      43.898 -19.301   2.791  1.00  0.00     0.003 C 
HETATM   37  C   UNL     1      43.883 -19.268   4.315  1.00  0.00     0.028 C 
HETATM   38  C   UNL     1      44.293 -17.906   4.859  1.00  0.00     0.235 C 
ENDBRANCH  31  32
ENDBRANCH   3  31
TORSDOF 8
ENDMDL
MODEL 7
REMARK VINA RESULT:      -8.1      2.444      3.794
REMARK  8 active torsions:
REMARK  status: ('A' for Active; 'I' for Inactive)
REMARK    1  A    between atoms: C_2  and  S_3 
REMARK    2  A    between atoms: C_2  and  C_24 
REMARK    3  A    between atoms: S_3  and  C_4 
REMARK    4  A    between atoms: N_5  and  C_6 
REMARK    5  A    between atoms: C_13  and  C_14 
REMARK    6  A    between atoms: C_14  and  N_15 
REMARK       I    between atoms: C_24  and  N_25 
REMARK    7  A    between atoms: N_25  and  C_26 
REMARK    8  A    between atoms: C_29  and  C_30 
REMARK       I    between atoms: C_30  and  N_31 
ROOT
HETATM    1  C   UNL     1      42.373 -12.191   6.030  1.00  0.00     0.197 A 
HETATM    2  N   UNL     1      42.443 -10.896   6.512  1.00  0.00    -0.274 N 
HETATM    3  C   UNL     1      43.642 -10.870   7.218  1.00  0.00     0.161 A 
HETATM    4  N   UNL     1      44.231 -12.048   7.138  1.00  0.00    -0.132 NA
HETATM    5  N   UNL     1      43.456 -12.857   6.364  1.00  0.00    -0.122 NA
ENDROOT
BRANCH   1   6
HETATM    6  S   UNL     1      41.219 -12.793   4.889  1.00  0.00    -0.076 SA
BRANCH   6   7
HETATM    7  C   UNL     1      42.114 -12.800   3.295  1.00  0.00     0.143 C 
HETATM    8  C   UNL     1      43.102 -11.641   3.248  1.00  0.00     0.031 C 
BRANCH   7   9
HETATM    9  C   UNL     1      42.775 -14.138   2.964  1.00  0.00     0.236 C 
HETATM   10  N   UNL     1      42.223 -15.234   3.601  1.00  0.00    -0.326 N 
HETATM   11  H   UNL     1      41.266 -15.121   3.921  1.00  0.00     0.169 HD
HETATM   12  O   UNL     1      43.674 -14.183   2.123  1.00  0.00    -0.272 OA
BRANCH  10  13
HETATM   13  C   UNL     1      42.668 -16.565   3.469  1.00  0.00     0.034 A 
HETATM   14  C   UNL     1      42.431 -17.339   2.331  1.00  0.00     0.030 A 
HETATM   15  C   UNL     1      42.881 -18.663   2.269  1.00  0.00     0.019 A 
HETATM   16  C   UNL     1      43.565 -19.220   3.353  1.00  0.00     0.032 A 
HETATM   17  C   UNL     1      43.813 -18.444   4.489  1.00  0.00     0.019 A 
HETATM   18  C   UNL     1      43.385 -17.115   4.537  1.00  0.00     0.030 A 
BRANCH  16  19
HETATM   19  C   UNL     1      43.998 -20.638   3.363  1.00  0.00     0.249 C 
HETATM   20  N   UNL     1      44.265 -21.203   4.578  1.00  0.00    -0.366 N 
HETATM   21  H   UNL     1      43.968 -20.782   5.447  1.00  0.00     0.159 HD
HETATM   22  H   UNL     1      44.445 -22.200   4.583  1.00  0.00     0.159 HD
HETATM   23  O   UNL     1      44.091 -21.277   2.323  1.00  0.00    -0.268 OA
ENDBRANCH  16  19
ENDBRANCH  10  13
ENDBRANCH   7   9
ENDBRANCH   6   7
ENDBRANCH   1   6
BRANCH   2  24
HETATM   24  C   UNL     1      41.523  -9.833   6.350  1.00  0.00     0.043 A 
HETATM   25  C   UNL     1      40.419  -9.722   7.209  1.00  0.00     0.033 A 
HETATM   26  C   UNL     1      39.508  -8.679   7.035  1.00  0.00     0.044 A 
HETATM   27  C   UNL     1      39.700  -7.759   6.012  1.00  0.00     0.116 A 
HETATM   28  F   UNL     1      38.822  -6.763   5.844  1.00  0.00    -0.206 F 
HETATM   29  C   UNL     1      40.791  -7.858   5.156  1.00  0.00     0.044 A 
HETATM   30  C   UNL     1      41.709  -8.897   5.322  1.00  0.00     0.033 A 
ENDBRANCH   2  24
BRANCH   3  31
HETATM   31  C   UNL     1      44.125  -9.762   8.086  1.00  0.00     0.315 C 
BRANCH  31  32
HETATM   32  N   UNL     1      43.417  -9.746   9.439  1.00  0.00    -0.064 N 
HETATM   33  H   UNL     1      42.594 -10.357   9.307  1.00  0.00     0.280 HD
HETATM   34  C   UNL     1      44.244 -10.383  10.534  1.00  0.00     0.235 C 
HETATM   35  C   UNL     1      43.415 -10.477  11.806  1.00  0.00     0.028 C 
HETATM   36  C   UNL     1      42.886  -9.113  12.231  1.00  0.00     0.003 C 
HETATM   37  C   UNL     1      42.112  -8.448  11.099  1.00  0.00     0.028 C 
HETATM   38  C   UNL     1      42.930  -8.373   9.816  1.00  0.00     0.235 C 
ENDBRANCH  31  32
ENDBRANCH   3  31
TORSDOF 8
ENDMDL
MODEL 8
REMARK VINA RESULT:      -8.0      2.338      3.652
REMARK  8 active torsions:
REMARK  status: ('A' for Active; 'I' for Inactive)
REMARK    1  A    between atoms: C_2  and  S_3 
REMARK    2  A    between atoms: C_2  and  C_24 
REMARK    3  A    between atoms: S_3  and  C_4 
REMARK    4  A    between atoms: N_5  and  C_6 
REMARK    5  A    between atoms: C_13  and  C_14 
REMARK    6  A    between atoms: C_14  and  N_15 
REMARK       I    between atoms: C_24  and  N_25 
REMARK    7  A    between atoms: N_25  and  C_26 
REMARK    8  A    between atoms: C_29  and  C_30 
REMARK       I    between atoms: C_30  and  N_31 
ROOT
HETATM    1  C   UNL     1      41.612 -10.958   6.225  1.00  0.00     0.197 A 
HETATM    2  N   UNL     1      41.835 -10.242   7.388  1.00  0.00    -0.274 N 
HETATM    3  C   UNL     1      40.562  -9.843   7.781  1.00  0.00     0.161 A 
HETATM    4  N   UNL     1      39.668 -10.304   6.927  1.00  0.00    -0.132 NA
HETATM    5  N   UNL     1      40.323 -11.031   5.980  1.00  0.00    -0.122 NA
ENDROOT
BRANCH   1   6
HETATM    6  S   UNL     1      42.782 -11.903   5.369  1.00  0.00    -0.076 SA
BRANCH   6   7
HETATM    7  C   UNL     1      41.830 -12.709   4.034  1.00  0.00     0.143 C 
HETATM    8  C   UNL     1      42.283 -12.178   2.678  1.00  0.00     0.031 C 
BRANCH   7   9
HETATM    9  C   UNL     1      41.853 -14.236   4.094  1.00  0.00     0.236 C 
HETATM   10  N   UNL     1      43.020 -14.820   3.638  1.00  0.00    -0.326 N 
HETATM   11  H   UNL     1      43.842 -14.225   3.648  1.00  0.00     0.169 HD
HETATM   12  O   UNL     1      40.905 -14.841   4.598  1.00  0.00    -0.272 OA
BRANCH  10  13
HETATM   13  C   UNL     1      43.271 -16.205   3.580  1.00  0.00     0.034 A 
HETATM   14  C   UNL     1      42.971 -16.989   2.463  1.00  0.00     0.030 A 
HETATM   15  C   UNL     1      43.226 -18.366   2.475  1.00  0.00     0.019 A 
HETATM   16  C   UNL     1      43.776 -18.964   3.612  1.00  0.00     0.032 A 
HETATM   17  C   UNL     1      44.088 -18.180   4.727  1.00  0.00     0.019 A 
HETATM   18  C   UNL     1      43.857 -16.803   4.701  1.00  0.00     0.030 A 
BRANCH  16  19
HETATM   19  C   UNL     1      43.997 -20.428   3.698  1.00  0.00     0.249 C 
HETATM   20  N   UNL     1      44.346 -20.937   4.917  1.00  0.00    -0.366 N 
HETATM   21  H   UNL     1      44.236 -20.413   5.774  1.00  0.00     0.159 HD
HETATM   22  H   UNL     1      44.379 -21.947   4.992  1.00  0.00     0.159 HD
HETATM   23  O   UNL     1      43.852 -21.148   2.719  1.00  0.00    -0.268 OA
ENDBRANCH  16  19
ENDBRANCH  10  13
ENDBRANCH   7   9
ENDBRANCH   6   7
ENDBRANCH   1   6
BRANCH   2  24
HETATM   24  C   UNL     1      43.059  -9.959   8.040  1.00  0.00     0.043 A 
HETATM   25  C   UNL     1      43.666 -10.932   8.848  1.00  0.00     0.033 A 
HETATM   26  C   UNL     1      44.866 -10.641   9.500  1.00  0.00     0.044 A 
HETATM   27  C   UNL     1      45.450  -9.391   9.345  1.00  0.00     0.116 A 
HETATM   28  F   UNL     1      46.598  -9.113   9.974  1.00  0.00    -0.206 F 
HETATM   29  C   UNL     1      44.858  -8.419   8.545  1.00  0.00     0.044 A 
HETATM   30  C   UNL     1      43.658  -8.700   7.888  1.00  0.00     0.033 A 
ENDBRANCH   2  24
BRANCH   3  31
HETATM   31  C   UNL     1      40.240  -8.895   8.882  1.00  0.00     0.315 C 
BRANCH  31  32
HETATM   32  N   UNL     1      40.567  -9.480  10.254  1.00  0.00    -0.064 N 
HETATM   33  H   UNL     1      41.015 -10.389  10.048  1.00  0.00     0.280 HD
HETATM   34  C   UNL     1      41.598  -8.663  11.001  1.00  0.00     0.235 C 
HETATM   35  C   UNL     1      41.993  -9.389  12.279  1.00  0.00     0.028 C 
HETATM   36  C   UNL     1      40.778  -9.685  13.151  1.00  0.00     0.003 C 
HETATM   37  C   UNL     1      39.715 -10.449  12.371  1.00  0.00     0.028 C 
HETATM   38  C   UNL     1      39.335  -9.738  11.079  1.00  0.00     0.235 C 
ENDBRANCH  31  32
ENDBRANCH   3  31
TORSDOF 8
ENDMDL
MODEL 9
REMARK VINA RESULT:      -7.9      3.121      5.571
REMARK  8 active torsions:
REMARK  status: ('A' for Active; 'I' for Inactive)
REMARK    1  A    between atoms: C_2  and  S_3 
REMARK    2  A    between atoms: C_2  and  C_24 
REMARK    3  A    between atoms: S_3  and  C_4 
REMARK    4  A    between atoms: N_5  and  C_6 
REMARK    5  A    between atoms: C_13  and  C_14 
REMARK    6  A    between atoms: C_14  and  N_15 
REMARK       I    between atoms: C_24  and  N_25 
REMARK    7  A    between atoms: N_25  and  C_26 
REMARK    8  A    between atoms: C_29  and  C_30 
REMARK       I    between atoms: C_30  and  N_31 
ROOT
HETATM    1  C   UNL     1      42.535 -13.919   6.010  1.00  0.00     0.197 A 
HETATM    2  N   UNL     1      42.267 -12.561   5.970  1.00  0.00    -0.274 N 
HETATM    3  C   UNL     1      43.314 -11.996   6.691  1.00  0.00     0.161 A 
HETATM    4  N   UNL     1      44.133 -12.944   7.103  1.00  0.00    -0.132 NA
HETATM    5  N   UNL     1      43.665 -14.137   6.644  1.00  0.00    -0.122 NA
ENDROOT
BRANCH   1   6
HETATM    6  S   UNL     1      41.714 -15.147   5.108  1.00  0.00    -0.076 SA
BRANCH   6   7
HETATM    7  C   UNL     1      42.949 -15.719   3.889  1.00  0.00     0.143 C 
HETATM    8  C   UNL     1      43.238 -17.201   4.097  1.00  0.00     0.031 C 
BRANCH   7   9
HETATM    9  C   UNL     1      42.581 -15.399   2.440  1.00  0.00     0.236 C 
HETATM   10  N   UNL     1      41.460 -14.604   2.286  1.00  0.00    -0.326 N 
HETATM   11  H   UNL     1      41.210 -14.036   3.089  1.00  0.00     0.169 HD
HETATM   12  O   UNL     1      43.314 -15.780   1.526  1.00  0.00    -0.272 OA
BRANCH  10  13
HETATM   13  C   UNL     1      40.916 -14.190   1.054  1.00  0.00     0.034 A 
HETATM   14  C   UNL     1      40.079 -14.996   0.279  1.00  0.00     0.030 A 
HETATM   15  C   UNL     1      39.587 -14.534  -0.948  1.00  0.00     0.019 A 
HETATM   16  C   UNL     1      39.941 -13.262  -1.407  1.00  0.00     0.032 A 
HETATM   17  C   UNL     1      40.770 -12.449  -0.629  1.00  0.00     0.019 A 
HETATM   18  C   UNL     1      41.237 -12.903   0.606  1.00  0.00     0.030 A 
BRANCH  16  19
HETATM   19  C   UNL     1      39.504 -12.758  -2.731  1.00  0.00     0.249 C 
HETATM   20  N   UNL     1      38.378 -13.313  -3.272  1.00  0.00    -0.366 N 
HETATM   21  H   UNL     1      37.730 -13.862  -2.725  1.00  0.00     0.159 HD
HETATM   22  H   UNL     1      38.024 -12.882  -4.117  1.00  0.00     0.159 HD
HETATM   23  O   UNL     1      40.120 -11.868  -3.304  1.00  0.00    -0.268 OA
ENDBRANCH  16  19
ENDBRANCH  10  13
ENDBRANCH   7   9
ENDBRANCH   6   7
ENDBRANCH   1   6
BRANCH   2  24
HETATM   24  C   UNL     1      41.187 -11.883   5.355  1.00  0.00     0.043 A 
HETATM   25  C   UNL     1      41.313 -11.407   4.042  1.00  0.00     0.033 A 
HETATM   26  C   UNL     1      40.249 -10.726   3.447  1.00  0.00     0.044 A 
HETATM   27  C   UNL     1      39.075 -10.524   4.160  1.00  0.00     0.116 A 
HETATM   28  F   UNL     1      38.058  -9.866   3.589  1.00  0.00    -0.206 F 
HETATM   29  C   UNL     1      38.938 -10.992   5.462  1.00  0.00     0.044 A 
HETATM   30  C   UNL     1      39.996 -11.676   6.066  1.00  0.00     0.033 A 
ENDBRANCH   2  24
BRANCH   3  31
HETATM   31  C   UNL     1      43.425 -10.571   7.106  1.00  0.00     0.315 C 
BRANCH  31  32
HETATM   32  N   UNL     1      43.610 -10.427   8.615  1.00  0.00    -0.064 N 
HETATM   33  H   UNL     1      43.523 -11.390   8.979  1.00  0.00     0.280 HD
HETATM   34  C   UNL     1      45.001  -9.960   8.985  1.00  0.00     0.235 C 
HETATM   35  C   UNL     1      45.163  -9.997  10.497  1.00  0.00     0.028 C 
HETATM   36  C   UNL     1      44.092  -9.165  11.194  1.00  0.00     0.003 C 
HETATM   37  C   UNL     1      42.695  -9.596  10.763  1.00  0.00     0.028 C 
HETATM   38  C   UNL     1      42.537  -9.584   9.248  1.00  0.00     0.235 C 
ENDBRANCH  31  32
ENDBRANCH   3  31
TORSDOF 8
ENDMDL
MODEL 10
REMARK VINA RESULT:      -7.9      3.809      5.778
REMARK  8 active torsions:
REMARK  status: ('A' for Active; 'I' for Inactive)
REMARK    1  A    between atoms: C_2  and  S_3 
REMARK    2  A    between atoms: C_2  and  C_24 
REMARK    3  A    between atoms: S_3  and  C_4 
REMARK    4  A    between atoms: N_5  and  C_6 
REMARK    5  A    between atoms: C_13  and  C_14 
REMARK    6  A    between atoms: C_14  and  N_15 
REMARK       I    between atoms: C_24  and  N_25 
REMARK    7  A    between atoms: N_25  and  C_26 
REMARK    8  A    between atoms: C_29  and  C_30 
REMARK       I    between atoms: C_30  and  N_31 
ROOT
HETATM    1  C   UNL     1      43.511 -10.226   9.674  1.00  0.00     0.197 A 
HETATM    2  N   UNL     1      42.430  -9.669  10.333  1.00  0.00    -0.274 N 
HETATM    3  C   UNL     1      42.572 -10.117  11.642  1.00  0.00     0.161 A 
HETATM    4  N   UNL     1      43.657 -10.860  11.742  1.00  0.00    -0.132 NA
HETATM    5  N   UNL     1      44.261 -10.894  10.522  1.00  0.00    -0.122 NA
ENDROOT
BRANCH   1   6
HETATM    6  S   UNL     1      44.020  -9.864   8.060  1.00  0.00    -0.076 SA
BRANCH   6   7
HETATM    7  C   UNL     1      42.805 -10.719   6.996  1.00  0.00     0.143 C 
HETATM    8  C   UNL     1      42.166  -9.725   6.033  1.00  0.00     0.031 C 
BRANCH   7   9
HETATM    9  C   UNL     1      43.369 -11.943   6.275  1.00  0.00     0.236 C 
HETATM   10  N   UNL     1      42.683 -13.122   6.505  1.00  0.00    -0.326 N 
HETATM   11  H   UNL     1      41.720 -13.018   6.809  1.00  0.00     0.169 HD
HETATM   12  O   UNL     1      44.315 -11.811   5.497  1.00  0.00    -0.272 OA
BRANCH  10  13
HETATM   13  C   UNL     1      43.019 -14.380   5.967  1.00  0.00     0.034 A 
HETATM   14  C   UNL     1      43.898 -15.267   6.593  1.00  0.00     0.030 A 
HETATM   15  C   UNL     1      44.209 -16.495   5.996  1.00  0.00     0.019 A 
HETATM   16  C   UNL     1      43.645 -16.835   4.764  1.00  0.00     0.032 A 
HETATM   17  C   UNL     1      42.756 -15.954   4.140  1.00  0.00     0.019 A 
HETATM   18  C   UNL     1      42.429 -14.742   4.750  1.00  0.00     0.030 A 
BRANCH  16  19
HETATM   19  C   UNL     1      43.999 -18.091   4.060  1.00  0.00     0.249 C 
HETATM   20  N   UNL     1      43.698 -18.169   2.730  1.00  0.00    -0.366 N 
HETATM   21  H   UNL     1      43.467 -17.354   2.178  1.00  0.00     0.159 HD
HETATM   22  H   UNL     1      44.049 -18.981   2.234  1.00  0.00     0.159 HD
HETATM   23  O   UNL     1      44.556 -19.010   4.648  1.00  0.00    -0.268 OA
ENDBRANCH  16  19
ENDBRANCH  10  13
ENDBRANCH   7   9
ENDBRANCH   6   7
ENDBRANCH   1   6
BRANCH   2  24
HETATM   24  C   UNL     1      41.401  -8.842   9.819  1.00  0.00     0.043 A 
HETATM   25  C   UNL     1      41.575  -7.451   9.775  1.00  0.00     0.033 A 
HETATM   26  C   UNL     1      40.551  -6.641   9.279  1.00  0.00     0.044 A 
HETATM   27  C   UNL     1      39.368  -7.218   8.835  1.00  0.00     0.116 A 
HETATM   28  F   UNL     1      38.386  -6.439   8.366  1.00  0.00    -0.206 F 
HETATM   29  C   UNL     1      39.186  -8.596   8.874  1.00  0.00     0.044 A 
HETATM   30  C   UNL     1      40.204  -9.416   9.366  1.00  0.00     0.033 A 
ENDBRANCH   2  24
BRANCH   3  31
HETATM   31  C   UNL     1      41.578  -9.954  12.738  1.00  0.00     0.315 C 
BRANCH  31  32
HETATM   32  N   UNL     1      42.077  -9.003  13.824  1.00  0.00    -0.064 N 
HETATM   33  H   UNL     1      42.829  -9.527  14.302  1.00  0.00     0.280 HD
HETATM   34  C   UNL     1      42.726  -7.761  13.253  1.00  0.00     0.235 C 
HETATM   35  C   UNL     1      43.339  -6.945  14.381  1.00  0.00     0.028 C 
HETATM   36  C   UNL     1      42.305  -6.594  15.444  1.00  0.00     0.003 C 
HETATM   37  C   UNL     1      41.607  -7.845  15.965  1.00  0.00     0.028 C 
HETATM   38  C   UNL     1      41.012  -8.677  14.837  1.00  0.00     0.235 C 
ENDBRANCH  31  32
ENDBRANCH   3  31
TORSDOF 8
ENDMDL
