MODEL 1
REMARK VINA RESULT:      -7.8      0.000      0.000
REMARK  8 active torsions:
REMARK  status: ('A' for Active; 'I' for Inactive)
REMARK    1  A    between atoms: C_2  and  C_3 
REMARK    2  A    between atoms: C_3  and  O_4 
REMARK    3  A    between atoms: O_4  and  C_5 
REMARK    4  A    between atoms: C_6  and  O_7 
REMARK    5  A    between atoms: O_7  and  C_8 
REMARK    6  A    between atoms: C_8  and  C_9 
REMARK    7  A    between atoms: C_12  and  N_13 
REMARK       I    between atoms: N_13  and  C_14 
REMARK    8  A    between atoms: C_14  and  C_15 
ROOT
HETATM    1  N   UNL     1      42.118 -14.577   1.296  1.00  0.00    -0.322 N 
HETATM    2  C   UNL     1      40.964 -13.836   1.454  1.00  0.00     0.277 C 
HETATM    3  O   UNL     1      40.160 -13.865   2.370  1.00  0.00    -0.266 OA
HETATM    4  H   UNL     1      42.566 -14.466   0.389  1.00  0.00     0.169 HD
ENDROOT
BRANCH   1   5
HETATM    5  C   UNL     1      42.664 -15.529   2.172  1.00  0.00     0.037 A 
HETATM    6  C   UNL     1      43.046 -15.251   3.488  1.00  0.00     0.069 A 
HETATM    7  C   UNL     1      43.575 -16.259   4.307  1.00  0.00     0.104 A 
HETATM    8  C   UNL     1      43.723 -17.566   3.804  1.00  0.00     0.102 A 
HETATM    9  C   UNL     1      43.354 -17.837   2.485  1.00  0.00     0.042 A 
HETATM   10  C   UNL     1      42.828 -16.826   1.678  1.00  0.00     0.032 A 
BRANCH   7  11
HETATM   11  O   UNL     1      43.963 -16.073   5.613  1.00  0.00    -0.348 OA
BRANCH  11  12
HETATM   12  C   UNL     1      43.070 -15.389   6.488  1.00  0.00     0.175 C 
BRANCH  12  13
HETATM   13  C   UNL     1      41.898 -16.312   6.817  1.00  0.00     0.022 C 
HETATM   14  C   UNL     1      40.550 -15.666   6.532  1.00  0.00     0.007 C 
ENDBRANCH  12  13
ENDBRANCH  11  12
ENDBRANCH   7  11
BRANCH   8  15
HETATM   15  O   UNL     1      44.245 -18.494   4.669  1.00  0.00    -0.348 OA
BRANCH  15  16
HETATM   16  C   UNL     1      44.188 -19.865   4.282  1.00  0.00     0.175 C 
BRANCH  16  17
HETATM   17  C   UNL     1      43.884 -20.692   5.527  1.00  0.00     0.022 C 
HETATM   18  C   UNL     1      43.406 -19.824   6.678  1.00  0.00     0.007 C 
ENDBRANCH  16  17
ENDBRANCH  15  16
ENDBRANCH   8  15
ENDBRANCH   1   5
BRANCH   2  19
HETATM   19  C   UNL     1      40.730 -12.905   0.262  1.00  0.00     0.156 A 
HETATM   20  N   UNL     1      41.166 -11.684   0.412  1.00  0.00    -0.166 NA
HETATM   21  N   UNL     1      40.990 -10.809  -0.616  1.00  0.00    -0.242 N 
HETATM   22  C   UNL     1      40.393 -11.089  -1.823  1.00  0.00     0.272 A 
HETATM   23  H   UNL     1      41.367  -9.874  -0.495  1.00  0.00     0.192 HD
HETATM   24  O   UNL     1      40.290 -10.251  -2.711  1.00  0.00    -0.266 OA
HETATM   25  C   UNL     1      39.868 -12.454  -1.985  1.00  0.00     0.046 A 
HETATM   26  C   UNL     1      40.021 -13.375  -0.948  1.00  0.00     0.016 A 
HETATM   27  C   UNL     1      39.206 -12.812  -3.166  1.00  0.00     0.018 A 
HETATM   28  C   UNL     1      39.489 -14.661  -1.091  1.00  0.00     0.015 A 
HETATM   29  C   UNL     1      38.828 -15.020  -2.271  1.00  0.00     0.001 A 
HETATM   30  C   UNL     1      38.689 -14.098  -3.307  1.00  0.00     0.001 A 
ENDBRANCH   2  19
TORSDOF 8
ENDMDL
MODEL 2
REMARK VINA RESULT:      -7.7      1.756      2.078
REMARK  8 active torsions:
REMARK  status: ('A' for Active; 'I' for Inactive)
REMARK    1  A    between atoms: C_2  and  C_3 
REMARK    2  A    between atoms: C_3  and  O_4 
REMARK    3  A    between atoms: O_4  and  C_5 
REMARK    4  A    between atoms: C_6  and  O_7 
REMARK    5  A    between atoms: O_7  and  C_8 
REMARK    6  A    between atoms: C_8  and  C_9 
REMARK    7  A    between atoms: C_12  and  N_13 
REMARK       I    between atoms: N_13  and  C_14 
REMARK    8  A    between atoms: C_14  and  C_15 
ROOT
HETATM    1  N   UNL     1      40.424 -14.411   1.689  1.00  0.00    -0.322 N 
HETATM    2  C   UNL     1      40.765 -13.172   1.183  1.00  0.00     0.277 C 
HETATM    3  O   UNL     1      41.814 -12.562   1.307  1.00  0.00    -0.266 OA
HETATM    4  H   UNL     1      39.448 -14.662   1.556  1.00  0.00     0.169 HD
ENDROOT
BRANCH   1   5
HETATM    5  C   UNL     1      41.219 -15.286   2.448  1.00  0.00     0.037 A 
HETATM    6  C   UNL     1      40.965 -15.610   3.784  1.00  0.00     0.069 A 
HETATM    7  C   UNL     1      41.799 -16.502   4.474  1.00  0.00     0.104 A 
HETATM    8  C   UNL     1      42.904 -17.079   3.818  1.00  0.00     0.102 A 
HETATM    9  C   UNL     1      43.164 -16.741   2.488  1.00  0.00     0.042 A 
HETATM   10  C   UNL     1      42.326 -15.853   1.810  1.00  0.00     0.032 A 
BRANCH   7  11
HETATM   11  O   UNL     1      41.614 -16.883   5.782  1.00  0.00    -0.348 OA
BRANCH  11  12
HETATM   12  C   UNL     1      41.425 -15.863   6.758  1.00  0.00     0.175 C 
BRANCH  12  13
HETATM   13  C   UNL     1      42.775 -15.523   7.385  1.00  0.00     0.022 C 
HETATM   14  C   UNL     1      43.318 -14.183   6.911  1.00  0.00     0.007 C 
ENDBRANCH  12  13
ENDBRANCH  11  12
ENDBRANCH   7  11
BRANCH   8  15
HETATM   15  O   UNL     1      43.669 -17.942   4.561  1.00  0.00    -0.348 OA
BRANCH  15  16
HETATM   16  C   UNL     1      44.525 -18.840   3.860  1.00  0.00     0.175 C 
BRANCH  16  17
HETATM   17  C   UNL     1      43.714 -20.083   3.507  1.00  0.00     0.022 C 
HETATM   18  C   UNL     1      43.742 -20.371   2.016  1.00  0.00     0.007 C 
ENDBRANCH  16  17
ENDBRANCH  15  16
ENDBRANCH   8  15
ENDBRANCH   1   5
BRANCH   2  19
HETATM   19  C   UNL     1      39.606 -12.547   0.406  1.00  0.00     0.156 A 
HETATM   20  N   UNL     1      39.098 -11.465   0.931  1.00  0.00    -0.166 NA
HETATM   21  N   UNL     1      38.065 -10.861   0.283  1.00  0.00    -0.242 N 
HETATM   22  C   UNL     1      37.496 -11.278  -0.897  1.00  0.00     0.272 A 
HETATM   23  H   UNL     1      37.707 -10.001   0.687  1.00  0.00     0.192 HD
HETATM   24  O   UNL     1      36.579 -10.666  -1.433  1.00  0.00    -0.266 OA
HETATM   25  C   UNL     1      38.040 -12.517  -1.478  1.00  0.00     0.046 A 
HETATM   26  C   UNL     1      39.092 -13.169  -0.834  1.00  0.00     0.016 A 
HETATM   27  C   UNL     1      37.489 -13.037  -2.655  1.00  0.00     0.018 A 
HETATM   28  C   UNL     1      39.584 -14.366  -1.369  1.00  0.00     0.015 A 
HETATM   29  C   UNL     1      39.035 -14.887  -2.545  1.00  0.00     0.001 A 
HETATM   30  C   UNL     1      37.991 -14.223  -3.188  1.00  0.00     0.001 A 
ENDBRANCH   2  19
TORSDOF 8
ENDMDL
MODEL 3
REMARK VINA RESULT:      -7.6      4.841      7.541
REMARK  8 active torsions:
REMARK  status: ('A' for Active; 'I' for Inactive)
REMARK    1  A    between atoms: C_2  and  C_3 
REMARK    2  A    between atoms: C_3  and  O_4 
REMARK    3  A    between atoms: O_4  and  C_5 
REMARK    4  A    between atoms: C_6  and  O_7 
REMARK    5  A    between atoms: O_7  and  C_8 
REMARK    6  A    between atoms: C_8  and  C_9 
REMARK    7  A    between atoms: C_12  and  N_13 
REMARK       I    between atoms: N_13  and  C_14 
REMARK    8  A    between atoms: C_14  and  C_15 
ROOT
HETATM    1  N   UNL     1      42.524 -12.722   5.348  1.00  0.00    -0.322 N 
HETATM    2  C   UNL     1      41.830 -13.873   5.663  1.00  0.00     0.277 C 
HETATM    3  O   UNL     1      41.624 -14.361   6.761  1.00  0.00    -0.266 OA
HETATM    4  H   UNL     1      42.667 -12.580   4.351  1.00  0.00     0.169 HD
ENDROOT
BRANCH   1   5
HETATM    5  C   UNL     1      43.140 -11.814   6.224  1.00  0.00     0.037 A 
HETATM    6  C   UNL     1      42.557 -10.614   6.642  1.00  0.00     0.069 A 
HETATM    7  C   UNL     1      43.231  -9.762   7.528  1.00  0.00     0.104 A 
HETATM    8  C   UNL     1      44.508 -10.115   8.006  1.00  0.00     0.102 A 
HETATM    9  C   UNL     1      45.095 -11.307   7.575  1.00  0.00     0.042 A 
HETATM   10  C   UNL     1      44.414 -12.149   6.692  1.00  0.00     0.032 A 
BRANCH   7  11
HETATM   11  O   UNL     1      42.725  -8.573   7.998  1.00  0.00    -0.348 OA
BRANCH  11  12
HETATM   12  C   UNL     1      41.310  -8.417   8.043  1.00  0.00     0.175 C 
BRANCH  12  13
HETATM   13  C   UNL     1      40.845  -8.545   9.492  1.00  0.00     0.022 C 
HETATM   14  C   UNL     1      39.639  -9.461   9.639  1.00  0.00     0.007 C 
ENDBRANCH  12  13
ENDBRANCH  11  12
ENDBRANCH   7  11
BRANCH   8  15
HETATM   15  O   UNL     1      45.100  -9.229   8.871  1.00  0.00    -0.348 OA
BRANCH  15  16
HETATM   16  C   UNL     1      45.367  -9.678  10.198  1.00  0.00     0.175 C 
BRANCH  16  17
HETATM   17  C   UNL     1      44.200  -9.250  11.082  1.00  0.00     0.022 C 
HETATM   18  C   UNL     1      43.379 -10.440  11.548  1.00  0.00     0.007 C 
ENDBRANCH  16  17
ENDBRANCH  15  16
ENDBRANCH   8  15
ENDBRANCH   1   5
BRANCH   2  19
HETATM   19  C   UNL     1      41.313 -14.576   4.407  1.00  0.00     0.156 A 
HETATM   20  N   UNL     1      40.220 -14.078   3.896  1.00  0.00    -0.166 NA
HETATM   21  N   UNL     1      39.713 -14.659   2.775  1.00  0.00    -0.242 N 
HETATM   22  C   UNL     1      40.249 -15.735   2.108  1.00  0.00     0.272 A 
HETATM   23  H   UNL     1      38.882 -14.236   2.371  1.00  0.00     0.192 HD
HETATM   24  O   UNL     1      39.745 -16.190   1.088  1.00  0.00    -0.266 OA
HETATM   25  C   UNL     1      41.463 -16.324   2.698  1.00  0.00     0.046 A 
HETATM   26  C   UNL     1      42.005 -15.761   3.854  1.00  0.00     0.016 A 
HETATM   27  C   UNL     1      42.050 -17.450   2.108  1.00  0.00     0.018 A 
HETATM   28  C   UNL     1      43.137 -16.345   4.432  1.00  0.00     0.015 A 
HETATM   29  C   UNL     1      43.725 -17.469   3.844  1.00  0.00     0.001 A 
HETATM   30  C   UNL     1      43.185 -18.020   2.683  1.00  0.00     0.001 A 
ENDBRANCH   2  19
TORSDOF 8
ENDMDL
MODEL 4
REMARK VINA RESULT:      -7.5      2.411      8.531
REMARK  8 active torsions:
REMARK  status: ('A' for Active; 'I' for Inactive)
REMARK    1  A    between atoms: C_2  and  C_3 
REMARK    2  A    between atoms: C_3  and  O_4 
REMARK    3  A    between atoms: O_4  and  C_5 
REMARK    4  A    between atoms: C_6  and  O_7 
REMARK    5  A    between atoms: O_7  and  C_8 
REMARK    6  A    between atoms: C_8  and  C_9 
REMARK    7  A    between atoms: C_12  and  N_13 
REMARK       I    between atoms: N_13  and  C_14 
REMARK    8  A    between atoms: C_14  and  C_15 
ROOT
HETATM    1  N   UNL     1      41.251 -14.806   2.512  1.00  0.00    -0.322 N 
HETATM    2  C   UNL     1      42.623 -14.837   2.660  1.00  0.00     0.277 C 
HETATM    3  O   UNL     1      43.478 -14.375   1.924  1.00  0.00    -0.266 OA
HETATM    4  H   UNL     1      40.744 -15.365   3.193  1.00  0.00     0.169 HD
ENDROOT
BRANCH   1   5
HETATM    5  C   UNL     1      40.503 -14.205   1.485  1.00  0.00     0.037 A 
HETATM    6  C   UNL     1      39.957 -12.921   1.567  1.00  0.00     0.069 A 
HETATM    7  C   UNL     1      39.229 -12.384   0.494  1.00  0.00     0.104 A 
HETATM    8  C   UNL     1      39.045 -13.142  -0.678  1.00  0.00     0.102 A 
HETATM    9  C   UNL     1      39.579 -14.431  -0.750  1.00  0.00     0.042 A 
HETATM   10  C   UNL     1      40.303 -14.955   0.323  1.00  0.00     0.032 A 
BRANCH   7  11
HETATM   11  O   UNL     1      38.671 -11.128   0.487  1.00  0.00    -0.348 OA
BRANCH  11  12
HETATM   12  C   UNL     1      37.691 -10.823   1.476  1.00  0.00     0.175 C 
BRANCH  12  13
HETATM   13  C   UNL     1      36.382 -10.463   0.777  1.00  0.00     0.022 C 
HETATM   14  C   UNL     1      36.604  -9.733  -0.540  1.00  0.00     0.007 C 
ENDBRANCH  12  13
ENDBRANCH  11  12
ENDBRANCH   7  11
BRANCH   8  15
HETATM   15  O   UNL     1      38.325 -12.545  -1.681  1.00  0.00    -0.348 OA
BRANCH  15  16
HETATM   16  C   UNL     1      38.891 -12.539  -2.990  1.00  0.00     0.175 C 
BRANCH  16  17
HETATM   17  C   UNL     1      39.973 -11.464  -3.027  1.00  0.00     0.022 C 
HETATM   18  C   UNL     1      41.366 -12.067  -3.074  1.00  0.00     0.007 C 
ENDBRANCH  16  17
ENDBRANCH  15  16
ENDBRANCH   8  15
ENDBRANCH   1   5
BRANCH   2  19
HETATM   19  C   UNL     1      43.032 -15.595   3.924  1.00  0.00     0.156 A 
HETATM   20  N   UNL     1      43.088 -14.877   5.013  1.00  0.00    -0.166 NA
HETATM   21  N   UNL     1      43.443 -15.497   6.172  1.00  0.00    -0.242 N 
HETATM   22  C   UNL     1      43.747 -16.830   6.316  1.00  0.00     0.272 A 
HETATM   23  H   UNL     1      43.448 -14.930   7.015  1.00  0.00     0.192 HD
HETATM   24  O   UNL     1      44.038 -17.320   7.401  1.00  0.00    -0.266 OA
HETATM   25  C   UNL     1      43.719 -17.638   5.086  1.00  0.00     0.046 A 
HETATM   26  C   UNL     1      43.370 -17.034   3.878  1.00  0.00     0.016 A 
HETATM   27  C   UNL     1      44.058 -18.996   5.135  1.00  0.00     0.018 A 
HETATM   28  C   UNL     1      43.379 -17.797   2.704  1.00  0.00     0.015 A 
HETATM   29  C   UNL     1      43.717 -19.153   2.751  1.00  0.00     0.001 A 
HETATM   30  C   UNL     1      44.054 -19.752   3.964  1.00  0.00     0.001 A 
ENDBRANCH   2  19
TORSDOF 8
ENDMDL
MODEL 5
REMARK VINA RESULT:      -7.4      6.290      9.713
REMARK  8 active torsions:
REMARK  status: ('A' for Active; 'I' for Inactive)
REMARK    1  A    between atoms: C_2  and  C_3 
REMARK    2  A    between atoms: C_3  and  O_4 
REMARK    3  A    between atoms: O_4  and  C_5 
REMARK    4  A    between atoms: C_6  and  O_7 
REMARK    5  A    between atoms: O_7  and  C_8 
REMARK    6  A    between atoms: C_8  and  C_9 
REMARK    7  A    between atoms: C_12  and  N_13 
REMARK       I    between atoms: N_13  and  C_14 
REMARK    8  A    between atoms: C_14  and  C_15 
ROOT
HETATM    1  N   UNL     1      43.199 -11.435   7.831  1.00  0.00    -0.322 N 
HETATM    2  C   UNL     1      44.264 -10.986   8.585  1.00  0.00     0.277 C 
HETATM    3  O   UNL     1      45.455 -11.056   8.337  1.00  0.00    -0.266 OA
HETATM    4  H   UNL     1      42.298 -11.374   8.299  1.00  0.00     0.169 HD
ENDROOT
BRANCH   1   5
HETATM    5  C   UNL     1      43.230 -12.058   6.572  1.00  0.00     0.037 A 
HETATM    6  C   UNL     1      43.241 -13.443   6.387  1.00  0.00     0.069 A 
HETATM    7  C   UNL     1      43.262 -13.993   5.097  1.00  0.00     0.104 A 
HETATM    8  C   UNL     1      43.271 -13.143   3.973  1.00  0.00     0.102 A 
HETATM    9  C   UNL     1      43.275 -11.759   4.161  1.00  0.00     0.042 A 
HETATM   10  C   UNL     1      43.253 -11.223   5.451  1.00  0.00     0.032 A 
BRANCH   7  11
HETATM   11  O   UNL     1      43.261 -15.341   4.827  1.00  0.00    -0.348 OA
BRANCH  11  12
HETATM   12  C   UNL     1      42.566 -16.204   5.723  1.00  0.00     0.175 C 
BRANCH  12  13
HETATM   13  C   UNL     1      41.097 -16.262   5.312  1.00  0.00     0.022 C 
HETATM   14  C   UNL     1      40.161 -15.835   6.434  1.00  0.00     0.007 C 
ENDBRANCH  12  13
ENDBRANCH  11  12
ENDBRANCH   7  11
BRANCH   8  15
HETATM   15  O   UNL     1      43.288 -13.758   2.747  1.00  0.00    -0.348 OA
BRANCH  15  16
HETATM   16  C   UNL     1      42.058 -13.845   2.031  1.00  0.00     0.175 C 
BRANCH  16  17
HETATM   17  C   UNL     1      41.931 -15.264   1.487  1.00  0.00     0.022 C 
HETATM   18  C   UNL     1      43.266 -15.989   1.482  1.00  0.00     0.007 C 
ENDBRANCH  16  17
ENDBRANCH  15  16
ENDBRANCH   8  15
ENDBRANCH   1   5
BRANCH   2  19
HETATM   19  C   UNL     1      43.793 -10.360   9.900  1.00  0.00     0.156 A 
HETATM   20  N   UNL     1      43.690 -11.185  10.906  1.00  0.00    -0.166 NA
HETATM   21  N   UNL     1      43.279 -10.686  12.104  1.00  0.00    -0.242 N 
HETATM   22  C   UNL     1      42.963  -9.374  12.369  1.00  0.00     0.272 A 
HETATM   23  H   UNL     1      43.238 -11.335  12.885  1.00  0.00     0.192 HD
HETATM   24  O   UNL     1      42.620  -8.996  13.483  1.00  0.00    -0.266 OA
HETATM   25  C   UNL     1      43.044  -8.445  11.230  1.00  0.00     0.046 A 
HETATM   26  C   UNL     1      43.451  -8.924   9.984  1.00  0.00     0.016 A 
HETATM   27  C   UNL     1      42.697  -7.099  11.400  1.00  0.00     0.018 A 
HETATM   28  C   UNL     1      43.493  -8.046   8.894  1.00  0.00     0.015 A 
HETATM   29  C   UNL     1      43.147  -6.702   9.063  1.00  0.00     0.001 A 
HETATM   30  C   UNL     1      42.752  -6.228  10.313  1.00  0.00     0.001 A 
ENDBRANCH   2  19
TORSDOF 8
ENDMDL
MODEL 6
REMARK VINA RESULT:      -7.4      1.975      3.392
REMARK  8 active torsions:
REMARK  status: ('A' for Active; 'I' for Inactive)
REMARK    1  A    between atoms: C_2  and  C_3 
REMARK    2  A    between atoms: C_3  and  O_4 
REMARK    3  A    between atoms: O_4  and  C_5 
REMARK    4  A    between atoms: C_6  and  O_7 
REMARK    5  A    between atoms: O_7  and  C_8 
REMARK    6  A    between atoms: C_8  and  C_9 
REMARK    7  A    between atoms: C_12  and  N_13 
REMARK       I    between atoms: N_13  and  C_14 
REMARK    8  A    between atoms: C_14  and  C_15 
ROOT
HETATM    1  N   UNL     1      39.694 -13.865   2.184  1.00  0.00    -0.322 N 
HETATM    2  C   UNL     1      40.312 -13.159   1.172  1.00  0.00     0.277 C 
HETATM    3  O   UNL     1      41.502 -12.962   0.998  1.00  0.00    -0.266 OA
HETATM    4  H   UNL     1      38.679 -13.791   2.188  1.00  0.00     0.169 HD
ENDROOT
BRANCH   1   5
HETATM    5  C   UNL     1      40.293 -14.557   3.250  1.00  0.00     0.037 A 
HETATM    6  C   UNL     1      41.100 -15.687   3.092  1.00  0.00     0.069 A 
HETATM    7  C   UNL     1      41.674 -16.318   4.206  1.00  0.00     0.104 A 
HETATM    8  C   UNL     1      41.437 -15.811   5.498  1.00  0.00     0.102 A 
HETATM    9  C   UNL     1      40.618 -14.690   5.654  1.00  0.00     0.042 A 
HETATM   10  C   UNL     1      40.053 -14.069   4.538  1.00  0.00     0.032 A 
BRANCH   7  11
HETATM   11  O   UNL     1      42.488 -17.423   4.137  1.00  0.00    -0.348 OA
BRANCH  11  12
HETATM   12  C   UNL     1      43.284 -17.600   2.969  1.00  0.00     0.175 C 
BRANCH  12  13
HETATM   13  C   UNL     1      43.920 -18.987   3.010  1.00  0.00     0.022 C 
HETATM   14  C   UNL     1      43.221 -19.977   2.090  1.00  0.00     0.007 C 
ENDBRANCH  12  13
ENDBRANCH  11  12
ENDBRANCH   7  11
BRANCH   8  15
HETATM   15  O   UNL     1      42.035 -16.483   6.534  1.00  0.00    -0.348 OA
BRANCH  15  16
HETATM   16  C   UNL     1      42.809 -15.722   7.459  1.00  0.00     0.175 C 
BRANCH  16  17
HETATM   17  C   UNL     1      44.051 -15.219   6.730  1.00  0.00     0.022 C 
HETATM   18  C   UNL     1      44.939 -16.363   6.272  1.00  0.00     0.007 C 
ENDBRANCH  16  17
ENDBRANCH  15  16
ENDBRANCH   8  15
ENDBRANCH   1   5
BRANCH   2  19
HETATM   19  C   UNL     1      39.290 -12.557   0.205  1.00  0.00     0.156 A 
HETATM   20  N   UNL     1      38.795 -11.403   0.562  1.00  0.00    -0.166 NA
HETATM   21  N   UNL     1      37.883 -10.816  -0.260  1.00  0.00    -0.242 N 
HETATM   22  C   UNL     1      37.426 -11.321  -1.455  1.00  0.00     0.272 A 
HETATM   23  H   UNL     1      37.535  -9.901   0.015  1.00  0.00     0.192 HD
HETATM   24  O   UNL     1      36.617 -10.720  -2.152  1.00  0.00    -0.266 OA
HETATM   25  C   UNL     1      37.954 -12.639  -1.846  1.00  0.00     0.046 A 
HETATM   26  C   UNL     1      38.883 -13.275  -1.022  1.00  0.00     0.016 A 
HETATM   27  C   UNL     1      37.509 -13.247  -3.026  1.00  0.00     0.018 A 
HETATM   28  C   UNL     1      39.356 -14.544  -1.378  1.00  0.00     0.015 A 
HETATM   29  C   UNL     1      38.912 -15.153  -2.556  1.00  0.00     0.001 A 
HETATM   30  C   UNL     1      37.992 -14.505  -3.380  1.00  0.00     0.001 A 
ENDBRANCH   2  19
TORSDOF 8
ENDMDL
MODEL 7
REMARK VINA RESULT:      -7.3      2.005      8.689
REMARK  8 active torsions:
REMARK  status: ('A' for Active; 'I' for Inactive)
REMARK    1  A    between atoms: C_2  and  C_3 
REMARK    2  A    between atoms: C_3  and  O_4 
REMARK    3  A    between atoms: O_4  and  C_5 
REMARK    4  A    between atoms: C_6  and  O_7 
REMARK    5  A    between atoms: O_7  and  C_8 
REMARK    6  A    between atoms: C_8  and  C_9 
REMARK    7  A    between atoms: C_12  and  N_13 
REMARK       I    between atoms: N_13  and  C_14 
REMARK    8  A    between atoms: C_14  and  C_15 
ROOT
HETATM    1  N   UNL     1      41.429 -14.512   1.530  1.00  0.00    -0.322 N 
HETATM    2  C   UNL     1      40.907 -15.301   2.535  1.00  0.00     0.277 C 
HETATM    3  O   UNL     1      39.748 -15.634   2.716  1.00  0.00    -0.266 OA
HETATM    4  H   UNL     1      42.410 -14.271   1.654  1.00  0.00     0.169 HD
ENDROOT
BRANCH   1   5
HETATM    5  C   UNL     1      40.751 -13.922   0.450  1.00  0.00     0.037 A 
HETATM    6  C   UNL     1      40.867 -12.575   0.097  1.00  0.00     0.069 A 
HETATM    7  C   UNL     1      40.166 -12.060  -1.003  1.00  0.00     0.104 A 
HETATM    8  C   UNL     1      39.335 -12.906  -1.763  1.00  0.00     0.102 A 
HETATM    9  C   UNL     1      39.210 -14.249  -1.399  1.00  0.00     0.042 A 
HETATM   10  C   UNL     1      39.914 -14.751  -0.302  1.00  0.00     0.032 A 
BRANCH   7  11
HETATM   11  O   UNL     1      40.233 -10.753  -1.424  1.00  0.00    -0.348 OA
BRANCH  11  12
HETATM   12  C   UNL     1      40.658  -9.767  -0.487  1.00  0.00     0.175 C 
BRANCH  12  13
HETATM   13  C   UNL     1      41.071  -8.510  -1.247  1.00  0.00     0.022 C 
HETATM   14  C   UNL     1      42.582  -8.376  -1.374  1.00  0.00     0.007 C 
ENDBRANCH  12  13
ENDBRANCH  11  12
ENDBRANCH   7  11
BRANCH   8  15
HETATM   15  O   UNL     1      38.686 -12.327  -2.824  1.00  0.00    -0.348 OA
BRANCH  15  16
HETATM   16  C   UNL     1      37.269 -12.197  -2.742  1.00  0.00     0.175 C 
BRANCH  16  17
HETATM   17  C   UNL     1      36.936 -10.709  -2.691  1.00  0.00     0.022 C 
HETATM   18  C   UNL     1      36.684 -10.235  -1.270  1.00  0.00     0.007 C 
ENDBRANCH  16  17
ENDBRANCH  15  16
ENDBRANCH   8  15
ENDBRANCH   1   5
BRANCH   2  19
HETATM   19  C   UNL     1      41.992 -15.746   3.518  1.00  0.00     0.156 A 
HETATM   20  N   UNL     1      42.265 -14.897   4.471  1.00  0.00    -0.166 NA
HETATM   21  N   UNL     1      43.220 -15.239   5.379  1.00  0.00    -0.242 N 
HETATM   22  C   UNL     1      43.935 -16.413   5.399  1.00  0.00     0.272 A 
HETATM   23  H   UNL     1      43.393 -14.582   6.135  1.00  0.00     0.192 HD
HETATM   24  O   UNL     1      44.766 -16.657   6.265  1.00  0.00    -0.266 OA
HETATM   25  C   UNL     1      43.657 -17.360   4.306  1.00  0.00     0.046 A 
HETATM   26  C   UNL     1      42.692 -17.038   3.351  1.00  0.00     0.016 A 
HETATM   27  C   UNL     1      44.372 -18.561   4.224  1.00  0.00     0.018 A 
HETATM   28  C   UNL     1      42.455 -17.924   2.294  1.00  0.00     0.015 A 
HETATM   29  C   UNL     1      43.168 -19.124   2.211  1.00  0.00     0.001 A 
HETATM   30  C   UNL     1      44.123 -19.444   3.175  1.00  0.00     0.001 A 
ENDBRANCH   2  19
TORSDOF 8
ENDMDL
MODEL 8
REMARK VINA RESULT:      -7.3      2.028      8.678
REMARK  8 active torsions:
REMARK  status: ('A' for Active; 'I' for Inactive)
REMARK    1  A    between atoms: C_2  and  C_3 
REMARK    2  A    between atoms: C_3  and  O_4 
REMARK    3  A    between atoms: O_4  and  C_5 
REMARK    4  A    between atoms: C_6  and  O_7 
REMARK    5  A    between atoms: O_7  and  C_8 
REMARK    6  A    between atoms: C_8  and  C_9 
REMARK    7  A    between atoms: C_12  and  N_13 
REMARK       I    between atoms: N_13  and  C_14 
REMARK    8  A    between atoms: C_14  and  C_15 
ROOT
HETATM    1  N   UNL     1      41.919 -13.568   2.192  1.00  0.00    -0.322 N 
HETATM    2  C   UNL     1      41.279 -14.503   2.981  1.00  0.00     0.277 C 
HETATM    3  O   UNL     1      40.098 -14.805   2.997  1.00  0.00    -0.266 OA
HETATM    4  H   UNL     1      42.891 -13.404   2.442  1.00  0.00     0.169 HD
ENDROOT
BRANCH   1   5
HETATM    5  C   UNL     1      41.364 -12.754   1.190  1.00  0.00     0.037 A 
HETATM    6  C   UNL     1      40.869 -13.238  -0.024  1.00  0.00     0.069 A 
HETATM    7  C   UNL     1      40.319 -12.363  -0.972  1.00  0.00     0.104 A 
HETATM    8  C   UNL     1      40.263 -10.982  -0.702  1.00  0.00     0.102 A 
HETATM    9  C   UNL     1      40.772 -10.499   0.506  1.00  0.00     0.042 A 
HETATM   10  C   UNL     1      41.316 -11.380   1.443  1.00  0.00     0.032 A 
BRANCH   7  11
HETATM   11  O   UNL     1      39.800 -12.757  -2.183  1.00  0.00    -0.348 OA
BRANCH  11  12
HETATM   12  C   UNL     1      39.982 -14.113  -2.581  1.00  0.00     0.175 C 
BRANCH  12  13
HETATM   13  C   UNL     1      38.634 -14.683  -3.017  1.00  0.00     0.022 C 
HETATM   14  C   UNL     1      37.504 -13.671  -2.892  1.00  0.00     0.007 C 
ENDBRANCH  12  13
ENDBRANCH  11  12
ENDBRANCH   7  11
BRANCH   8  15
HETATM   15  O   UNL     1      39.709 -10.194  -1.679  1.00  0.00    -0.348 OA
BRANCH  15  16
HETATM   16  C   UNL     1      38.595  -9.379  -1.320  1.00  0.00     0.175 C 
BRANCH  16  17
HETATM   17  C   UNL     1      37.358 -10.271  -1.269  1.00  0.00     0.022 C 
HETATM   18  C   UNL     1      36.761 -10.328   0.126  1.00  0.00     0.007 C 
ENDBRANCH  16  17
ENDBRANCH  15  16
ENDBRANCH   8  15
ENDBRANCH   1   5
BRANCH   2  19
HETATM   19  C   UNL     1      42.253 -15.177   3.950  1.00  0.00     0.156 A 
HETATM   20  N   UNL     1      42.560 -14.480   5.010  1.00  0.00    -0.166 NA
HETATM   21  N   UNL     1      43.420 -15.029   5.911  1.00  0.00    -0.242 N 
HETATM   22  C   UNL     1      44.004 -16.270   5.820  1.00  0.00     0.272 A 
HETATM   23  H   UNL     1      43.619 -14.488   6.747  1.00  0.00     0.192 HD
HETATM   24  O   UNL     1      44.754 -16.705   6.686  1.00  0.00    -0.266 OA
HETATM   25  C   UNL     1      43.690 -17.048   4.609  1.00  0.00     0.046 A 
HETATM   26  C   UNL     1      42.821 -16.512   3.659  1.00  0.00     0.016 A 
HETATM   27  C   UNL     1      44.277 -18.304   4.414  1.00  0.00     0.018 A 
HETATM   28  C   UNL     1      42.552 -17.237   2.492  1.00  0.00     0.015 A 
HETATM   29  C   UNL     1      43.137 -18.492   2.296  1.00  0.00     0.001 A 
HETATM   30  C   UNL     1      43.996 -19.026   3.256  1.00  0.00     0.001 A 
ENDBRANCH   2  19
TORSDOF 8
ENDMDL
MODEL 9
REMARK VINA RESULT:      -7.2      5.468      8.918
REMARK  8 active torsions:
REMARK  status: ('A' for Active; 'I' for Inactive)
REMARK    1  A    between atoms: C_2  and  C_3 
REMARK    2  A    between atoms: C_3  and  O_4 
REMARK    3  A    between atoms: O_4  and  C_5 
REMARK    4  A    between atoms: C_6  and  O_7 
REMARK    5  A    between atoms: O_7  and  C_8 
REMARK    6  A    between atoms: C_8  and  C_9 
REMARK    7  A    between atoms: C_12  and  N_13 
REMARK       I    between atoms: N_13  and  C_14 
REMARK    8  A    between atoms: C_14  and  C_15 
ROOT
HETATM    1  N   UNL     1      43.505 -13.364   6.601  1.00  0.00    -0.322 N 
HETATM    2  C   UNL     1      42.423 -14.198   6.404  1.00  0.00     0.277 C 
HETATM    3  O   UNL     1      41.235 -13.943   6.512  1.00  0.00    -0.266 OA
HETATM    4  H   UNL     1      44.406 -13.834   6.570  1.00  0.00     0.169 HD
ENDROOT
BRANCH   1   5
HETATM    5  C   UNL     1      43.498 -12.003   6.949  1.00  0.00     0.037 A 
HETATM    6  C   UNL     1      44.414 -11.417   7.827  1.00  0.00     0.069 A 
HETATM    7  C   UNL     1      44.350 -10.046   8.118  1.00  0.00     0.104 A 
HETATM    8  C   UNL     1      43.355  -9.249   7.520  1.00  0.00     0.102 A 
HETATM    9  C   UNL     1      42.432  -9.840   6.654  1.00  0.00     0.042 A 
HETATM   10  C   UNL     1      42.506 -11.205   6.371  1.00  0.00     0.032 A 
BRANCH   7  11
HETATM   11  O   UNL     1      45.217  -9.390   8.959  1.00  0.00    -0.348 OA
BRANCH  11  12
HETATM   12  C   UNL     1      45.343  -9.865  10.296  1.00  0.00     0.175 C 
BRANCH  12  13
HETATM   13  C   UNL     1      44.175  -9.332  11.122  1.00  0.00     0.022 C 
HETATM   14  C   UNL     1      43.335 -10.445  11.731  1.00  0.00     0.007 C 
ENDBRANCH  12  13
ENDBRANCH  11  12
ENDBRANCH   7  11
BRANCH   8  15
HETATM   15  O   UNL     1      43.362  -7.918   7.853  1.00  0.00    -0.348 OA
BRANCH  15  16
HETATM   16  C   UNL     1      42.103  -7.264   7.994  1.00  0.00     0.175 C 
BRANCH  16  17
HETATM   17  C   UNL     1      42.326  -5.982   8.791  1.00  0.00     0.022 C 
HETATM   18  C   UNL     1      42.342  -6.243  10.287  1.00  0.00     0.007 C 
ENDBRANCH  16  17
ENDBRANCH  15  16
ENDBRANCH   8  15
ENDBRANCH   1   5
BRANCH   2  19
HETATM   19  C   UNL     1      42.868 -15.614   6.032  1.00  0.00     0.156 A 
HETATM   20  N   UNL     1      43.144 -16.396   7.040  1.00  0.00    -0.166 NA
HETATM   21  N   UNL     1      43.542 -17.670   6.772  1.00  0.00    -0.242 N 
HETATM   22  C   UNL     1      43.679 -18.229   5.524  1.00  0.00     0.272 A 
HETATM   23  H   UNL     1      43.718 -18.275   7.569  1.00  0.00     0.192 HD
HETATM   24  O   UNL     1      44.024 -19.394   5.363  1.00  0.00    -0.266 OA
HETATM   25  C   UNL     1      43.403 -17.342   4.382  1.00  0.00     0.046 A 
HETATM   26  C   UNL     1      43.003 -16.026   4.618  1.00  0.00     0.016 A 
HETATM   27  C   UNL     1      43.561 -17.817   3.074  1.00  0.00     0.018 A 
HETATM   28  C   UNL     1      42.776 -15.175   3.531  1.00  0.00     0.015 A 
HETATM   29  C   UNL     1      42.933 -15.648   2.224  1.00  0.00     0.001 A 
HETATM   30  C   UNL     1      43.323 -16.967   1.996  1.00  0.00     0.001 A 
ENDBRANCH   2  19
TORSDOF 8
ENDMDL
MODEL 10
REMARK VINA RESULT:      -7.2      4.726      8.050
REMARK  8 active torsions:
REMARK  status: ('A' for Active; 'I' for Inactive)
REMARK    1  A    between atoms: C_2  and  C_3 
REMARK    2  A    between atoms: C_3  and  O_4 
REMARK    3  A    between atoms: O_4  and  C_5 
REMARK    4  A    between atoms: C_6  and  O_7 
REMARK    5  A    between atoms: O_7  and  C_8 
REMARK    6  A    between atoms: C_8  and  C_9 
REMARK    7  A    between atoms: C_12  and  N_13 
REMARK       I    between atoms: N_13  and  C_14 
REMARK    8  A    between atoms: C_14  and  C_15 
ROOT
HETATM    1  N   UNL     1      42.034 -12.649   6.058  1.00  0.00    -0.322 N 
HETATM    2  C   UNL     1      42.634 -11.442   5.764  1.00  0.00     0.277 C 
HETATM    3  O   UNL     1      43.283 -11.135   4.778  1.00  0.00    -0.266 OA
HETATM    4  H   UNL     1      41.648 -12.707   6.998  1.00  0.00     0.169 HD
ENDROOT
BRANCH   1   5
HETATM    5  C   UNL     1      42.001 -13.815   5.275  1.00  0.00     0.037 A 
HETATM    6  C   UNL     1      41.039 -14.068   4.292  1.00  0.00     0.069 A 
HETATM    7  C   UNL     1      41.077 -15.252   3.542  1.00  0.00     0.104 A 
HETATM    8  C   UNL     1      42.094 -16.198   3.777  1.00  0.00     0.102 A 
HETATM    9  C   UNL     1      43.044 -15.950   4.770  1.00  0.00     0.042 A 
HETATM   10  C   UNL     1      42.997 -14.766   5.510  1.00  0.00     0.032 A 
BRANCH   7  11
HETATM   11  O   UNL     1      40.180 -15.573   2.551  1.00  0.00    -0.348 OA
BRANCH  11  12
HETATM   12  C   UNL     1      39.800 -14.551   1.634  1.00  0.00     0.175 C 
BRANCH  12  13
HETATM   13  C   UNL     1      40.552 -14.760   0.322  1.00  0.00     0.022 C 
HETATM   14  C   UNL     1      39.659 -14.585  -0.897  1.00  0.00     0.007 C 
ENDBRANCH  12  13
ENDBRANCH  11  12
ENDBRANCH   7  11
BRANCH   8  15
HETATM   15  O   UNL     1      42.063 -17.329   3.000  1.00  0.00    -0.348 OA
BRANCH  15  16
HETATM   16  C   UNL     1      43.252 -17.683   2.298  1.00  0.00     0.175 C 
BRANCH  16  17
HETATM   17  C   UNL     1      43.700 -19.054   2.794  1.00  0.00     0.022 C 
HETATM   18  C   UNL     1      43.310 -20.159   1.827  1.00  0.00     0.007 C 
ENDBRANCH  16  17
ENDBRANCH  15  16
ENDBRANCH   8  15
ENDBRANCH   1   5
BRANCH   2  19
HETATM   19  C   UNL     1      42.431 -10.427   6.890  1.00  0.00     0.156 A 
HETATM   20  N   UNL     1      41.304  -9.769   6.854  1.00  0.00    -0.166 NA
HETATM   21  N   UNL     1      41.064  -8.854   7.833  1.00  0.00    -0.242 N 
HETATM   22  C   UNL     1      41.902  -8.551   8.880  1.00  0.00     0.272 A 
HETATM   23  H   UNL     1      40.167  -8.377   7.809  1.00  0.00     0.192 HD
HETATM   24  O   UNL     1      41.605  -7.727   9.737  1.00  0.00    -0.266 OA
HETATM   25  C   UNL     1      43.189  -9.264   8.908  1.00  0.00     0.046 A 
HETATM   26  C   UNL     1      43.474 -10.201   7.914  1.00  0.00     0.016 A 
HETATM   27  C   UNL     1      44.121  -8.984   9.915  1.00  0.00     0.018 A 
HETATM   28  C   UNL     1      44.714 -10.852   7.923  1.00  0.00     0.015 A 
HETATM   29  C   UNL     1      45.645 -10.573   8.929  1.00  0.00     0.001 A 
HETATM   30  C   UNL     1      45.349  -9.643   9.924  1.00  0.00     0.001 A 
ENDBRANCH   2  19
TORSDOF 8
ENDMDL
