MODEL 1
REMARK VINA RESULT:      -8.6      0.000      0.000
REMARK  6 active torsions:
REMARK  status: ('A' for Active; 'I' for Inactive)
REMARK    1  A    between atoms: C_2  and  O_3 
REMARK    2  A    between atoms: C_2  and  C_4 
REMARK    3  A    between atoms: C_7  and  N_8 
REMARK       I    between atoms: N_8  and  C_9 
REMARK    4  A    between atoms: C_9  and  C_10 
REMARK    5  A    between atoms: C_15  and  C_16 
REMARK    6  A    between atoms: C_22  and  C_23 
ROOT
HETATM    1  C   UNL     1      42.147 -13.190   5.719  1.00  0.00     0.148 A 
HETATM    2  N   UNL     1      41.178 -12.244   5.661  1.00  0.00    -0.165 NA
HETATM    3  N   UNL     1      41.761 -11.176   6.236  1.00  0.00    -0.240 N 
HETATM    4  C   UNL     1      43.006 -11.421   6.739  1.00  0.00     0.123 A 
HETATM    5  N   UNL     1      43.651 -10.499   7.479  1.00  0.00    -0.364 N 
HETATM    6  C   UNL     1      42.959  -9.360   8.099  1.00  0.00     0.143 C 
HETATM    7  C   UNL     1      41.428  -9.437   7.885  1.00  0.00     0.068 C 
HETATM    8  C   UNL     1      41.050  -9.938   6.485  1.00  0.00     0.221 C 
HETATM    9  C   UNL     1      43.326 -12.691   6.343  1.00  0.00     0.089 A 
HETATM   10  H   UNL     1      44.584 -10.681   7.848  1.00  0.00     0.162 HD
ENDROOT
BRANCH   1  11
HETATM   11  C   UNL     1      41.925 -14.573   5.258  1.00  0.00     0.276 C 
HETATM   12  N   UNL     1      43.115 -15.230   5.010  1.00  0.00    -0.322 N 
HETATM   13  H   UNL     1      43.937 -14.687   5.261  1.00  0.00     0.169 HD
HETATM   14  O   UNL     1      40.795 -15.017   5.098  1.00  0.00    -0.266 OA
BRANCH  12  15
HETATM   15  C   UNL     1      43.306 -16.476   4.391  1.00  0.00     0.035 A 
HETATM   16  C   UNL     1      42.912 -16.761   3.084  1.00  0.00     0.030 A 
HETATM   17  C   UNL     1      43.193 -18.007   2.511  1.00  0.00     0.012 A 
HETATM   18  C   UNL     1      43.872 -18.994   3.237  1.00  0.00    -0.030 A 
HETATM   19  C   UNL     1      44.238 -18.715   4.560  1.00  0.00     0.012 A 
HETATM   20  C   UNL     1      43.964 -17.466   5.128  1.00  0.00     0.030 A 
BRANCH  18  21
HETATM   21  C   UNL     1      44.177 -20.330   2.596  1.00  0.00     0.147 C 
HETATM   22  C   UNL     1      43.348 -20.572   1.344  1.00  0.00     0.044 C 
BRANCH  21  23
HETATM   23  O   UNL     1      43.939 -21.391   3.521  1.00  0.00    -0.391 OA
HETATM   24  H   UNL     1      44.175 -21.053   4.403  1.00  0.00     0.210 HD
ENDBRANCH  21  23
ENDBRANCH  18  21
ENDBRANCH  12  15
ENDBRANCH   1  11
BRANCH   8  25
HETATM   25  C   UNL     1      41.351  -8.933   5.397  1.00  0.00     0.409 C 
HETATM   26  F   UNL     1      42.259  -9.395   4.511  1.00  0.00    -0.169 F 
HETATM   27  F   UNL     1      40.219  -8.676   4.690  1.00  0.00    -0.169 F 
HETATM   28  F   UNL     1      41.791  -7.745   5.860  1.00  0.00    -0.169 F 
ENDBRANCH   8  25
BRANCH   6  29
HETATM   29  C   UNL     1      43.238  -9.256   9.570  1.00  0.00     0.075 A 
HETATM   30  O   UNL     1      43.359 -10.426  10.260  1.00  0.00    -0.325 OA
HETATM   31  C   UNL     1      43.617 -10.096  11.553  1.00  0.00     0.142 A 
HETATM   32  C   UNL     1      43.670  -8.730  11.703  1.00  0.00     0.027 A 
HETATM   33  C   UNL     1      43.426  -8.184  10.421  1.00  0.00     0.037 A 
ENDBRANCH   6  29
TORSDOF 6
ENDMDL
MODEL 2
REMARK VINA RESULT:      -8.5      2.730      9.462
REMARK  6 active torsions:
REMARK  status: ('A' for Active; 'I' for Inactive)
REMARK    1  A    between atoms: C_2  and  O_3 
REMARK    2  A    between atoms: C_2  and  C_4 
REMARK    3  A    between atoms: C_7  and  N_8 
REMARK       I    between atoms: N_8  and  C_9 
REMARK    4  A    between atoms: C_9  and  C_10 
REMARK    5  A    between atoms: C_15  and  C_16 
REMARK    6  A    between atoms: C_22  and  C_23 
ROOT
HETATM    1  C   UNL     1      43.181 -12.814   4.883  1.00  0.00     0.148 A 
HETATM    2  N   UNL     1      43.300 -12.767   3.534  1.00  0.00    -0.165 NA
HETATM    3  N   UNL     1      42.781 -13.945   3.141  1.00  0.00    -0.240 N 
HETATM    4  C   UNL     1      42.430 -14.772   4.169  1.00  0.00     0.123 A 
HETATM    5  N   UNL     1      42.045 -16.042   3.939  1.00  0.00    -0.364 N 
HETATM    6  C   UNL     1      42.318 -16.732   2.670  1.00  0.00     0.143 C 
HETATM    7  C   UNL     1      43.180 -15.864   1.722  1.00  0.00     0.068 C 
HETATM    8  C   UNL     1      42.790 -14.381   1.759  1.00  0.00     0.221 C 
HETATM    9  C   UNL     1      42.591 -14.038   5.312  1.00  0.00     0.089 A 
HETATM   10  H   UNL     1      41.776 -16.656   4.707  1.00  0.00     0.162 HD
ENDROOT
BRANCH   1  11
HETATM   11  C   UNL     1      43.694 -11.742   5.756  1.00  0.00     0.276 C 
HETATM   12  N   UNL     1      42.933 -11.602   6.900  1.00  0.00    -0.322 N 
HETATM   13  H   UNL     1      42.203 -12.305   6.990  1.00  0.00     0.169 HD
HETATM   14  O   UNL     1      44.664 -11.067   5.433  1.00  0.00    -0.266 OA
BRANCH  12  15
HETATM   15  C   UNL     1      42.996 -10.583   7.865  1.00  0.00     0.035 A 
HETATM   16  C   UNL     1      42.109  -9.507   7.916  1.00  0.00     0.030 A 
HETATM   17  C   UNL     1      42.193  -8.564   8.946  1.00  0.00     0.012 A 
HETATM   18  C   UNL     1      43.168  -8.676   9.945  1.00  0.00    -0.030 A 
HETATM   19  C   UNL     1      44.077  -9.740   9.872  1.00  0.00     0.012 A 
HETATM   20  C   UNL     1      43.986 -10.687   8.847  1.00  0.00     0.030 A 
BRANCH  18  21
HETATM   21  C   UNL     1      43.236  -7.653  11.057  1.00  0.00     0.147 C 
HETATM   22  C   UNL     1      43.381  -8.299  12.426  1.00  0.00     0.044 C 
BRANCH  21  23
HETATM   23  O   UNL     1      42.066  -6.835  11.053  1.00  0.00    -0.391 OA
HETATM   24  H   UNL     1      41.331  -7.396  11.355  1.00  0.00     0.210 HD
ENDBRANCH  21  23
ENDBRANCH  18  21
ENDBRANCH  12  15
ENDBRANCH   1  11
BRANCH   8  25
HETATM   25  C   UNL     1      41.450 -14.106   1.115  1.00  0.00     0.409 C 
HETATM   26  F   UNL     1      40.464 -13.965   2.027  1.00  0.00    -0.169 F 
HETATM   27  F   UNL     1      41.509 -12.935   0.426  1.00  0.00    -0.169 F 
HETATM   28  F   UNL     1      41.067 -15.051   0.233  1.00  0.00    -0.169 F 
ENDBRANCH   8  25
BRANCH   6  29
HETATM   29  C   UNL     1      43.003 -18.052   2.875  1.00  0.00     0.075 A 
HETATM   30  O   UNL     1      43.705 -18.210   4.034  1.00  0.00    -0.325 OA
HETATM   31  C   UNL     1      44.225 -19.465   4.012  1.00  0.00     0.142 A 
HETATM   32  C   UNL     1      43.861 -20.120   2.857  1.00  0.00     0.027 A 
HETATM   33  C   UNL     1      43.070 -19.207   2.121  1.00  0.00     0.037 A 
ENDBRANCH   6  29
TORSDOF 6
ENDMDL
MODEL 3
REMARK VINA RESULT:      -8.4      3.919      9.941
REMARK  6 active torsions:
REMARK  status: ('A' for Active; 'I' for Inactive)
REMARK    1  A    between atoms: C_2  and  O_3 
REMARK    2  A    between atoms: C_2  and  C_4 
REMARK    3  A    between atoms: C_7  and  N_8 
REMARK       I    between atoms: N_8  and  C_9 
REMARK    4  A    between atoms: C_9  and  C_10 
REMARK    5  A    between atoms: C_15  and  C_16 
REMARK    6  A    between atoms: C_22  and  C_23 
ROOT
HETATM    1  C   UNL     1      43.930 -12.211   7.189  1.00  0.00     0.148 A 
HETATM    2  N   UNL     1      43.538 -13.365   7.782  1.00  0.00    -0.165 NA
HETATM    3  N   UNL     1      43.401 -14.210   6.744  1.00  0.00    -0.240 N 
HETATM    4  C   UNL     1      43.591 -13.630   5.522  1.00  0.00     0.123 A 
HETATM    5  N   UNL     1      43.335 -14.306   4.385  1.00  0.00    -0.364 N 
HETATM    6  C   UNL     1      42.512 -15.523   4.359  1.00  0.00     0.143 C 
HETATM    7  C   UNL     1      41.911 -15.837   5.749  1.00  0.00     0.068 C 
HETATM    8  C   UNL     1      42.892 -15.559   6.895  1.00  0.00     0.221 C 
HETATM    9  C   UNL     1      44.023 -12.358   5.775  1.00  0.00     0.089 A 
HETATM   10  H   UNL     1      43.485 -13.874   3.474  1.00  0.00     0.162 HD
ENDROOT
BRANCH   1  11
HETATM   11  C   UNL     1      44.137 -10.965   7.951  1.00  0.00     0.276 C 
HETATM   12  N   UNL     1      43.347 -10.917   9.083  1.00  0.00    -0.322 N 
HETATM   13  H   UNL     1      42.821 -11.772   9.246  1.00  0.00     0.169 HD
HETATM   14  O   UNL     1      44.906 -10.098   7.555  1.00  0.00    -0.266 OA
BRANCH  12  15
HETATM   15  C   UNL     1      43.132  -9.829   9.945  1.00  0.00     0.035 A 
HETATM   16  C   UNL     1      42.170  -8.842   9.723  1.00  0.00     0.030 A 
HETATM   17  C   UNL     1      41.968  -7.822  10.660  1.00  0.00     0.012 A 
HETATM   18  C   UNL     1      42.727  -7.767  11.836  1.00  0.00    -0.030 A 
HETATM   19  C   UNL     1      43.713  -8.741  12.040  1.00  0.00     0.012 A 
HETATM   20  C   UNL     1      43.907  -9.766  11.107  1.00  0.00     0.030 A 
BRANCH  18  21
HETATM   21  C   UNL     1      42.486  -6.664  12.842  1.00  0.00     0.147 C 
HETATM   22  C   UNL     1      43.125  -6.963  14.190  1.00  0.00     0.044 C 
BRANCH  21  23
HETATM   23  O   UNL     1      41.086  -6.458  13.030  1.00  0.00    -0.391 OA
HETATM   24  H   UNL     1      40.640  -6.832  12.249  1.00  0.00     0.210 HD
ENDBRANCH  21  23
ENDBRANCH  18  21
ENDBRANCH  12  15
ENDBRANCH   1  11
BRANCH   8  25
HETATM   25  C   UNL     1      44.035 -16.547   6.948  1.00  0.00     0.409 C 
HETATM   26  F   UNL     1      45.199 -16.004   6.529  1.00  0.00    -0.169 F 
HETATM   27  F   UNL     1      44.234 -16.943   8.233  1.00  0.00    -0.169 F 
HETATM   28  F   UNL     1      43.819 -17.667   6.229  1.00  0.00    -0.169 F 
ENDBRANCH   8  25
BRANCH   6  29
HETATM   29  C   UNL     1      41.399 -15.437   3.357  1.00  0.00     0.075 A 
HETATM   30  O   UNL     1      40.619 -14.318   3.395  1.00  0.00    -0.325 OA
HETATM   31  C   UNL     1      39.695 -14.447   2.408  1.00  0.00     0.142 A 
HETATM   32  C   UNL     1      39.873 -15.631   1.730  1.00  0.00     0.027 A 
HETATM   33  C   UNL     1      40.975 -16.273   2.342  1.00  0.00     0.037 A 
ENDBRANCH   6  29
TORSDOF 6
ENDMDL
MODEL 4
REMARK VINA RESULT:      -8.2      4.113      9.638
REMARK  6 active torsions:
REMARK  status: ('A' for Active; 'I' for Inactive)
REMARK    1  A    between atoms: C_2  and  O_3 
REMARK    2  A    between atoms: C_2  and  C_4 
REMARK    3  A    between atoms: C_7  and  N_8 
REMARK       I    between atoms: N_8  and  C_9 
REMARK    4  A    between atoms: C_9  and  C_10 
REMARK    5  A    between atoms: C_15  and  C_16 
REMARK    6  A    between atoms: C_22  and  C_23 
ROOT
HETATM    1  C   UNL     1      43.354 -12.702   4.298  1.00  0.00     0.148 A 
HETATM    2  N   UNL     1      42.645 -13.805   4.643  1.00  0.00    -0.165 NA
HETATM    3  N   UNL     1      42.298 -14.328   3.452  1.00  0.00    -0.240 N 
HETATM    4  C   UNL     1      42.664 -13.567   2.379  1.00  0.00     0.123 A 
HETATM    5  N   UNL     1      42.251 -13.877   1.135  1.00  0.00    -0.364 N 
HETATM    6  C   UNL     1      41.123 -14.784   0.880  1.00  0.00     0.143 C 
HETATM    7  C   UNL     1      40.433 -15.220   2.195  1.00  0.00     0.068 C 
HETATM    8  C   UNL     1      41.431 -15.483   3.329  1.00  0.00     0.221 C 
HETATM    9  C   UNL     1      43.429 -12.552   2.883  1.00  0.00     0.089 A 
HETATM   10  H   UNL     1      42.532 -13.312   0.333  1.00  0.00     0.162 HD
ENDROOT
BRANCH   1  11
HETATM   11  C   UNL     1      43.885 -11.762   5.302  1.00  0.00     0.276 C 
HETATM   12  N   UNL     1      43.056 -11.660   6.402  1.00  0.00    -0.322 N 
HETATM   13  H   UNL     1      42.268 -12.303   6.375  1.00  0.00     0.169 HD
HETATM   14  O   UNL     1      44.927 -11.147   5.109  1.00  0.00    -0.266 OA
BRANCH  12  15
HETATM   15  C   UNL     1      43.129 -10.743   7.463  1.00  0.00     0.035 A 
HETATM   16  C   UNL     1      42.241  -9.680   7.632  1.00  0.00     0.030 A 
HETATM   17  C   UNL     1      42.336  -8.844   8.750  1.00  0.00     0.012 A 
HETATM   18  C   UNL     1      43.325  -9.051   9.719  1.00  0.00    -0.030 A 
HETATM   19  C   UNL     1      44.236 -10.099   9.529  1.00  0.00     0.012 A 
HETATM   20  C   UNL     1      44.132 -10.940   8.416  1.00  0.00     0.030 A 
BRANCH  18  21
HETATM   21  C   UNL     1      43.406  -8.144  10.927  1.00  0.00     0.147 C 
HETATM   22  C   UNL     1      43.204  -8.901  12.231  1.00  0.00     0.044 C 
BRANCH  21  23
HETATM   23  O   UNL     1      42.427  -7.108  10.837  1.00  0.00    -0.391 OA
HETATM   24  H   UNL     1      41.623  -7.513  10.468  1.00  0.00     0.210 HD
ENDBRANCH  21  23
ENDBRANCH  18  21
ENDBRANCH  12  15
ENDBRANCH   1  11
BRANCH   8  25
HETATM   25  C   UNL     1      42.253 -16.733   3.114  1.00  0.00     0.409 C 
HETATM   26  F   UNL     1      43.482 -16.460   2.624  1.00  0.00    -0.169 F 
HETATM   27  F   UNL     1      42.444 -17.362   4.305  1.00  0.00    -0.169 F 
HETATM   28  F   UNL     1      41.671 -17.632   2.295  1.00  0.00    -0.169 F 
ENDBRANCH   8  25
BRANCH   6  29
HETATM   29  C   UNL     1      40.096 -14.174  -0.028  1.00  0.00     0.075 A 
HETATM   30  O   UNL     1      39.681 -12.909   0.269  1.00  0.00    -0.325 OA
HETATM   31  C   UNL     1      38.771 -12.560  -0.677  1.00  0.00     0.142 A 
HETATM   32  C   UNL     1      38.598 -13.580  -1.583  1.00  0.00     0.027 A 
HETATM   33  C   UNL     1      39.455 -14.626  -1.166  1.00  0.00     0.037 A 
ENDBRANCH   6  29
TORSDOF 6
ENDMDL
MODEL 5
REMARK VINA RESULT:      -8.2      7.510     10.917
REMARK  6 active torsions:
REMARK  status: ('A' for Active; 'I' for Inactive)
REMARK    1  A    between atoms: C_2  and  O_3 
REMARK    2  A    between atoms: C_2  and  C_4 
REMARK    3  A    between atoms: C_7  and  N_8 
REMARK       I    between atoms: N_8  and  C_9 
REMARK    4  A    between atoms: C_9  and  C_10 
REMARK    5  A    between atoms: C_15  and  C_16 
REMARK    6  A    between atoms: C_22  and  C_23 
ROOT
HETATM    1  C   UNL     1      41.663  -7.323  13.988  1.00  0.00     0.148 A 
HETATM    2  N   UNL     1      40.440  -7.154  14.546  1.00  0.00    -0.165 NA
HETATM    3  N   UNL     1      40.729  -6.755  15.799  1.00  0.00    -0.240 N 
HETATM    4  C   UNL     1      42.063  -6.755  16.092  1.00  0.00     0.123 A 
HETATM    5  N   UNL     1      42.499  -6.532  17.346  1.00  0.00    -0.364 N 
HETATM    6  C   UNL     1      41.619  -6.643  18.519  1.00  0.00     0.143 C 
HETATM    7  C   UNL     1      40.208  -7.145  18.129  1.00  0.00     0.068 C 
HETATM    8  C   UNL     1      39.710  -6.546  16.808  1.00  0.00     0.221 C 
HETATM    9  C   UNL     1      42.704  -7.032  14.916  1.00  0.00     0.089 A 
HETATM   10  H   UNL     1      43.495  -6.526  17.562  1.00  0.00     0.162 HD
ENDROOT
BRANCH   1  11
HETATM   11  C   UNL     1      41.838  -7.832  12.615  1.00  0.00     0.276 C 
HETATM   12  N   UNL     1      43.152  -8.170  12.355  1.00  0.00    -0.322 N 
HETATM   13  H   UNL     1      43.759  -8.091  13.168  1.00  0.00     0.169 HD
HETATM   14  O   UNL     1      40.897  -7.890  11.833  1.00  0.00    -0.266 OA
BRANCH  12  15
HETATM   15  C   UNL     1      43.733  -8.509  11.122  1.00  0.00     0.035 A 
HETATM   16  C   UNL     1      43.549  -7.775   9.950  1.00  0.00     0.030 A 
HETATM   17  C   UNL     1      44.213  -8.136   8.772  1.00  0.00     0.012 A 
HETATM   18  C   UNL     1      45.072  -9.242   8.743  1.00  0.00    -0.030 A 
HETATM   19  C   UNL     1      45.229  -9.996   9.913  1.00  0.00     0.012 A 
HETATM   20  C   UNL     1      44.572  -9.627  11.092  1.00  0.00     0.030 A 
BRANCH  18  21
HETATM   21  C   UNL     1      45.789  -9.611   7.463  1.00  0.00     0.147 C 
HETATM   22  C   UNL     1      45.793 -11.112   7.216  1.00  0.00     0.044 C 
BRANCH  21  23
HETATM   23  O   UNL     1      47.138  -9.144   7.497  1.00  0.00    -0.391 OA
HETATM   24  H   UNL     1      47.361  -8.867   6.591  1.00  0.00     0.210 HD
ENDBRANCH  21  23
ENDBRANCH  18  21
ENDBRANCH  12  15
ENDBRANCH   1  11
BRANCH   8  25
HETATM   25  C   UNL     1      39.372  -5.077  16.916  1.00  0.00     0.409 C 
HETATM   26  F   UNL     1      40.171  -4.310  16.141  1.00  0.00    -0.169 F 
HETATM   27  F   UNL     1      38.101  -4.869  16.482  1.00  0.00    -0.169 F 
HETATM   28  F   UNL     1      39.432  -4.596  18.174  1.00  0.00    -0.169 F 
ENDBRANCH   8  25
BRANCH   6  29
HETATM   29  C   UNL     1      42.183  -7.551  19.572  1.00  0.00     0.075 A 
HETATM   30  O   UNL     1      41.409  -8.605  19.958  1.00  0.00    -0.325 OA
HETATM   31  C   UNL     1      42.113  -9.288  20.899  1.00  0.00     0.142 A 
HETATM   32  C   UNL     1      43.333  -8.691  21.118  1.00  0.00     0.027 A 
HETATM   33  C   UNL     1      43.381  -7.567  20.260  1.00  0.00     0.037 A 
ENDBRANCH   6  29
TORSDOF 6
ENDMDL
MODEL 6
REMARK VINA RESULT:      -8.2      5.137      8.933
REMARK  6 active torsions:
REMARK  status: ('A' for Active; 'I' for Inactive)
REMARK    1  A    between atoms: C_2  and  O_3 
REMARK    2  A    between atoms: C_2  and  C_4 
REMARK    3  A    between atoms: C_7  and  N_8 
REMARK       I    between atoms: N_8  and  C_9 
REMARK    4  A    between atoms: C_9  and  C_10 
REMARK    5  A    between atoms: C_15  and  C_16 
REMARK    6  A    between atoms: C_22  and  C_23 
ROOT
HETATM    1  C   UNL     1      41.510 -14.506   2.561  1.00  0.00     0.148 A 
HETATM    2  N   UNL     1      41.316 -14.466   3.901  1.00  0.00    -0.165 NA
HETATM    3  N   UNL     1      42.282 -15.275   4.374  1.00  0.00    -0.240 N 
HETATM    4  C   UNL     1      43.013 -15.898   3.404  1.00  0.00     0.123 A 
HETATM    5  N   UNL     1      43.909 -16.854   3.716  1.00  0.00    -0.364 N 
HETATM    6  C   UNL     1      43.906 -17.545   5.013  1.00  0.00     0.143 C 
HETATM    7  C   UNL     1      42.704 -17.116   5.887  1.00  0.00     0.068 C 
HETATM    8  C   UNL     1      42.398 -15.616   5.777  1.00  0.00     0.221 C 
HETATM    9  C   UNL     1      42.601 -15.356   2.218  1.00  0.00     0.089 A 
HETATM   10  H   UNL     1      44.460 -17.314   2.991  1.00  0.00     0.162 HD
ENDROOT
BRANCH   1  11
HETATM   11  C   UNL     1      40.620 -13.808   1.615  1.00  0.00     0.276 C 
HETATM   12  N   UNL     1      41.255 -13.533   0.419  1.00  0.00    -0.322 N 
HETATM   13  H   UNL     1      42.192 -13.924   0.358  1.00  0.00     0.169 HD
HETATM   14  O   UNL     1      39.475 -13.503   1.925  1.00  0.00    -0.266 OA
BRANCH  12  15
HETATM   15  C   UNL     1      40.801 -12.729  -0.640  1.00  0.00     0.035 A 
HETATM   16  C   UNL     1      40.139 -13.227  -1.763  1.00  0.00     0.030 A 
HETATM   17  C   UNL     1      39.657 -12.358  -2.749  1.00  0.00     0.012 A 
HETATM   18  C   UNL     1      39.832 -10.973  -2.632  1.00  0.00    -0.030 A 
HETATM   19  C   UNL     1      40.526 -10.480  -1.520  1.00  0.00     0.012 A 
HETATM   20  C   UNL     1      40.998 -11.349  -0.531  1.00  0.00     0.030 A 
BRANCH  18  21
HETATM   21  C   UNL     1      39.295 -10.049  -3.703  1.00  0.00     0.147 C 
HETATM   22  C   UNL     1      39.441  -8.583  -3.324  1.00  0.00     0.044 C 
BRANCH  21  23
HETATM   23  O   UNL     1      37.917 -10.327  -3.954  1.00  0.00    -0.391 OA
HETATM   24  H   UNL     1      37.880 -11.207  -4.369  1.00  0.00     0.210 HD
ENDBRANCH  21  23
ENDBRANCH  18  21
ENDBRANCH  12  15
ENDBRANCH   1  11
BRANCH   8  25
HETATM   25  C   UNL     1      43.444 -14.750   6.442  1.00  0.00     0.409 C 
HETATM   26  F   UNL     1      43.096 -14.404   7.701  1.00  0.00    -0.169 F 
HETATM   27  F   UNL     1      44.610 -15.442   6.541  1.00  0.00    -0.169 F 
HETATM   28  F   UNL     1      43.724 -13.619   5.765  1.00  0.00    -0.169 F 
ENDBRANCH   8  25
BRANCH   6  29
HETATM   29  C   UNL     1      43.888 -19.038   4.864  1.00  0.00     0.075 A 
HETATM   30  O   UNL     1      43.918 -19.532   3.593  1.00  0.00    -0.325 OA
HETATM   31  C   UNL     1      43.904 -20.887   3.696  1.00  0.00     0.142 A 
HETATM   32  C   UNL     1      43.872 -21.272   5.016  1.00  0.00     0.027 A 
HETATM   33  C   UNL     1      43.862 -20.078   5.774  1.00  0.00     0.037 A 
ENDBRANCH   6  29
TORSDOF 6
ENDMDL
MODEL 7
REMARK VINA RESULT:      -8.1      5.281      8.964
REMARK  6 active torsions:
REMARK  status: ('A' for Active; 'I' for Inactive)
REMARK    1  A    between atoms: C_2  and  O_3 
REMARK    2  A    between atoms: C_2  and  C_4 
REMARK    3  A    between atoms: C_7  and  N_8 
REMARK       I    between atoms: N_8  and  C_9 
REMARK    4  A    between atoms: C_9  and  C_10 
REMARK    5  A    between atoms: C_15  and  C_16 
REMARK    6  A    between atoms: C_22  and  C_23 
ROOT
HETATM    1  C   UNL     1      40.884 -14.314   2.889  1.00  0.00     0.148 A 
HETATM    2  N   UNL     1      40.922 -14.387   4.242  1.00  0.00    -0.165 NA
HETATM    3  N   UNL     1      42.002 -15.156   4.475  1.00  0.00    -0.240 N 
HETATM    4  C   UNL     1      42.590 -15.651   3.347  1.00  0.00     0.123 A 
HETATM    5  N   UNL     1      43.581 -16.560   3.421  1.00  0.00    -0.364 N 
HETATM    6  C   UNL     1      43.844 -17.344   4.637  1.00  0.00     0.143 C 
HETATM    7  C   UNL     1      42.787 -17.069   5.733  1.00  0.00     0.068 C 
HETATM    8  C   UNL     1      42.379 -15.591   5.805  1.00  0.00     0.221 C 
HETATM    9  C   UNL     1      41.948 -15.053   2.297  1.00  0.00     0.089 A 
HETATM   10  H   UNL     1      44.025 -16.923   2.578  1.00  0.00     0.162 HD
ENDROOT
BRANCH   1  11
HETATM   11  C   UNL     1      39.805 -13.613   2.169  1.00  0.00     0.276 C 
HETATM   12  N   UNL     1      40.043 -13.561   0.809  1.00  0.00    -0.322 N 
HETATM   13  H   UNL     1      40.871 -14.078   0.523  1.00  0.00     0.169 HD
HETATM   14  O   UNL     1      38.853 -13.126   2.767  1.00  0.00    -0.266 OA
BRANCH  12  15
HETATM   15  C   UNL     1      39.347 -12.829  -0.166  1.00  0.00     0.035 A 
HETATM   16  C   UNL     1      38.674 -13.411  -1.240  1.00  0.00     0.030 A 
HETATM   17  C   UNL     1      37.947 -12.621  -2.138  1.00  0.00     0.012 A 
HETATM   18  C   UNL     1      37.882 -11.231  -1.981  1.00  0.00    -0.030 A 
HETATM   19  C   UNL     1      38.586 -10.646  -0.920  1.00  0.00     0.012 A 
HETATM   20  C   UNL     1      39.304 -11.439  -0.018  1.00  0.00     0.030 A 
BRANCH  18  21
HETATM   21  C   UNL     1      37.082 -10.394  -2.955  1.00  0.00     0.147 C 
HETATM   22  C   UNL     1      35.757 -11.045  -3.319  1.00  0.00     0.044 C 
BRANCH  21  23
HETATM   23  O   UNL     1      37.831 -10.170  -4.150  1.00  0.00    -0.391 OA
HETATM   24  H   UNL     1      38.643 -10.701  -4.076  1.00  0.00     0.210 HD
ENDBRANCH  21  23
ENDBRANCH  18  21
ENDBRANCH  12  15
ENDBRANCH   1  11
BRANCH   8  25
HETATM   25  C   UNL     1      43.470 -14.703   6.357  1.00  0.00     0.409 C 
HETATM   26  F   UNL     1      44.652 -15.350   6.459  1.00  0.00    -0.169 F 
HETATM   27  F   UNL     1      43.675 -13.657   5.514  1.00  0.00    -0.169 F 
HETATM   28  F   UNL     1      43.183 -14.174   7.563  1.00  0.00    -0.169 F 
ENDBRANCH   8  25
BRANCH   6  29
HETATM   29  C   UNL     1      43.888 -18.818   4.365  1.00  0.00     0.075 A 
HETATM   30  O   UNL     1      43.958 -19.644   5.449  1.00  0.00    -0.325 OA
HETATM   31  C   UNL     1      43.977 -20.917   4.974  1.00  0.00     0.142 A 
HETATM   32  C   UNL     1      43.914 -20.923   3.600  1.00  0.00     0.027 A 
HETATM   33  C   UNL     1      43.856 -19.566   3.204  1.00  0.00     0.037 A 
ENDBRANCH   6  29
TORSDOF 6
ENDMDL
MODEL 8
REMARK VINA RESULT:      -7.8      6.410      8.610
REMARK  6 active torsions:
REMARK  status: ('A' for Active; 'I' for Inactive)
REMARK    1  A    between atoms: C_2  and  O_3 
REMARK    2  A    between atoms: C_2  and  C_4 
REMARK    3  A    between atoms: C_7  and  N_8 
REMARK       I    between atoms: N_8  and  C_9 
REMARK    4  A    between atoms: C_9  and  C_10 
REMARK    5  A    between atoms: C_15  and  C_16 
REMARK    6  A    between atoms: C_22  and  C_23 
ROOT
HETATM    1  C   UNL     1      39.863 -13.886   0.568  1.00  0.00     0.148 A 
HETATM    2  N   UNL     1      39.965 -13.883  -0.784  1.00  0.00    -0.165 NA
HETATM    3  N   UNL     1      39.514 -12.659  -1.120  1.00  0.00    -0.240 N 
HETATM    4  C   UNL     1      39.045 -11.927  -0.067  1.00  0.00     0.123 A 
HETATM    5  N   UNL     1      38.419 -10.751  -0.263  1.00  0.00    -0.364 N 
HETATM    6  C   UNL     1      37.876 -10.354  -1.570  1.00  0.00     0.143 C 
HETATM    7  C   UNL     1      38.016 -11.486  -2.615  1.00  0.00     0.068 C 
HETATM    8  C   UNL     1      39.348 -12.240  -2.497  1.00  0.00     0.221 C 
HETATM    9  C   UNL     1      39.337 -12.654   1.054  1.00  0.00     0.089 A 
HETATM   10  H   UNL     1      38.076 -10.202   0.524  1.00  0.00     0.162 HD
ENDROOT
BRANCH   1  11
HETATM   11  C   UNL     1      40.187 -15.074   1.379  1.00  0.00     0.276 C 
HETATM   12  N   UNL     1      41.051 -14.771   2.413  1.00  0.00    -0.322 N 
HETATM   13  H   UNL     1      41.253 -13.777   2.493  1.00  0.00     0.169 HD
HETATM   14  O   UNL     1      39.740 -16.179   1.096  1.00  0.00    -0.266 OA
BRANCH  12  15
HETATM   15  C   UNL     1      41.722 -15.657   3.271  1.00  0.00     0.035 A 
HETATM   16  C   UNL     1      42.833 -16.412   2.892  1.00  0.00     0.030 A 
HETATM   17  C   UNL     1      43.491 -17.226   3.821  1.00  0.00     0.012 A 
HETATM   18  C   UNL     1      43.048 -17.304   5.148  1.00  0.00    -0.030 A 
HETATM   19  C   UNL     1      41.913 -16.570   5.516  1.00  0.00     0.012 A 
HETATM   20  C   UNL     1      41.263 -15.749   4.589  1.00  0.00     0.030 A 
BRANCH  18  21
HETATM   21  C   UNL     1      43.778 -18.181   6.140  1.00  0.00     0.147 C 
HETATM   22  C   UNL     1      43.622 -19.661   5.825  1.00  0.00     0.044 C 
BRANCH  21  23
HETATM   23  O   UNL     1      43.303 -17.937   7.464  1.00  0.00    -0.391 OA
HETATM   24  H   UNL     1      43.414 -18.768   7.959  1.00  0.00     0.210 HD
ENDBRANCH  21  23
ENDBRANCH  18  21
ENDBRANCH  12  15
ENDBRANCH   1  11
BRANCH   8  25
HETATM   25  C   UNL     1      40.534 -11.415  -2.940  1.00  0.00     0.409 C 
HETATM   26  F   UNL     1      41.199 -10.872  -1.897  1.00  0.00    -0.169 F 
HETATM   27  F   UNL     1      41.423 -12.210  -3.592  1.00  0.00    -0.169 F 
HETATM   28  F   UNL     1      40.216 -10.418  -3.791  1.00  0.00    -0.169 F 
ENDBRANCH   8  25
BRANCH   6  29
HETATM   29  C   UNL     1      36.434  -9.947  -1.488  1.00  0.00     0.075 A 
HETATM   30  O   UNL     1      35.694 -10.059  -2.628  1.00  0.00    -0.325 OA
HETATM   31  C   UNL     1      34.434  -9.651  -2.323  1.00  0.00     0.142 A 
HETATM   32  C   UNL     1      34.352  -9.284  -0.999  1.00  0.00     0.027 A 
HETATM   33  C   UNL     1      35.644  -9.475  -0.457  1.00  0.00     0.037 A 
ENDBRANCH   6  29
TORSDOF 6
ENDMDL
MODEL 9
REMARK VINA RESULT:      -7.8      4.600      9.421
REMARK  6 active torsions:
REMARK  status: ('A' for Active; 'I' for Inactive)
REMARK    1  A    between atoms: C_2  and  O_3 
REMARK    2  A    between atoms: C_2  and  C_4 
REMARK    3  A    between atoms: C_7  and  N_8 
REMARK       I    between atoms: N_8  and  C_9 
REMARK    4  A    between atoms: C_9  and  C_10 
REMARK    5  A    between atoms: C_15  and  C_16 
REMARK    6  A    between atoms: C_22  and  C_23 
ROOT
HETATM    1  C   UNL     1      40.851 -13.905   4.728  1.00  0.00     0.148 A 
HETATM    2  N   UNL     1      40.961 -14.598   5.888  1.00  0.00    -0.165 NA
HETATM    3  N   UNL     1      42.008 -15.412   5.656  1.00  0.00    -0.240 N 
HETATM    4  C   UNL     1      42.503 -15.340   4.386  1.00  0.00     0.123 A 
HETATM    5  N   UNL     1      43.445 -16.202   3.957  1.00  0.00    -0.364 N 
HETATM    6  C   UNL     1      43.732 -17.466   4.650  1.00  0.00     0.143 C 
HETATM    7  C   UNL     1      42.757 -17.707   5.827  1.00  0.00     0.068 C 
HETATM    8  C   UNL     1      42.436 -16.423   6.603  1.00  0.00     0.221 C 
HETATM    9  C   UNL     1      41.837 -14.309   3.783  1.00  0.00     0.089 A 
HETATM   10  H   UNL     1      43.819 -16.142   3.010  1.00  0.00     0.162 HD
ENDROOT
BRANCH   1  11
HETATM   11  C   UNL     1      39.772 -12.926   4.497  1.00  0.00     0.276 C 
HETATM   12  N   UNL     1      39.696 -12.548   3.170  1.00  0.00    -0.322 N 
HETATM   13  H   UNL     1      40.334 -13.061   2.566  1.00  0.00     0.169 HD
HETATM   14  O   UNL     1      39.082 -12.509   5.419  1.00  0.00    -0.266 OA
BRANCH  12  15
HETATM   15  C   UNL     1      38.933 -11.514   2.605  1.00  0.00     0.035 A 
HETATM   16  C   UNL     1      37.923 -11.720   1.665  1.00  0.00     0.030 A 
HETATM   17  C   UNL     1      37.159 -10.647   1.193  1.00  0.00     0.012 A 
HETATM   18  C   UNL     1      37.393  -9.344   1.649  1.00  0.00    -0.030 A 
HETATM   19  C   UNL     1      38.430  -9.136   2.569  1.00  0.00     0.012 A 
HETATM   20  C   UNL     1      39.186 -10.211   3.046  1.00  0.00     0.030 A 
BRANCH  18  21
HETATM   21  C   UNL     1      36.550  -8.198   1.136  1.00  0.00     0.147 C 
HETATM   22  C   UNL     1      37.276  -6.864   1.224  1.00  0.00     0.044 C 
BRANCH  21  23
HETATM   23  O   UNL     1      35.330  -8.109   1.872  1.00  0.00    -0.391 OA
HETATM   24  H   UNL     1      34.848  -7.338   1.525  1.00  0.00     0.210 HD
ENDBRANCH  21  23
ENDBRANCH  18  21
ENDBRANCH  12  15
ENDBRANCH   1  11
BRANCH   8  25
HETATM   25  C   UNL     1      43.605 -15.918   7.417  1.00  0.00     0.409 C 
HETATM   26  F   UNL     1      43.211 -15.346   8.576  1.00  0.00    -0.169 F 
HETATM   27  F   UNL     1      44.408 -16.961   7.755  1.00  0.00    -0.169 F 
HETATM   28  F   UNL     1      44.382 -15.032   6.762  1.00  0.00    -0.169 F 
ENDBRANCH   8  25
BRANCH   6  29
HETATM   29  C   UNL     1      43.679 -18.647   3.727  1.00  0.00     0.075 A 
HETATM   30  O   UNL     1      43.980 -19.865   4.263  1.00  0.00    -0.325 OA
HETATM   31  C   UNL     1      43.860 -20.777   3.263  1.00  0.00     0.142 A 
HETATM   32  C   UNL     1      43.480 -20.163   2.091  1.00  0.00     0.027 A 
HETATM   33  C   UNL     1      43.362 -18.785   2.389  1.00  0.00     0.037 A 
ENDBRANCH   6  29
TORSDOF 6
ENDMDL
MODEL 10
REMARK VINA RESULT:      -7.7      5.344      7.243
REMARK  6 active torsions:
REMARK  status: ('A' for Active; 'I' for Inactive)
REMARK    1  A    between atoms: C_2  and  O_3 
REMARK    2  A    between atoms: C_2  and  C_4 
REMARK    3  A    between atoms: C_7  and  N_8 
REMARK       I    between atoms: N_8  and  C_9 
REMARK    4  A    between atoms: C_9  and  C_10 
REMARK    5  A    between atoms: C_15  and  C_16 
REMARK    6  A    between atoms: C_22  and  C_23 
ROOT
HETATM    1  C   UNL     1      40.972 -13.672   3.432  1.00  0.00     0.148 A 
HETATM    2  N   UNL     1      41.695 -14.730   3.873  1.00  0.00    -0.165 NA
HETATM    3  N   UNL     1      42.107 -14.330   5.091  1.00  0.00    -0.240 N 
HETATM    4  C   UNL     1      41.766 -13.046   5.403  1.00  0.00     0.123 A 
HETATM    5  N   UNL     1      42.240 -12.452   6.515  1.00  0.00    -0.364 N 
HETATM    6  C   UNL     1      43.403 -12.968   7.252  1.00  0.00     0.143 C 
HETATM    7  C   UNL     1      44.048 -14.174   6.528  1.00  0.00     0.068 C 
HETATM    8  C   UNL     1      43.009 -15.117   5.907  1.00  0.00     0.221 C 
HETATM    9  C   UNL     1      40.954 -12.617   4.390  1.00  0.00     0.089 A 
HETATM   10  H   UNL     1      41.979 -11.495   6.751  1.00  0.00     0.162 HD
ENDROOT
BRANCH   1  11
HETATM   11  C   UNL     1      40.373 -13.634   2.085  1.00  0.00     0.276 C 
HETATM   12  N   UNL     1      40.590 -12.423   1.458  1.00  0.00    -0.322 N 
HETATM   13  H   UNL     1      41.189 -11.794   1.989  1.00  0.00     0.169 HD
HETATM   14  O   UNL     1      39.739 -14.586   1.644  1.00  0.00    -0.266 OA
BRANCH  12  15
HETATM   15  C   UNL     1      40.024 -11.950   0.263  1.00  0.00     0.035 A 
HETATM   16  C   UNL     1      38.715 -11.481   0.157  1.00  0.00     0.030 A 
HETATM   17  C   UNL     1      38.239 -10.964  -1.054  1.00  0.00     0.012 A 
HETATM   18  C   UNL     1      39.064 -10.911  -2.185  1.00  0.00    -0.030 A 
HETATM   19  C   UNL     1      40.368 -11.413  -2.083  1.00  0.00     0.012 A 
HETATM   20  C   UNL     1      40.844 -11.920  -0.869  1.00  0.00     0.030 A 
BRANCH  18  21
HETATM   21  C   UNL     1      38.536 -10.339  -3.482  1.00  0.00     0.147 C 
HETATM   22  C   UNL     1      38.608  -8.820  -3.513  1.00  0.00     0.044 C 
BRANCH  21  23
HETATM   23  O   UNL     1      37.182 -10.742  -3.688  1.00  0.00    -0.391 OA
HETATM   24  H   UNL     1      36.946 -11.324  -2.946  1.00  0.00     0.210 HD
ENDBRANCH  21  23
ENDBRANCH  18  21
ENDBRANCH  12  15
ENDBRANCH   1  11
BRANCH   8  25
HETATM   25  C   UNL     1      42.232 -15.901   6.940  1.00  0.00     0.409 C 
HETATM   26  F   UNL     1      40.918 -15.588   6.937  1.00  0.00    -0.169 F 
HETATM   27  F   UNL     1      42.313 -17.229   6.659  1.00  0.00    -0.169 F 
HETATM   28  F   UNL     1      42.691 -15.747   8.199  1.00  0.00    -0.169 F 
ENDBRANCH   8  25
BRANCH   6  29
HETATM   29  C   UNL     1      44.451 -11.917   7.471  1.00  0.00     0.075 A 
HETATM   30  O   UNL     1      44.448 -11.285   8.680  1.00  0.00    -0.325 OA
HETATM   31  C   UNL     1      45.473 -10.394   8.662  1.00  0.00     0.142 A 
HETATM   32  C   UNL     1      46.140 -10.448   7.460  1.00  0.00     0.027 A 
HETATM   33  C   UNL     1      45.481 -11.434   6.688  1.00  0.00     0.037 A 
ENDBRANCH   6  29
TORSDOF 6
ENDMDL
