MODEL 1
REMARK VINA RESULT:      -8.4      0.000      0.000
REMARK  1 active torsions:
REMARK  status: ('A' for Active; 'I' for Inactive)
REMARK    1  A    between atoms: C_8  and  C_9 
ROOT
HETATM    1  C   UNL     1      43.446 -13.565   6.812  1.00  0.00     0.073 C 
HETATM    2  C   UNL     1      43.431 -12.886   5.491  1.00  0.00     0.062 C 
HETATM    3  N   UNL     1      44.359 -11.955   5.239  1.00  0.00    -0.178 NA
HETATM    4  N   UNL     1      44.106 -11.580   3.981  1.00  0.00    -0.262 N 
HETATM    5  H   UNL     1      44.706 -10.879   3.563  1.00  0.00     0.191 HD
HETATM    6  C   UNL     1      42.958 -12.120   3.475  1.00  0.00     0.134 C 
HETATM    7  C   UNL     1      42.551 -13.088   4.375  1.00  0.00     0.032 C 
HETATM    8  C   UNL     1      41.509 -14.165   4.241  1.00  0.00     0.120 C 
HETATM    9  S   UNL     1      39.942 -13.777   3.390  1.00  0.00    -0.141 SA
HETATM   10  C   UNL     1      40.097 -11.996   3.061  1.00  0.00     0.136 C 
HETATM   11  C   UNL     1      38.717 -11.482   2.643  1.00  0.00     0.031 C 
HETATM   12  C   UNL     1      41.116 -11.721   1.951  1.00  0.00     0.236 C 
HETATM   13  O   UNL     1      40.793 -11.412   0.801  1.00  0.00    -0.272 OA
HETATM   14  N   UNL     1      42.450 -11.704   2.270  1.00  0.00    -0.311 N 
HETATM   15  H   UNL     1      43.039 -11.249   1.583  1.00  0.00     0.170 HD
ENDROOT
BRANCH   8  16
HETATM   16  C   UNL     1      42.230 -15.354   3.583  1.00  0.00    -0.029 A 
HETATM   17  C   UNL     1      42.722 -16.477   4.329  1.00  0.00    -0.018 A 
HETATM   18  C   UNL     1      43.422 -17.503   3.635  1.00  0.00    -0.025 A 
HETATM   19  C   UNL     1      42.563 -16.661   5.726  1.00  0.00     0.013 A 
HETATM   20  C   UNL     1      43.948 -18.607   4.325  1.00  0.00     0.012 A 
HETATM   21  C   UNL     1      43.599 -17.431   2.247  1.00  0.00     0.012 A 
HETATM   22  C   UNL     1      43.793 -18.735   5.702  1.00  0.00     0.001 A 
HETATM   23  C   UNL     1      43.094 -17.765   6.401  1.00  0.00     0.001 A 
HETATM   24  C   UNL     1      43.100 -16.360   1.522  1.00  0.00     0.002 A 
HETATM   25  C   UNL     1      42.432 -15.336   2.180  1.00  0.00     0.009 A 
ENDBRANCH   8  16
TORSDOF 1
ENDMDL
MODEL 2
REMARK VINA RESULT:      -8.0      2.418      3.866
REMARK  1 active torsions:
REMARK  status: ('A' for Active; 'I' for Inactive)
REMARK    1  A    between atoms: C_8  and  C_9 
ROOT
HETATM    1  C   UNL     1      42.194 -16.170   1.158  1.00  0.00     0.073 C 
HETATM    2  C   UNL     1      41.209 -15.453   2.008  1.00  0.00     0.062 C 
HETATM    3  N   UNL     1      39.906 -15.607   1.746  1.00  0.00    -0.178 NA
HETATM    4  N   UNL     1      39.299 -14.887   2.694  1.00  0.00    -0.262 N 
HETATM    5  H   UNL     1      38.286 -14.868   2.704  1.00  0.00     0.191 HD
HETATM    6  C   UNL     1      40.165 -14.154   3.455  1.00  0.00     0.134 C 
HETATM    7  C   UNL     1      41.436 -14.593   3.134  1.00  0.00     0.032 C 
HETATM    8  C   UNL     1      42.755 -14.335   3.811  1.00  0.00     0.120 C 
HETATM    9  S   UNL     1      43.100 -12.666   4.465  1.00  0.00    -0.141 SA
HETATM   10  C   UNL     1      41.652 -11.714   3.915  1.00  0.00     0.136 C 
HETATM   11  C   UNL     1      41.971 -10.231   4.118  1.00  0.00     0.031 C 
HETATM   12  C   UNL     1      40.400 -12.095   4.712  1.00  0.00     0.236 C 
HETATM   13  O   UNL     1      39.925 -11.383   5.600  1.00  0.00    -0.272 OA
HETATM   14  N   UNL     1      39.707 -13.221   4.351  1.00  0.00    -0.311 N 
HETATM   15  H   UNL     1      38.761 -13.265   4.714  1.00  0.00     0.170 HD
ENDROOT
BRANCH   8  16
HETATM   16  C   UNL     1      42.870 -15.406   4.908  1.00  0.00    -0.029 A 
HETATM   17  C   UNL     1      43.345 -16.736   4.652  1.00  0.00    -0.018 A 
HETATM   18  C   UNL     1      43.364 -17.671   5.724  1.00  0.00    -0.025 A 
HETATM   19  C   UNL     1      43.812 -17.208   3.399  1.00  0.00     0.013 A 
HETATM   20  C   UNL     1      43.793 -18.992   5.516  1.00  0.00     0.012 A 
HETATM   21  C   UNL     1      42.958 -17.290   7.009  1.00  0.00     0.012 A 
HETATM   22  C   UNL     1      44.217 -19.423   4.263  1.00  0.00     0.001 A 
HETATM   23  C   UNL     1      44.233 -18.528   3.206  1.00  0.00     0.001 A 
HETATM   24  C   UNL     1      42.525 -15.998   7.263  1.00  0.00     0.002 A 
HETATM   25  C   UNL     1      42.477 -15.073   6.228  1.00  0.00     0.009 A 
ENDBRANCH   8  16
TORSDOF 1
ENDMDL
MODEL 3
REMARK VINA RESULT:      -7.9      1.261      2.319
REMARK  1 active torsions:
REMARK  status: ('A' for Active; 'I' for Inactive)
REMARK    1  A    between atoms: C_8  and  C_9 
ROOT
HETATM    1  C   UNL     1      43.911 -11.892   7.186  1.00  0.00     0.073 C 
HETATM    2  C   UNL     1      43.827 -11.980   5.705  1.00  0.00     0.062 C 
HETATM    3  N   UNL     1      44.630 -11.202   4.970  1.00  0.00    -0.178 NA
HETATM    4  N   UNL     1      44.349 -11.547   3.711  1.00  0.00    -0.262 N 
HETATM    5  H   UNL     1      44.859 -11.088   2.965  1.00  0.00     0.191 HD
HETATM    6  C   UNL     1      43.287 -12.400   3.606  1.00  0.00     0.134 C 
HETATM    7  C   UNL     1      42.995 -12.821   4.891  1.00  0.00     0.032 C 
HETATM    8  C   UNL     1      42.104 -13.933   5.372  1.00  0.00     0.120 C 
HETATM    9  S   UNL     1      40.512 -14.216   4.526  1.00  0.00    -0.141 SA
HETATM   10  C   UNL     1      40.440 -12.841   3.339  1.00  0.00     0.136 C 
HETATM   11  C   UNL     1      39.011 -12.777   2.793  1.00  0.00     0.031 C 
HETATM   12  C   UNL     1      41.431 -13.047   2.188  1.00  0.00     0.236 C 
HETATM   13  O   UNL     1      41.087 -13.402   1.058  1.00  0.00    -0.272 OA
HETATM   14  N   UNL     1      42.746 -12.714   2.385  1.00  0.00    -0.311 N 
HETATM   15  H   UNL     1      43.281 -12.602   1.531  1.00  0.00     0.170 HD
ENDROOT
BRANCH   8  16
HETATM   16  C   UNL     1      42.981 -15.197   5.363  1.00  0.00    -0.029 A 
HETATM   17  C   UNL     1      42.942 -16.164   4.304  1.00  0.00    -0.018 A 
HETATM   18  C   UNL     1      43.754 -17.328   4.414  1.00  0.00    -0.025 A 
HETATM   19  C   UNL     1      42.154 -16.057   3.129  1.00  0.00     0.013 A 
HETATM   20  C   UNL     1      43.729 -18.316   3.417  1.00  0.00     0.012 A 
HETATM   21  C   UNL     1      44.595 -17.507   5.519  1.00  0.00     0.012 A 
HETATM   22  C   UNL     1      42.920 -18.186   2.293  1.00  0.00     0.001 A 
HETATM   23  C   UNL     1      42.137 -17.052   2.147  1.00  0.00     0.001 A 
HETATM   24  C   UNL     1      44.653 -16.559   6.529  1.00  0.00     0.002 A 
HETATM   25  C   UNL     1      43.854 -15.426   6.455  1.00  0.00     0.009 A 
ENDBRANCH   8  16
TORSDOF 1
ENDMDL
MODEL 4
REMARK VINA RESULT:      -7.7      3.258      5.091
REMARK  1 active torsions:
REMARK  status: ('A' for Active; 'I' for Inactive)
REMARK    1  A    between atoms: C_8  and  C_9 
ROOT
HETATM    1  C   UNL     1      41.934 -10.685   2.901  1.00  0.00     0.073 C 
HETATM    2  C   UNL     1      41.801 -10.563   4.375  1.00  0.00     0.062 C 
HETATM    3  N   UNL     1      40.778  -9.857   4.870  1.00  0.00    -0.178 NA
HETATM    4  N   UNL     1      40.914  -9.977   6.194  1.00  0.00    -0.262 N 
HETATM    5  H   UNL     1      40.227  -9.527   6.787  1.00  0.00     0.191 HD
HETATM    6  C   UNL     1      42.071 -10.600   6.566  1.00  0.00     0.134 C 
HETATM    7  C   UNL     1      42.623 -11.123   5.411  1.00  0.00     0.032 C 
HETATM    8  C   UNL     1      43.748 -12.105   5.227  1.00  0.00     0.120 C 
HETATM    9  S   UNL     1      45.215 -11.978   6.305  1.00  0.00    -0.141 SA
HETATM   10  C   UNL     1      44.876 -10.471   7.264  1.00  0.00     0.136 C 
HETATM   11  C   UNL     1      46.174 -10.074   7.973  1.00  0.00     0.031 C 
HETATM   12  C   UNL     1      43.767 -10.704   8.295  1.00  0.00     0.236 C 
HETATM   13  O   UNL     1      43.986 -10.839   9.501  1.00  0.00    -0.272 OA
HETATM   14  N   UNL     1      42.461 -10.647   7.880  1.00  0.00    -0.311 N 
HETATM   15  H   UNL     1      41.789 -10.526   8.630  1.00  0.00     0.170 HD
ENDROOT
BRANCH   8  16
HETATM   16  C   UNL     1      43.099 -13.496   5.318  1.00  0.00    -0.029 A 
HETATM   17  C   UNL     1      42.909 -14.343   4.176  1.00  0.00    -0.018 A 
HETATM   18  C   UNL     1      42.250 -15.592   4.355  1.00  0.00    -0.025 A 
HETATM   19  C   UNL     1      43.334 -14.042   2.857  1.00  0.00     0.013 A 
HETATM   20  C   UNL     1      42.014 -16.442   3.262  1.00  0.00     0.012 A 
HETATM   21  C   UNL     1      41.824 -15.996   5.626  1.00  0.00     0.012 A 
HETATM   22  C   UNL     1      42.424 -16.096   1.979  1.00  0.00     0.001 A 
HETATM   23  C   UNL     1      43.090 -14.898   1.778  1.00  0.00     0.001 A 
HETATM   24  C   UNL     1      42.033 -15.190   6.735  1.00  0.00     0.002 A 
HETATM   25  C   UNL     1      42.654 -13.958   6.582  1.00  0.00     0.009 A 
ENDBRANCH   8  16
TORSDOF 1
ENDMDL
MODEL 5
REMARK VINA RESULT:      -7.7     15.544     17.816
REMARK  1 active torsions:
REMARK  status: ('A' for Active; 'I' for Inactive)
REMARK    1  A    between atoms: C_8  and  C_9 
ROOT
HETATM    1  C   UNL     1      48.369 -32.826  -2.417  1.00  0.00     0.073 C 
HETATM    2  C   UNL     1      48.665 -31.544  -1.726  1.00  0.00     0.062 C 
HETATM    3  N   UNL     1      49.917 -31.073  -1.760  1.00  0.00    -0.178 NA
HETATM    4  N   UNL     1      49.842 -29.911  -1.104  1.00  0.00    -0.262 N 
HETATM    5  H   UNL     1      50.686 -29.358  -1.016  1.00  0.00     0.191 HD
HETATM    6  C   UNL     1      48.627 -29.697  -0.518  1.00  0.00     0.134 C 
HETATM    7  C   UNL     1      47.778 -30.673  -1.009  1.00  0.00     0.032 C 
HETATM    8  C   UNL     1      46.282 -30.798  -0.917  1.00  0.00     0.120 C 
HETATM    9  S   UNL     1      45.453 -30.345   0.645  1.00  0.00    -0.141 SA
HETATM   10  C   UNL     1      46.851 -29.981   1.748  1.00  0.00     0.136 C 
HETATM   11  C   UNL     1      46.303 -29.904   3.176  1.00  0.00     0.031 C 
HETATM   12  C   UNL     1      47.525 -28.658   1.374  1.00  0.00     0.236 C 
HETATM   13  O   UNL     1      47.373 -27.618   2.020  1.00  0.00    -0.272 OA
HETATM   14  N   UNL     1      48.430 -28.648   0.344  1.00  0.00    -0.311 N 
HETATM   15  H   UNL     1      49.038 -27.837   0.328  1.00  0.00     0.170 HD
ENDROOT
BRANCH   8  16
HETATM   16  C   UNL     1      45.729 -29.991  -2.104  1.00  0.00    -0.029 A 
HETATM   17  C   UNL     1      45.152 -30.608  -3.264  1.00  0.00    -0.018 A 
HETATM   18  C   UNL     1      44.716 -29.777  -4.334  1.00  0.00    -0.025 A 
HETATM   19  C   UNL     1      44.969 -32.004  -3.440  1.00  0.00     0.013 A 
HETATM   20  C   UNL     1      44.173 -30.336  -5.501  1.00  0.00     0.012 A 
HETATM   21  C   UNL     1      44.821 -28.384  -4.240  1.00  0.00     0.012 A 
HETATM   22  C   UNL     1      44.036 -31.713  -5.645  1.00  0.00     0.001 A 
HETATM   23  C   UNL     1      44.429 -32.547  -4.610  1.00  0.00     0.001 A 
HETATM   24  C   UNL     1      45.352 -27.786  -3.108  1.00  0.00     0.002 A 
HETATM   25  C   UNL     1      45.804 -28.577  -2.060  1.00  0.00     0.009 A 
ENDBRANCH   8  16
TORSDOF 1
ENDMDL
MODEL 6
REMARK VINA RESULT:      -7.5      3.120      5.671
REMARK  1 active torsions:
REMARK  status: ('A' for Active; 'I' for Inactive)
REMARK    1  A    between atoms: C_8  and  C_9 
ROOT
HETATM    1  C   UNL     1      43.656 -15.099   6.692  1.00  0.00     0.073 C 
HETATM    2  C   UNL     1      42.273 -14.781   6.251  1.00  0.00     0.062 C 
HETATM    3  N   UNL     1      41.263 -15.514   6.734  1.00  0.00    -0.178 NA
HETATM    4  N   UNL     1      40.174 -14.958   6.193  1.00  0.00    -0.262 N 
HETATM    5  H   UNL     1      39.271 -15.347   6.434  1.00  0.00     0.191 HD
HETATM    6  C   UNL     1      40.461 -14.000   5.263  1.00  0.00     0.134 C 
HETATM    7  C   UNL     1      41.817 -13.751   5.361  1.00  0.00     0.032 C 
HETATM    8  C   UNL     1      42.649 -12.643   4.775  1.00  0.00     0.120 C 
HETATM    9  S   UNL     1      42.299 -12.083   3.073  1.00  0.00    -0.141 SA
HETATM   10  C   UNL     1      41.018 -13.250   2.524  1.00  0.00     0.136 C 
HETATM   11  C   UNL     1      40.870 -13.092   1.009  1.00  0.00     0.031 C 
HETATM   12  C   UNL     1      39.678 -12.970   3.213  1.00  0.00     0.236 C 
HETATM   13  O   UNL     1      38.732 -12.417   2.646  1.00  0.00    -0.272 OA
HETATM   14  N   UNL     1      39.475 -13.455   4.479  1.00  0.00    -0.311 N 
HETATM   15  H   UNL     1      38.502 -13.488   4.763  1.00  0.00     0.170 HD
ENDROOT
BRANCH   8  16
HETATM   16  C   UNL     1      42.559 -11.484   5.781  1.00  0.00    -0.029 A 
HETATM   17  C   UNL     1      43.683 -11.027   6.547  1.00  0.00    -0.018 A 
HETATM   18  C   UNL     1      43.486  -9.981   7.492  1.00  0.00    -0.025 A 
HETATM   19  C   UNL     1      45.004 -11.533   6.438  1.00  0.00     0.013 A 
HETATM   20  C   UNL     1      44.549  -9.521   8.285  1.00  0.00     0.012 A 
HETATM   21  C   UNL     1      42.225  -9.391   7.647  1.00  0.00     0.012 A 
HETATM   22  C   UNL     1      45.824 -10.064   8.166  1.00  0.00     0.001 A 
HETATM   23  C   UNL     1      46.052 -11.066   7.237  1.00  0.00     0.001 A 
HETATM   24  C   UNL     1      41.144  -9.813   6.887  1.00  0.00     0.002 A 
HETATM   25  C   UNL     1      41.308 -10.846   5.974  1.00  0.00     0.009 A 
ENDBRANCH   8  16
TORSDOF 1
ENDMDL
MODEL 7
REMARK VINA RESULT:      -7.4      3.079      5.338
REMARK  1 active torsions:
REMARK  status: ('A' for Active; 'I' for Inactive)
REMARK    1  A    between atoms: C_8  and  C_9 
ROOT
HETATM    1  C   UNL     1      38.944 -10.768   3.811  1.00  0.00     0.073 C 
HETATM    2  C   UNL     1      39.652 -11.574   4.839  1.00  0.00     0.062 C 
HETATM    3  N   UNL     1      39.026 -11.831   5.993  1.00  0.00    -0.178 NA
HETATM    4  N   UNL     1      39.891 -12.597   6.665  1.00  0.00    -0.262 N 
HETATM    5  H   UNL     1      39.619 -12.932   7.581  1.00  0.00     0.191 HD
HETATM    6  C   UNL     1      41.106 -12.709   6.050  1.00  0.00     0.134 C 
HETATM    7  C   UNL     1      40.957 -12.169   4.786  1.00  0.00     0.032 C 
HETATM    8  C   UNL     1      41.864 -12.231   3.588  1.00  0.00     0.120 C 
HETATM    9  S   UNL     1      43.666 -12.083   3.836  1.00  0.00    -0.141 SA
HETATM   10  C   UNL     1      43.796 -11.736   5.616  1.00  0.00     0.136 C 
HETATM   11  C   UNL     1      45.228 -11.271   5.892  1.00  0.00     0.031 C 
HETATM   12  C   UNL     1      43.481 -12.982   6.450  1.00  0.00     0.236 C 
HETATM   13  O   UNL     1      44.350 -13.655   7.011  1.00  0.00    -0.272 OA
HETATM   14  N   UNL     1      42.169 -13.304   6.683  1.00  0.00    -0.311 N 
HETATM   15  H   UNL     1      42.026 -13.948   7.452  1.00  0.00     0.170 HD
ENDROOT
BRANCH   8  16
HETATM   16  C   UNL     1      41.500 -13.538   2.863  1.00  0.00    -0.029 A 
HETATM   17  C   UNL     1      40.842 -13.565   1.588  1.00  0.00    -0.018 A 
HETATM   18  C   UNL     1      40.499 -14.825   1.024  1.00  0.00    -0.025 A 
HETATM   19  C   UNL     1      40.501 -12.421   0.821  1.00  0.00     0.013 A 
HETATM   20  C   UNL     1      39.829 -14.901  -0.208  1.00  0.00     0.012 A 
HETATM   21  C   UNL     1      40.826 -16.014   1.687  1.00  0.00     0.012 A 
HETATM   22  C   UNL     1      39.488 -13.753  -0.915  1.00  0.00     0.001 A 
HETATM   23  C   UNL     1      39.831 -12.512  -0.402  1.00  0.00     0.001 A 
HETATM   24  C   UNL     1      41.487 -15.990   2.906  1.00  0.00     0.002 A 
HETATM   25  C   UNL     1      41.812 -14.771   3.486  1.00  0.00     0.009 A 
ENDBRANCH   8  16
TORSDOF 1
ENDMDL
MODEL 8
REMARK VINA RESULT:      -7.3      2.537      3.673
REMARK  1 active torsions:
REMARK  status: ('A' for Active; 'I' for Inactive)
REMARK    1  A    between atoms: C_8  and  C_9 
ROOT
HETATM    1  C   UNL     1      41.270 -12.381   0.028  1.00  0.00     0.073 C 
HETATM    2  C   UNL     1      40.434 -12.685   1.218  1.00  0.00     0.062 C 
HETATM    3  N   UNL     1      39.113 -12.827   1.053  1.00  0.00    -0.178 NA
HETATM    4  N   UNL     1      38.667 -13.133   2.274  1.00  0.00    -0.262 N 
HETATM    5  H   UNL     1      37.675 -13.304   2.391  1.00  0.00     0.191 HD
HETATM    6  C   UNL     1      39.627 -13.039   3.242  1.00  0.00     0.134 C 
HETATM    7  C   UNL     1      40.833 -12.880   2.582  1.00  0.00     0.032 C 
HETATM    8  C   UNL     1      42.243 -12.966   3.099  1.00  0.00     0.120 C 
HETATM    9  S   UNL     1      42.628 -12.258   4.736  1.00  0.00    -0.141 SA
HETATM   10  C   UNL     1      41.057 -11.476   5.212  1.00  0.00     0.136 C 
HETATM   11  C   UNL     1      41.338 -10.572   6.415  1.00  0.00     0.031 C 
HETATM   12  C   UNL     1      40.002 -12.524   5.580  1.00  0.00     0.236 C 
HETATM   13  O   UNL     1      39.673 -12.769   6.744  1.00  0.00    -0.272 OA
HETATM   14  N   UNL     1      39.306 -13.140   4.572  1.00  0.00    -0.311 N 
HETATM   15  H   UNL     1      38.452 -13.595   4.871  1.00  0.00     0.170 HD
ENDROOT
BRANCH   8  16
HETATM   16  C   UNL     1      42.618 -14.456   3.025  1.00  0.00    -0.029 A 
HETATM   17  C   UNL     1      42.665 -15.305   4.181  1.00  0.00    -0.018 A 
HETATM   18  C   UNL     1      43.075 -16.658   4.017  1.00  0.00    -0.025 A 
HETATM   19  C   UNL     1      42.325 -14.909   5.499  1.00  0.00     0.013 A 
HETATM   20  C   UNL     1      43.164 -17.520   5.122  1.00  0.00     0.012 A 
HETATM   21  C   UNL     1      43.396 -17.155   2.747  1.00  0.00     0.012 A 
HETATM   22  C   UNL     1      42.848 -17.083   6.404  1.00  0.00     0.001 A 
HETATM   23  C   UNL     1      42.422 -15.778   6.591  1.00  0.00     0.001 A 
HETATM   24  C   UNL     1      43.325 -16.342   1.627  1.00  0.00     0.002 A 
HETATM   25  C   UNL     1      42.948 -15.013   1.765  1.00  0.00     0.009 A 
ENDBRANCH   8  16
TORSDOF 1
ENDMDL
MODEL 9
REMARK VINA RESULT:      -7.2      2.450      3.805
REMARK  1 active torsions:
REMARK  status: ('A' for Active; 'I' for Inactive)
REMARK    1  A    between atoms: C_8  and  C_9 
ROOT
HETATM    1  C   UNL     1      42.812 -15.688   1.204  1.00  0.00     0.073 C 
HETATM    2  C   UNL     1      41.508 -14.997   1.377  1.00  0.00     0.062 C 
HETATM    3  N   UNL     1      40.487 -15.352   0.589  1.00  0.00    -0.178 NA
HETATM    4  N   UNL     1      39.471 -14.597   1.018  1.00  0.00    -0.262 N 
HETATM    5  H   UNL     1      38.571 -14.707   0.567  1.00  0.00     0.191 HD
HETATM    6  C   UNL     1      39.843 -13.663   1.943  1.00  0.00     0.134 C 
HETATM    7  C   UNL     1      41.139 -13.973   2.313  1.00  0.00     0.032 C 
HETATM    8  C   UNL     1      41.976 -13.460   3.453  1.00  0.00     0.120 C 
HETATM    9  S   UNL     1      41.888 -11.689   3.885  1.00  0.00    -0.141 SA
HETATM   10  C   UNL     1      40.813 -11.013   2.583  1.00  0.00     0.136 C 
HETATM   11  C   UNL     1      40.921  -9.488   2.642  1.00  0.00     0.031 C 
HETATM   12  C   UNL     1      39.357 -11.443   2.785  1.00  0.00     0.236 C 
HETATM   13  O   UNL     1      38.485 -10.686   3.222  1.00  0.00    -0.272 OA
HETATM   14  N   UNL     1      38.972 -12.687   2.356  1.00  0.00    -0.311 N 
HETATM   15  H   UNL     1      37.970 -12.804   2.256  1.00  0.00     0.170 HD
ENDROOT
BRANCH   8  16
HETATM   16  C   UNL     1      41.624 -14.352   4.656  1.00  0.00    -0.029 A 
HETATM   17  C   UNL     1      42.384 -15.516   5.011  1.00  0.00    -0.018 A 
HETATM   18  C   UNL     1      41.947 -16.307   6.110  1.00  0.00    -0.025 A 
HETATM   19  C   UNL     1      43.563 -15.952   4.354  1.00  0.00     0.013 A 
HETATM   20  C   UNL     1      42.642 -17.470   6.478  1.00  0.00     0.012 A 
HETATM   21  C   UNL     1      40.815 -15.938   6.846  1.00  0.00     0.012 A 
HETATM   22  C   UNL     1      43.779 -17.879   5.789  1.00  0.00     0.001 A 
HETATM   23  C   UNL     1      44.243 -17.115   4.730  1.00  0.00     0.001 A 
HETATM   24  C   UNL     1      40.095 -14.799   6.520  1.00  0.00     0.002 A 
HETATM   25  C   UNL     1      40.490 -14.023   5.439  1.00  0.00     0.009 A 
ENDBRANCH   8  16
TORSDOF 1
ENDMDL
MODEL 10
REMARK VINA RESULT:      -7.2      2.794      4.387
REMARK  1 active torsions:
REMARK  status: ('A' for Active; 'I' for Inactive)
REMARK    1  A    between atoms: C_8  and  C_9 
ROOT
HETATM    1  C   UNL     1      40.948 -13.069  -0.156  1.00  0.00     0.073 C 
HETATM    2  C   UNL     1      40.014 -12.514   0.858  1.00  0.00     0.062 C 
HETATM    3  N   UNL     1      38.721 -12.388   0.537  1.00  0.00    -0.178 NA
HETATM    4  N   UNL     1      38.156 -11.917   1.652  1.00  0.00    -0.262 N 
HETATM    5  H   UNL     1      37.156 -11.754   1.648  1.00  0.00     0.191 HD
HETATM    6  C   UNL     1      39.061 -11.589   2.621  1.00  0.00     0.134 C 
HETATM    7  C   UNL     1      40.281 -12.087   2.202  1.00  0.00     0.032 C 
HETATM    8  C   UNL     1      41.576 -12.246   2.951  1.00  0.00     0.120 C 
HETATM    9  S   UNL     1      42.097 -10.931   4.103  1.00  0.00    -0.141 SA
HETATM   10  C   UNL     1      40.825  -9.655   3.854  1.00  0.00     0.136 C 
HETATM   11  C   UNL     1      41.324  -8.371   4.521  1.00  0.00     0.031 C 
HETATM   12  C   UNL     1      39.486 -10.077   4.467  1.00  0.00     0.236 C 
HETATM   13  O   UNL     1      39.054  -9.613   5.526  1.00  0.00    -0.272 OA
HETATM   14  N   UNL     1      38.674 -10.923   3.757  1.00  0.00    -0.311 N 
HETATM   15  H   UNL     1      37.710 -10.939   4.070  1.00  0.00     0.170 HD
ENDROOT
BRANCH   8  16
HETATM   16  C   UNL     1      41.479 -13.609   3.656  1.00  0.00    -0.029 A 
HETATM   17  C   UNL     1      42.101 -14.797   3.146  1.00  0.00    -0.018 A 
HETATM   18  C   UNL     1      41.908 -16.022   3.844  1.00  0.00    -0.025 A 
HETATM   19  C   UNL     1      42.914 -14.858   1.985  1.00  0.00     0.013 A 
HETATM   20  C   UNL     1      42.473 -17.216   3.367  1.00  0.00     0.012 A 
HETATM   21  C   UNL     1      41.152 -16.058   5.022  1.00  0.00     0.012 A 
HETATM   22  C   UNL     1      43.242 -17.237   2.208  1.00  0.00     0.001 A 
HETATM   23  C   UNL     1      43.468 -16.055   1.521  1.00  0.00     0.001 A 
HETATM   24  C   UNL     1      40.573 -14.906   5.530  1.00  0.00     0.002 A 
HETATM   25  C   UNL     1      40.729 -13.703   4.855  1.00  0.00     0.009 A 
ENDBRANCH   8  16
TORSDOF 1
ENDMDL
