MODEL 1
REMARK VINA RESULT:      -8.3      0.000      0.000
REMARK  8 active torsions:
REMARK  status: ('A' for Active; 'I' for Inactive)
REMARK    1  A    between atoms: C_2  and  N_3 
REMARK    2  A    between atoms: N_7  and  C_8 
REMARK    3  A    between atoms: C_11  and  N_12 
REMARK       I    between atoms: N_12  and  C_13 
REMARK    4  A    between atoms: C_13  and  C_14 
REMARK    5  A    between atoms: C_17  and  N_18 
REMARK       I    between atoms: N_18  and  C_19 
REMARK    6  A    between atoms: C_19  and  C_20 
REMARK    7  A    between atoms: C_20  and  S_21 
REMARK    8  A    between atoms: S_21  and  C_22 
ROOT
HETATM    1  N   UNL     1      43.004 -10.452   8.616  1.00  0.00    -0.323 N 
HETATM    2  C   UNL     1      44.113 -11.123   8.135  1.00  0.00     0.256 C 
HETATM    3  O   UNL     1      45.248 -11.090   8.590  1.00  0.00    -0.267 OA
HETATM    4  H   UNL     1      42.109 -10.723   8.228  1.00  0.00     0.169 HD
ENDROOT
BRANCH   2   5
HETATM    5  C   UNL     1      43.814 -12.023   6.987  1.00  0.00     0.032 A 
HETATM    6  C   UNL     1      43.382 -11.504   5.762  1.00  0.00     0.019 A 
HETATM    7  C   UNL     1      43.011 -12.367   4.728  1.00  0.00     0.030 A 
HETATM    8  C   UNL     1      43.068 -13.752   4.901  1.00  0.00     0.034 A 
HETATM    9  C   UNL     1      43.564 -14.263   6.109  1.00  0.00     0.030 A 
HETATM   10  C   UNL     1      43.939 -13.404   7.148  1.00  0.00     0.019 A 
BRANCH   8  11
HETATM   11  N   UNL     1      42.626 -14.680   3.937  1.00  0.00    -0.327 N 
HETATM   12  C   UNL     1      41.524 -15.520   4.023  1.00  0.00     0.231 C 
HETATM   13  O   UNL     1      40.683 -15.516   4.918  1.00  0.00    -0.272 OA
HETATM   14  H   UNL     1      43.246 -14.845   3.151  1.00  0.00     0.169 HD
BRANCH  12  15
HETATM   15  C   UNL     1      41.415 -16.493   2.858  1.00  0.00     0.185 C 
BRANCH  15  16
HETATM   16  S   UNL     1      43.059 -16.742   2.113  1.00  0.00    -0.083 SA
BRANCH  16  17
HETATM   17  C   UNL     1      43.399 -18.345   2.665  1.00  0.00     0.168 A 
HETATM   18  N   UNL     1      43.945 -18.613   3.893  1.00  0.00    -0.339 N 
HETATM   19  C   UNL     1      44.344 -17.665   4.904  1.00  0.00     0.158 C 
HETATM   20  C   UNL     1      44.045 -19.975   4.002  1.00  0.00     0.112 A 
HETATM   21  C   UNL     1      43.557 -20.467   2.813  1.00  0.00     0.136 A 
HETATM   22  N   UNL     1      43.166 -19.444   1.987  1.00  0.00    -0.235 NA
ENDBRANCH  16  17
ENDBRANCH  15  16
ENDBRANCH  12  15
ENDBRANCH   8  11
ENDBRANCH   2   5
BRANCH   1  23
HETATM   23  C   UNL     1      42.959  -9.497   9.649  1.00  0.00     0.035 A 
HETATM   24  C   UNL     1      42.853  -8.126   9.441  1.00  0.00     0.032 A 
HETATM   25  C   UNL     1      42.789  -7.241  10.529  1.00  0.00     0.031 A 
HETATM   26  C   UNL     1      42.854  -7.691  11.854  1.00  0.00     0.030 A 
HETATM   27  C   UNL     1      42.944  -9.080  12.039  1.00  0.00     0.031 A 
HETATM   28  C   UNL     1      42.994  -9.970  10.959  1.00  0.00     0.032 A 
BRANCH  26  29
HETATM   29  N   UNL     1      42.791  -6.847  12.962  1.00  0.00    -0.378 N 
HETATM   30  C   UNL     1      42.626  -7.397  14.317  1.00  0.00     0.150 C 
HETATM   31  C   UNL     1      41.145  -7.419  14.747  1.00  0.00     0.254 C 
HETATM   32  N   UNL     1      40.513  -6.027  14.588  1.00  0.00    -0.068 N 
HETATM   33  H   UNL     1      41.053  -5.392  15.189  1.00  0.00     0.280 HD
HETATM   34  C   UNL     1      40.685  -5.538  13.143  1.00  0.00     0.254 C 
HETATM   35  C   UNL     1      42.179  -5.519  12.754  1.00  0.00     0.150 C 
BRANCH  32  36
HETATM   36  C   UNL     1      39.081  -6.022  15.062  1.00  0.00     0.230 C 
HETATM   37  C   UNL     1      39.004  -5.705  16.543  1.00  0.00     0.034 C 
ENDBRANCH  32  36
ENDBRANCH  26  29
ENDBRANCH   1  23
TORSDOF 8
ENDMDL
MODEL 2
REMARK VINA RESULT:      -7.7      4.857     13.338
REMARK  8 active torsions:
REMARK  status: ('A' for Active; 'I' for Inactive)
REMARK    1  A    between atoms: C_2  and  N_3 
REMARK    2  A    between atoms: N_7  and  C_8 
REMARK    3  A    between atoms: C_11  and  N_12 
REMARK       I    between atoms: N_12  and  C_13 
REMARK    4  A    between atoms: C_13  and  C_14 
REMARK    5  A    between atoms: C_17  and  N_18 
REMARK       I    between atoms: N_18  and  C_19 
REMARK    6  A    between atoms: C_19  and  C_20 
REMARK    7  A    between atoms: C_20  and  S_21 
REMARK    8  A    between atoms: S_21  and  C_22 
ROOT
HETATM    1  N   UNL     1      42.928  -8.899  10.930  1.00  0.00    -0.323 N 
HETATM    2  C   UNL     1      42.776  -9.566  12.132  1.00  0.00     0.256 C 
HETATM    3  O   UNL     1      42.833 -10.774  12.317  1.00  0.00    -0.267 OA
HETATM    4  H   UNL     1      43.022  -7.892  10.981  1.00  0.00     0.169 HD
ENDROOT
BRANCH   2   5
HETATM    5  C   UNL     1      42.602  -8.658  13.299  1.00  0.00     0.032 A 
HETATM    6  C   UNL     1      43.364  -7.491  13.421  1.00  0.00     0.019 A 
HETATM    7  C   UNL     1      43.259  -6.703  14.571  1.00  0.00     0.030 A 
HETATM    8  C   UNL     1      42.396  -7.067  15.607  1.00  0.00     0.034 A 
HETATM    9  C   UNL     1      41.589  -8.202  15.448  1.00  0.00     0.030 A 
HETATM   10  C   UNL     1      41.687  -8.995  14.299  1.00  0.00     0.019 A 
BRANCH   8  11
HETATM   11  N   UNL     1      42.305  -6.372  16.829  1.00  0.00    -0.327 N 
HETATM   12  C   UNL     1      41.380  -5.396  17.176  1.00  0.00     0.231 C 
HETATM   13  O   UNL     1      40.411  -5.053  16.503  1.00  0.00    -0.272 OA
HETATM   14  H   UNL     1      43.071  -6.503  17.481  1.00  0.00     0.169 HD
BRANCH  12  15
HETATM   15  C   UNL     1      41.654  -4.756  18.528  1.00  0.00     0.185 C 
BRANCH  15  16
HETATM   16  S   UNL     1      42.512  -5.950  19.606  1.00  0.00    -0.083 SA
BRANCH  16  17
HETATM   17  C   UNL     1      41.231  -7.077  19.885  1.00  0.00     0.168 A 
HETATM   18  N   UNL     1      40.283  -6.905  20.860  1.00  0.00    -0.339 N 
HETATM   19  C   UNL     1      40.183  -5.823  21.808  1.00  0.00     0.158 C 
HETATM   20  C   UNL     1      39.417  -7.964  20.774  1.00  0.00     0.112 A 
HETATM   21  C   UNL     1      39.900  -8.737  19.743  1.00  0.00     0.136 A 
HETATM   22  N   UNL     1      41.031  -8.181  19.204  1.00  0.00    -0.235 NA
ENDBRANCH  16  17
ENDBRANCH  15  16
ENDBRANCH  12  15
ENDBRANCH   8  11
ENDBRANCH   2   5
BRANCH   1  23
HETATM   23  C   UNL     1      43.058  -9.462   9.647  1.00  0.00     0.035 A 
HETATM   24  C   UNL     1      44.112 -10.281   9.257  1.00  0.00     0.032 A 
HETATM   25  C   UNL     1      44.153 -10.824   7.962  1.00  0.00     0.031 A 
HETATM   26  C   UNL     1      43.161 -10.548   7.011  1.00  0.00     0.030 A 
HETATM   27  C   UNL     1      42.100  -9.732   7.434  1.00  0.00     0.031 A 
HETATM   28  C   UNL     1      42.044  -9.199   8.727  1.00  0.00     0.032 A 
BRANCH  26  29
HETATM   29  N   UNL     1      43.164 -11.068   5.717  1.00  0.00    -0.378 N 
HETATM   30  C   UNL     1      42.030 -10.829   4.810  1.00  0.00     0.150 C 
HETATM   31  C   UNL     1      41.014 -11.989   4.849  1.00  0.00     0.254 C 
HETATM   32  N   UNL     1      41.714 -13.332   4.588  1.00  0.00    -0.068 N 
HETATM   33  H   UNL     1      42.143 -13.260   3.656  1.00  0.00     0.280 HD
HETATM   34  C   UNL     1      42.853 -13.532   5.597  1.00  0.00     0.254 C 
HETATM   35  C   UNL     1      43.854 -12.359   5.519  1.00  0.00     0.150 C 
BRANCH  32  36
HETATM   36  C   UNL     1      40.721 -14.468   4.564  1.00  0.00     0.230 C 
HETATM   37  C   UNL     1      41.434 -15.807   4.560  1.00  0.00     0.034 C 
ENDBRANCH  32  36
ENDBRANCH  26  29
ENDBRANCH   1  23
TORSDOF 8
ENDMDL
MODEL 3
REMARK VINA RESULT:      -7.7      3.549     12.212
REMARK  8 active torsions:
REMARK  status: ('A' for Active; 'I' for Inactive)
REMARK    1  A    between atoms: C_2  and  N_3 
REMARK    2  A    between atoms: N_7  and  C_8 
REMARK    3  A    between atoms: C_11  and  N_12 
REMARK       I    between atoms: N_12  and  C_13 
REMARK    4  A    between atoms: C_13  and  C_14 
REMARK    5  A    between atoms: C_17  and  N_18 
REMARK       I    between atoms: N_18  and  C_19 
REMARK    6  A    between atoms: C_19  and  C_20 
REMARK    7  A    between atoms: C_20  and  S_21 
REMARK    8  A    between atoms: S_21  and  C_22 
ROOT
HETATM    1  N   UNL     1      43.203 -11.706   7.631  1.00  0.00    -0.323 N 
HETATM    2  C   UNL     1      44.332 -11.153   8.208  1.00  0.00     0.256 C 
HETATM    3  O   UNL     1      45.495 -11.344   7.882  1.00  0.00    -0.267 OA
HETATM    4  H   UNL     1      42.314 -11.311   7.909  1.00  0.00     0.169 HD
ENDROOT
BRANCH   2   5
HETATM    5  C   UNL     1      44.030 -10.171   9.286  1.00  0.00     0.032 A 
HETATM    6  C   UNL     1      44.987  -9.852  10.255  1.00  0.00     0.019 A 
HETATM    7  C   UNL     1      44.653  -9.006  11.316  1.00  0.00     0.030 A 
HETATM    8  C   UNL     1      43.368  -8.468  11.422  1.00  0.00     0.034 A 
HETATM    9  C   UNL     1      42.436  -8.741  10.412  1.00  0.00     0.030 A 
HETATM   10  C   UNL     1      42.763  -9.587   9.346  1.00  0.00     0.019 A 
BRANCH   8  11
HETATM   11  N   UNL     1      42.936  -7.683  12.509  1.00  0.00    -0.327 N 
HETATM   12  C   UNL     1      42.377  -8.129  13.699  1.00  0.00     0.231 C 
HETATM   13  O   UNL     1      42.264  -9.302  14.046  1.00  0.00    -0.272 OA
HETATM   14  H   UNL     1      42.913  -6.679  12.360  1.00  0.00     0.169 HD
BRANCH  12  15
HETATM   15  C   UNL     1      41.898  -7.001  14.601  1.00  0.00     0.185 C 
BRANCH  15  16
HETATM   16  S   UNL     1      41.311  -5.610  13.581  1.00  0.00    -0.083 SA
BRANCH  16  17
HETATM   17  C   UNL     1      39.854  -6.294  12.949  1.00  0.00     0.168 A 
HETATM   18  N   UNL     1      38.670  -6.300  13.639  1.00  0.00    -0.339 N 
HETATM   19  C   UNL     1      38.422  -5.786  14.964  1.00  0.00     0.158 C 
HETATM   20  C   UNL     1      37.734  -6.889  12.831  1.00  0.00     0.112 A 
HETATM   21  C   UNL     1      38.413  -7.223  11.681  1.00  0.00     0.136 A 
HETATM   22  N   UNL     1      39.731  -6.856  11.770  1.00  0.00    -0.235 NA
ENDBRANCH  16  17
ENDBRANCH  15  16
ENDBRANCH  12  15
ENDBRANCH   8  11
ENDBRANCH   2   5
BRANCH   1  23
HETATM   23  C   UNL     1      43.147 -12.695   6.632  1.00  0.00     0.035 A 
HETATM   24  C   UNL     1      43.302 -14.056   6.871  1.00  0.00     0.032 A 
HETATM   25  C   UNL     1      43.207 -14.982   5.820  1.00  0.00     0.031 A 
HETATM   26  C   UNL     1      42.980 -14.579   4.497  1.00  0.00     0.030 A 
HETATM   27  C   UNL     1      42.811 -13.202   4.283  1.00  0.00     0.031 A 
HETATM   28  C   UNL     1      42.890 -12.274   5.328  1.00  0.00     0.032 A 
BRANCH  26  29
HETATM   29  N   UNL     1      42.877 -15.466   3.425  1.00  0.00    -0.378 N 
HETATM   30  C   UNL     1      43.338 -15.077   2.083  1.00  0.00     0.150 C 
HETATM   31  C   UNL     1      42.186 -14.522   1.221  1.00  0.00     0.254 C 
HETATM   32  N   UNL     1      41.011 -15.511   1.184  1.00  0.00    -0.068 N 
HETATM   33  H   UNL     1      41.377 -16.382   0.778  1.00  0.00     0.280 HD
HETATM   34  C   UNL     1      40.556 -15.835   2.614  1.00  0.00     0.254 C 
HETATM   35  C   UNL     1      41.732 -16.399   3.440  1.00  0.00     0.150 C 
BRANCH  32  36
HETATM   36  C   UNL     1      39.901 -15.006   0.296  1.00  0.00     0.230 C 
HETATM   37  C   UNL     1      40.150 -13.566  -0.113  1.00  0.00     0.034 C 
ENDBRANCH  32  36
ENDBRANCH  26  29
ENDBRANCH   1  23
TORSDOF 8
ENDMDL
MODEL 4
REMARK VINA RESULT:      -7.6      3.421     13.032
REMARK  8 active torsions:
REMARK  status: ('A' for Active; 'I' for Inactive)
REMARK    1  A    between atoms: C_2  and  N_3 
REMARK    2  A    between atoms: N_7  and  C_8 
REMARK    3  A    between atoms: C_11  and  N_12 
REMARK       I    between atoms: N_12  and  C_13 
REMARK    4  A    between atoms: C_13  and  C_14 
REMARK    5  A    between atoms: C_17  and  N_18 
REMARK       I    between atoms: N_18  and  C_19 
REMARK    6  A    between atoms: C_19  and  C_20 
REMARK    7  A    between atoms: C_20  and  S_21 
REMARK    8  A    between atoms: S_21  and  C_22 
ROOT
HETATM    1  N   UNL     1      42.639 -11.142   7.101  1.00  0.00    -0.323 N 
HETATM    2  C   UNL     1      43.738 -11.131   7.940  1.00  0.00     0.256 C 
HETATM    3  O   UNL     1      44.773 -11.769   7.805  1.00  0.00    -0.267 OA
HETATM    4  H   UNL     1      41.938 -10.429   7.266  1.00  0.00     0.169 HD
ENDROOT
BRANCH   2   5
HETATM    5  C   UNL     1      43.619 -10.166   9.067  1.00  0.00     0.032 A 
HETATM    6  C   UNL     1      44.683  -9.960   9.952  1.00  0.00     0.019 A 
HETATM    7  C   UNL     1      44.519  -9.126  11.061  1.00  0.00     0.030 A 
HETATM    8  C   UNL     1      43.299  -8.488  11.300  1.00  0.00     0.034 A 
HETATM    9  C   UNL     1      42.259  -8.649  10.373  1.00  0.00     0.030 A 
HETATM   10  C   UNL     1      42.416  -9.482   9.259  1.00  0.00     0.019 A 
BRANCH   8  11
HETATM   11  N   UNL     1      43.035  -7.708  12.443  1.00  0.00    -0.327 N 
HETATM   12  C   UNL     1      42.542  -8.146  13.665  1.00  0.00     0.231 C 
HETATM   13  O   UNL     1      42.355  -9.316  13.987  1.00  0.00    -0.272 OA
HETATM   14  H   UNL     1      43.089  -6.702  12.325  1.00  0.00     0.169 HD
BRANCH  12  15
HETATM   15  C   UNL     1      42.247  -7.015  14.637  1.00  0.00     0.185 C 
BRANCH  15  16
HETATM   16  S   UNL     1      41.175  -7.625  15.979  1.00  0.00    -0.083 SA
BRANCH  16  17
HETATM   17  C   UNL     1      39.903  -6.456  15.903  1.00  0.00     0.168 A 
HETATM   18  N   UNL     1      39.674  -5.535  16.892  1.00  0.00    -0.339 N 
HETATM   19  C   UNL     1      40.393  -5.381  18.133  1.00  0.00     0.158 C 
HETATM   20  C   UNL     1      38.620  -4.760  16.486  1.00  0.00     0.112 A 
HETATM   21  C   UNL     1      38.254  -5.266  15.260  1.00  0.00     0.136 A 
HETATM   22  N   UNL     1      39.053  -6.324  14.912  1.00  0.00    -0.235 NA
ENDBRANCH  16  17
ENDBRANCH  15  16
ENDBRANCH  12  15
ENDBRANCH   8  11
ENDBRANCH   2   5
BRANCH   1  23
HETATM   23  C   UNL     1      42.418 -11.971   5.986  1.00  0.00     0.035 A 
HETATM   24  C   UNL     1      43.010 -11.781   4.743  1.00  0.00     0.032 A 
HETATM   25  C   UNL     1      42.756 -12.671   3.686  1.00  0.00     0.031 A 
HETATM   26  C   UNL     1      41.886 -13.761   3.829  1.00  0.00     0.030 A 
HETATM   27  C   UNL     1      41.314 -13.941   5.098  1.00  0.00     0.031 A 
HETATM   28  C   UNL     1      41.574 -13.067   6.161  1.00  0.00     0.032 A 
BRANCH  26  29
HETATM   29  N   UNL     1      41.608 -14.668   2.808  1.00  0.00    -0.378 N 
HETATM   30  C   UNL     1      40.898 -15.925   3.093  1.00  0.00     0.150 C 
HETATM   31  C   UNL     1      41.877 -17.094   3.326  1.00  0.00     0.254 C 
HETATM   32  N   UNL     1      42.862 -17.218   2.153  1.00  0.00    -0.068 N 
HETATM   33  H   UNL     1      42.294 -17.387   1.313  1.00  0.00     0.280 HD
HETATM   34  C   UNL     1      43.596 -15.887   1.944  1.00  0.00     0.254 C 
HETATM   35  C   UNL     1      42.585 -14.746   1.702  1.00  0.00     0.150 C 
BRANCH  32  36
HETATM   36  C   UNL     1      43.787 -18.395   2.341  1.00  0.00     0.230 C 
HETATM   37  C   UNL     1      43.072 -19.698   2.035  1.00  0.00     0.034 C 
ENDBRANCH  32  36
ENDBRANCH  26  29
ENDBRANCH   1  23
TORSDOF 8
ENDMDL
MODEL 5
REMARK VINA RESULT:      -7.6      2.130      3.454
REMARK  8 active torsions:
REMARK  status: ('A' for Active; 'I' for Inactive)
REMARK    1  A    between atoms: C_2  and  N_3 
REMARK    2  A    between atoms: N_7  and  C_8 
REMARK    3  A    between atoms: C_11  and  N_12 
REMARK       I    between atoms: N_12  and  C_13 
REMARK    4  A    between atoms: C_13  and  C_14 
REMARK    5  A    between atoms: C_17  and  N_18 
REMARK       I    between atoms: N_18  and  C_19 
REMARK    6  A    between atoms: C_19  and  C_20 
REMARK    7  A    between atoms: C_20  and  S_21 
REMARK    8  A    between atoms: S_21  and  C_22 
ROOT
HETATM    1  N   UNL     1      42.933 -10.177   8.817  1.00  0.00    -0.323 N 
HETATM    2  C   UNL     1      44.016 -10.899   8.350  1.00  0.00     0.256 C 
HETATM    3  O   UNL     1      45.113 -11.007   8.880  1.00  0.00    -0.267 OA
HETATM    4  H   UNL     1      42.049 -10.334   8.347  1.00  0.00     0.169 HD
ENDROOT
BRANCH   2   5
HETATM    5  C   UNL     1      43.730 -11.666   7.106  1.00  0.00     0.032 A 
HETATM    6  C   UNL     1      43.109 -11.054   6.013  1.00  0.00     0.019 A 
HETATM    7  C   UNL     1      42.758 -11.812   4.892  1.00  0.00     0.030 A 
HETATM    8  C   UNL     1      43.023 -13.183   4.848  1.00  0.00     0.034 A 
HETATM    9  C   UNL     1      43.704 -13.775   5.921  1.00  0.00     0.030 A 
HETATM   10  C   UNL     1      44.060 -13.022   7.045  1.00  0.00     0.019 A 
BRANCH   8  11
HETATM   11  N   UNL     1      42.618 -14.024   3.793  1.00  0.00    -0.327 N 
HETATM   12  C   UNL     1      41.570 -14.934   3.798  1.00  0.00     0.231 C 
HETATM   13  O   UNL     1      40.747 -15.080   4.699  1.00  0.00    -0.272 OA
HETATM   14  H   UNL     1      43.231 -14.063   2.986  1.00  0.00     0.169 HD
BRANCH  12  15
HETATM   15  C   UNL     1      41.496 -15.778   2.534  1.00  0.00     0.185 C 
BRANCH  15  16
HETATM   16  S   UNL     1      39.927 -15.445   1.668  1.00  0.00    -0.083 SA
BRANCH  16  17
HETATM   17  C   UNL     1      40.377 -14.042   0.762  1.00  0.00     0.168 A 
HETATM   18  N   UNL     1      40.032 -13.859  -0.552  1.00  0.00    -0.339 N 
HETATM   19  C   UNL     1      39.289 -14.759  -1.400  1.00  0.00     0.158 C 
HETATM   20  C   UNL     1      40.525 -12.638  -0.933  1.00  0.00     0.112 A 
HETATM   21  C   UNL     1      41.158 -12.144   0.184  1.00  0.00     0.136 A 
HETATM   22  N   UNL     1      41.067 -13.028   1.228  1.00  0.00    -0.235 NA
ENDBRANCH  16  17
ENDBRANCH  15  16
ENDBRANCH  12  15
ENDBRANCH   8  11
ENDBRANCH   2   5
BRANCH   1  23
HETATM   23  C   UNL     1      42.890  -9.316   9.929  1.00  0.00     0.035 A 
HETATM   24  C   UNL     1      42.792  -7.932   9.840  1.00  0.00     0.032 A 
HETATM   25  C   UNL     1      42.730  -7.144  11.001  1.00  0.00     0.031 A 
HETATM   26  C   UNL     1      42.788  -7.708  12.283  1.00  0.00     0.030 A 
HETATM   27  C   UNL     1      42.871  -9.108  12.346  1.00  0.00     0.031 A 
HETATM   28  C   UNL     1      42.919  -9.901  11.193  1.00  0.00     0.032 A 
BRANCH  26  29
HETATM   29  N   UNL     1      42.728  -6.963  13.460  1.00  0.00    -0.378 N 
HETATM   30  C   UNL     1      42.443  -7.615  14.748  1.00  0.00     0.150 C 
HETATM   31  C   UNL     1      40.942  -7.554  15.099  1.00  0.00     0.254 C 
HETATM   32  N   UNL     1      40.430  -6.107  15.038  1.00  0.00    -0.068 N 
HETATM   33  H   UNL     1      40.981  -5.573  15.722  1.00  0.00     0.280 HD
HETATM   34  C   UNL     1      40.721  -5.507  13.655  1.00  0.00     0.254 C 
HETATM   35  C   UNL     1      42.232  -5.576  13.345  1.00  0.00     0.150 C 
BRANCH  32  36
HETATM   36  C   UNL     1      38.977  -6.026  15.437  1.00  0.00     0.230 C 
HETATM   37  C   UNL     1      38.099  -5.755  14.230  1.00  0.00     0.034 C 
ENDBRANCH  32  36
ENDBRANCH  26  29
ENDBRANCH   1  23
TORSDOF 8
ENDMDL
MODEL 6
REMARK VINA RESULT:      -7.3      5.265     13.533
REMARK  8 active torsions:
REMARK  status: ('A' for Active; 'I' for Inactive)
REMARK    1  A    between atoms: C_2  and  N_3 
REMARK    2  A    between atoms: N_7  and  C_8 
REMARK    3  A    between atoms: C_11  and  N_12 
REMARK       I    between atoms: N_12  and  C_13 
REMARK    4  A    between atoms: C_13  and  C_14 
REMARK    5  A    between atoms: C_17  and  N_18 
REMARK       I    between atoms: N_18  and  C_19 
REMARK    6  A    between atoms: C_19  and  C_20 
REMARK    7  A    between atoms: C_20  and  S_21 
REMARK    8  A    between atoms: S_21  and  C_22 
ROOT
HETATM    1  N   UNL     1      42.126  -8.722  10.829  1.00  0.00    -0.323 N 
HETATM    2  C   UNL     1      42.423  -9.470  11.953  1.00  0.00     0.256 C 
HETATM    3  O   UNL     1      42.717 -10.657  11.991  1.00  0.00    -0.267 OA
HETATM    4  H   UNL     1      42.072  -7.718  10.956  1.00  0.00     0.169 HD
ENDROOT
BRANCH   2   5
HETATM    5  C   UNL     1      42.444  -8.674  13.211  1.00  0.00     0.032 A 
HETATM    6  C   UNL     1      41.580  -8.979  14.268  1.00  0.00     0.019 A 
HETATM    7  C   UNL     1      41.543  -8.160  15.401  1.00  0.00     0.030 A 
HETATM    8  C   UNL     1      42.366  -7.036  15.494  1.00  0.00     0.034 A 
HETATM    9  C   UNL     1      43.275  -6.775  14.459  1.00  0.00     0.030 A 
HETATM   10  C   UNL     1      43.318  -7.591  13.322  1.00  0.00     0.019 A 
BRANCH   8  11
HETATM   11  N   UNL     1      42.319  -6.118  16.562  1.00  0.00    -0.327 N 
HETATM   12  C   UNL     1      41.382  -5.114  16.768  1.00  0.00     0.231 C 
HETATM   13  O   UNL     1      40.368  -4.929  16.100  1.00  0.00    -0.272 OA
HETATM   14  H   UNL     1      43.122  -6.104  17.181  1.00  0.00     0.169 HD
BRANCH  12  15
HETATM   15  C   UNL     1      41.708  -4.218  17.952  1.00  0.00     0.185 C 
BRANCH  15  16
HETATM   16  S   UNL     1      41.064  -4.969  19.483  1.00  0.00    -0.083 SA
BRANCH  16  17
HETATM   17  C   UNL     1      42.492  -5.764  20.050  1.00  0.00     0.168 A 
HETATM   18  N   UNL     1      43.254  -5.284  21.082  1.00  0.00    -0.339 N 
HETATM   19  C   UNL     1      43.044  -4.077  21.844  1.00  0.00     0.158 C 
HETATM   20  C   UNL     1      44.278  -6.174  21.277  1.00  0.00     0.112 A 
HETATM   21  C   UNL     1      44.083  -7.156  20.333  1.00  0.00     0.136 A 
HETATM   22  N   UNL     1      42.975  -6.886  19.571  1.00  0.00    -0.235 NA
ENDBRANCH  16  17
ENDBRANCH  15  16
ENDBRANCH  12  15
ENDBRANCH   8  11
ENDBRANCH   2   5
BRANCH   1  23
HETATM   23  C   UNL     1      41.977  -9.180   9.507  1.00  0.00     0.035 A 
HETATM   24  C   UNL     1      43.033  -9.572   8.693  1.00  0.00     0.032 A 
HETATM   25  C   UNL     1      42.796 -10.042   7.391  1.00  0.00     0.031 A 
HETATM   26  C   UNL     1      41.504 -10.113   6.854  1.00  0.00     0.030 A 
HETATM   27  C   UNL     1      40.453  -9.727   7.700  1.00  0.00     0.031 A 
HETATM   28  C   UNL     1      40.680  -9.271   9.004  1.00  0.00     0.032 A 
BRANCH  26  29
HETATM   29  N   UNL     1      41.224 -10.575   5.568  1.00  0.00    -0.378 N 
HETATM   30  C   UNL     1      39.895 -11.111   5.235  1.00  0.00     0.150 C 
HETATM   31  C   UNL     1      39.848 -12.647   5.370  1.00  0.00     0.254 C 
HETATM   32  N   UNL     1      40.975 -13.297   4.552  1.00  0.00    -0.068 N 
HETATM   33  H   UNL     1      40.824 -13.017   3.574  1.00  0.00     0.280 HD
HETATM   34  C   UNL     1      42.332 -12.723   4.983  1.00  0.00     0.254 C 
HETATM   35  C   UNL     1      42.343 -11.187   4.823  1.00  0.00     0.150 C 
BRANCH  32  36
HETATM   36  C   UNL     1      40.904 -14.802   4.627  1.00  0.00     0.230 C 
HETATM   37  C   UNL     1      40.502 -15.255   6.018  1.00  0.00     0.034 C 
ENDBRANCH  32  36
ENDBRANCH  26  29
ENDBRANCH   1  23
TORSDOF 8
ENDMDL
MODEL 7
REMARK VINA RESULT:      -7.3      3.683     13.038
REMARK  8 active torsions:
REMARK  status: ('A' for Active; 'I' for Inactive)
REMARK    1  A    between atoms: C_2  and  N_3 
REMARK    2  A    between atoms: N_7  and  C_8 
REMARK    3  A    between atoms: C_11  and  N_12 
REMARK       I    between atoms: N_12  and  C_13 
REMARK    4  A    between atoms: C_13  and  C_14 
REMARK    5  A    between atoms: C_17  and  N_18 
REMARK       I    between atoms: N_18  and  C_19 
REMARK    6  A    between atoms: C_19  and  C_20 
REMARK    7  A    between atoms: C_20  and  S_21 
REMARK    8  A    between atoms: S_21  and  C_22 
ROOT
HETATM    1  N   UNL     1      43.097 -10.955   7.544  1.00  0.00    -0.323 N 
HETATM    2  C   UNL     1      44.073 -10.746   8.501  1.00  0.00     0.256 C 
HETATM    3  O   UNL     1      45.181 -11.262   8.548  1.00  0.00    -0.267 OA
HETATM    4  H   UNL     1      42.307 -10.322   7.559  1.00  0.00     0.169 HD
ENDROOT
BRANCH   2   5
HETATM    5  C   UNL     1      43.705  -9.718   9.513  1.00  0.00     0.032 A 
HETATM    6  C   UNL     1      44.219  -9.773  10.813  1.00  0.00     0.019 A 
HETATM    7  C   UNL     1      43.785  -8.859  11.777  1.00  0.00     0.030 A 
HETATM    8  C   UNL     1      42.840  -7.881  11.457  1.00  0.00     0.034 A 
HETATM    9  C   UNL     1      42.380  -7.792  10.136  1.00  0.00     0.030 A 
HETATM   10  C   UNL     1      42.811  -8.703   9.165  1.00  0.00     0.019 A 
BRANCH   8  11
HETATM   11  N   UNL     1      42.292  -6.986  12.397  1.00  0.00    -0.327 N 
HETATM   12  C   UNL     1      41.116  -7.142  13.120  1.00  0.00     0.231 C 
HETATM   13  O   UNL     1      40.409  -8.146  13.136  1.00  0.00    -0.272 OA
HETATM   14  H   UNL     1      42.732  -6.075  12.464  1.00  0.00     0.169 HD
BRANCH  12  15
HETATM   15  C   UNL     1      40.750  -5.919  13.947  1.00  0.00     0.185 C 
BRANCH  15  16
HETATM   16  S   UNL     1      39.271  -6.280  14.949  1.00  0.00    -0.083 SA
BRANCH  16  17
HETATM   17  C   UNL     1      39.946  -6.159  16.536  1.00  0.00     0.168 A 
HETATM   18  N   UNL     1      39.708  -5.099  17.371  1.00  0.00    -0.339 N 
HETATM   19  C   UNL     1      38.912  -3.928  17.100  1.00  0.00     0.158 C 
HETATM   20  C   UNL     1      40.371  -5.351  18.544  1.00  0.00     0.112 A 
HETATM   21  C   UNL     1      40.992  -6.564  18.350  1.00  0.00     0.136 A 
HETATM   22  N   UNL     1      40.727  -7.052  17.097  1.00  0.00    -0.235 NA
ENDBRANCH  16  17
ENDBRANCH  15  16
ENDBRANCH  12  15
ENDBRANCH   8  11
ENDBRANCH   2   5
BRANCH   1  23
HETATM   23  C   UNL     1      43.114 -11.889   6.491  1.00  0.00     0.035 A 
HETATM   24  C   UNL     1      43.389 -11.568   5.167  1.00  0.00     0.032 A 
HETATM   25  C   UNL     1      43.410 -12.565   4.179  1.00  0.00     0.031 A 
HETATM   26  C   UNL     1      43.134 -13.907   4.475  1.00  0.00     0.030 A 
HETATM   27  C   UNL     1      42.875 -14.208   5.821  1.00  0.00     0.031 A 
HETATM   28  C   UNL     1      42.866 -13.222   6.815  1.00  0.00     0.032 A 
BRANCH  26  29
HETATM   29  N   UNL     1      43.147 -14.928   3.525  1.00  0.00    -0.378 N 
HETATM   30  C   UNL     1      43.296 -14.620   2.094  1.00  0.00     0.150 C 
HETATM   31  C   UNL     1      41.929 -14.517   1.387  1.00  0.00     0.254 C 
HETATM   32  N   UNL     1      41.091 -15.780   1.641  1.00  0.00    -0.068 N 
HETATM   33  H   UNL     1      41.633 -16.570   1.265  1.00  0.00     0.280 HD
HETATM   34  C   UNL     1      40.941 -16.012   3.151  1.00  0.00     0.254 C 
HETATM   35  C   UNL     1      42.328 -16.122   3.820  1.00  0.00     0.150 C 
BRANCH  32  36
HETATM   36  C   UNL     1      39.776 -15.718   0.905  1.00  0.00     0.230 C 
HETATM   37  C   UNL     1      39.841 -14.717  -0.234  1.00  0.00     0.034 C 
ENDBRANCH  32  36
ENDBRANCH  26  29
ENDBRANCH   1  23
TORSDOF 8
ENDMDL
MODEL 8
REMARK VINA RESULT:      -7.1      4.603     13.241
REMARK  8 active torsions:
REMARK  status: ('A' for Active; 'I' for Inactive)
REMARK    1  A    between atoms: C_2  and  N_3 
REMARK    2  A    between atoms: N_7  and  C_8 
REMARK    3  A    between atoms: C_11  and  N_12 
REMARK       I    between atoms: N_12  and  C_13 
REMARK    4  A    between atoms: C_13  and  C_14 
REMARK    5  A    between atoms: C_17  and  N_18 
REMARK       I    between atoms: N_18  and  C_19 
REMARK    6  A    between atoms: C_19  and  C_20 
REMARK    7  A    between atoms: C_20  and  S_21 
REMARK    8  A    between atoms: S_21  and  C_22 
ROOT
HETATM    1  N   UNL     1      42.933  -9.470   9.075  1.00  0.00    -0.323 N 
HETATM    2  C   UNL     1      43.589  -8.298   9.406  1.00  0.00     0.256 C 
HETATM    3  O   UNL     1      44.389  -7.682   8.716  1.00  0.00    -0.267 OA
HETATM    4  H   UNL     1      42.178  -9.754   9.688  1.00  0.00     0.169 HD
ENDROOT
BRANCH   2   5
HETATM    5  C   UNL     1      43.179  -7.738  10.723  1.00  0.00     0.032 A 
HETATM    6  C   UNL     1      42.513  -6.511  10.805  1.00  0.00     0.019 A 
HETATM    7  C   UNL     1      42.226  -5.952  12.054  1.00  0.00     0.030 A 
HETATM    8  C   UNL     1      42.595  -6.609  13.230  1.00  0.00     0.034 A 
HETATM    9  C   UNL     1      43.203  -7.868  13.139  1.00  0.00     0.030 A 
HETATM   10  C   UNL     1      43.493  -8.435  11.892  1.00  0.00     0.019 A 
BRANCH   8  11
HETATM   11  N   UNL     1      42.418  -6.065  14.518  1.00  0.00    -0.327 N 
HETATM   12  C   UNL     1      41.286  -6.148  15.318  1.00  0.00     0.231 C 
HETATM   13  O   UNL     1      40.280  -6.809  15.074  1.00  0.00    -0.272 OA
HETATM   14  H   UNL     1      43.145  -5.439  14.848  1.00  0.00     0.169 HD
BRANCH  12  15
HETATM   15  C   UNL     1      41.389  -5.330  16.596  1.00  0.00     0.185 C 
BRANCH  15  16
HETATM   16  S   UNL     1      40.240  -5.998  17.843  1.00  0.00    -0.083 SA
BRANCH  16  17
HETATM   17  C   UNL     1      41.372  -6.650  18.977  1.00  0.00     0.168 A 
HETATM   18  N   UNL     1      41.629  -6.072  20.192  1.00  0.00    -0.339 N 
HETATM   19  C   UNL     1      41.056  -4.862  20.729  1.00  0.00     0.158 C 
HETATM   20  C   UNL     1      42.545  -6.866  20.832  1.00  0.00     0.112 A 
HETATM   21  C   UNL     1      42.805  -7.892  19.952  1.00  0.00     0.136 A 
HETATM   22  N   UNL     1      42.076  -7.742  18.800  1.00  0.00    -0.235 NA
ENDBRANCH  16  17
ENDBRANCH  15  16
ENDBRANCH  12  15
ENDBRANCH   8  11
ENDBRANCH   2   5
BRANCH   1  23
HETATM   23  C   UNL     1      43.130 -10.271   7.935  1.00  0.00     0.035 A 
HETATM   24  C   UNL     1      44.190 -11.156   7.776  1.00  0.00     0.032 A 
HETATM   25  C   UNL     1      44.299 -11.939   6.615  1.00  0.00     0.031 A 
HETATM   26  C   UNL     1      43.372 -11.846   5.569  1.00  0.00     0.030 A 
HETATM   27  C   UNL     1      42.302 -10.957   5.760  1.00  0.00     0.031 A 
HETATM   28  C   UNL     1      42.178 -10.184   6.920  1.00  0.00     0.032 A 
BRANCH  26  29
HETATM   29  N   UNL     1      43.443 -12.606   4.402  1.00  0.00    -0.378 N 
HETATM   30  C   UNL     1      43.244 -11.980   3.085  1.00  0.00     0.150 C 
HETATM   31  C   UNL     1      41.783 -12.105   2.607  1.00  0.00     0.254 C 
HETATM   32  N   UNL     1      41.325 -13.572   2.645  1.00  0.00    -0.068 N 
HETATM   33  H   UNL     1      41.955 -14.090   2.018  1.00  0.00     0.280 HD
HETATM   34  C   UNL     1      41.520 -14.144   4.056  1.00  0.00     0.254 C 
HETATM   35  C   UNL     1      42.994 -14.010   4.493  1.00  0.00     0.150 C 
BRANCH  32  36
HETATM   36  C   UNL     1      39.917 -13.716   2.123  1.00  0.00     0.230 C 
HETATM   37  C   UNL     1      39.905 -13.759   0.607  1.00  0.00     0.034 C 
ENDBRANCH  32  36
ENDBRANCH  26  29
ENDBRANCH   1  23
TORSDOF 8
ENDMDL
MODEL 9
REMARK VINA RESULT:      -7.0      4.923     12.573
REMARK  8 active torsions:
REMARK  status: ('A' for Active; 'I' for Inactive)
REMARK    1  A    between atoms: C_2  and  N_3 
REMARK    2  A    between atoms: N_7  and  C_8 
REMARK    3  A    between atoms: C_11  and  N_12 
REMARK       I    between atoms: N_12  and  C_13 
REMARK    4  A    between atoms: C_13  and  C_14 
REMARK    5  A    between atoms: C_17  and  N_18 
REMARK       I    between atoms: N_18  and  C_19 
REMARK    6  A    between atoms: C_19  and  C_20 
REMARK    7  A    between atoms: C_20  and  S_21 
REMARK    8  A    between atoms: S_21  and  C_22 
ROOT
HETATM    1  N   UNL     1      42.051 -11.095   3.447  1.00  0.00    -0.323 N 
HETATM    2  C   UNL     1      43.302 -11.232   4.021  1.00  0.00     0.256 C 
HETATM    3  O   UNL     1      44.347 -11.513   3.450  1.00  0.00    -0.267 OA
HETATM    4  H   UNL     1      41.328 -10.693   4.031  1.00  0.00     0.169 HD
ENDROOT
BRANCH   2   5
HETATM    5  C   UNL     1      43.329 -10.919   5.476  1.00  0.00     0.032 A 
HETATM    6  C   UNL     1      44.268 -11.517   6.322  1.00  0.00     0.019 A 
HETATM    7  C   UNL     1      44.214 -11.289   7.700  1.00  0.00     0.030 A 
HETATM    8  C   UNL     1      43.230 -10.462   8.247  1.00  0.00     0.034 A 
HETATM    9  C   UNL     1      42.334  -9.815   7.385  1.00  0.00     0.030 A 
HETATM   10  C   UNL     1      42.382 -10.038   6.004  1.00  0.00     0.019 A 
BRANCH   8  11
HETATM   11  N   UNL     1      43.061 -10.258   9.631  1.00  0.00    -0.327 N 
HETATM   12  C   UNL     1      43.986 -10.506  10.637  1.00  0.00     0.231 C 
HETATM   13  O   UNL     1      45.154 -10.846  10.472  1.00  0.00    -0.272 OA
HETATM   14  H   UNL     1      42.124 -10.026   9.942  1.00  0.00     0.169 HD
BRANCH  12  15
HETATM   15  C   UNL     1      43.425 -10.301  12.036  1.00  0.00     0.185 C 
BRANCH  15  16
HETATM   16  S   UNL     1      41.689  -9.758  11.926  1.00  0.00    -0.083 SA
BRANCH  16  17
HETATM   17  C   UNL     1      41.908  -8.043  11.959  1.00  0.00     0.168 A 
HETATM   18  N   UNL     1      41.943  -7.316  13.121  1.00  0.00    -0.339 N 
HETATM   19  C   UNL     1      41.789  -7.806  14.469  1.00  0.00     0.158 C 
HETATM   20  C   UNL     1      42.160  -6.009  12.773  1.00  0.00     0.112 A 
HETATM   21  C   UNL     1      42.237  -6.011  11.399  1.00  0.00     0.136 A 
HETATM   22  N   UNL     1      42.071  -7.279  10.905  1.00  0.00    -0.235 NA
ENDBRANCH  16  17
ENDBRANCH  15  16
ENDBRANCH  12  15
ENDBRANCH   8  11
ENDBRANCH   2   5
BRANCH   1  23
HETATM   23  C   UNL     1      41.683 -11.366   2.116  1.00  0.00     0.035 A 
HETATM   24  C   UNL     1      41.574 -10.398   1.124  1.00  0.00     0.032 A 
HETATM   25  C   UNL     1      41.224 -10.755  -0.188  1.00  0.00     0.031 A 
HETATM   26  C   UNL     1      40.949 -12.082  -0.546  1.00  0.00     0.030 A 
HETATM   27  C   UNL     1      41.082 -13.043   0.469  1.00  0.00     0.031 A 
HETATM   28  C   UNL     1      41.444 -12.696   1.777  1.00  0.00     0.032 A 
BRANCH  26  29
HETATM   29  N   UNL     1      40.602 -12.480  -1.836  1.00  0.00    -0.378 N 
HETATM   30  C   UNL     1      40.199 -11.487  -2.845  1.00  0.00     0.150 C 
HETATM   31  C   UNL     1      38.666 -11.326  -2.907  1.00  0.00     0.254 C 
HETATM   32  N   UNL     1      37.986 -12.689  -3.108  1.00  0.00    -0.068 N 
HETATM   33  H   UNL     1      38.345 -13.066  -3.995  1.00  0.00     0.280 HD
HETATM   34  C   UNL     1      38.417 -13.656  -1.997  1.00  0.00     0.254 C 
HETATM   35  C   UNL     1      39.954 -13.800  -1.974  1.00  0.00     0.150 C 
BRANCH  32  36
HETATM   36  C   UNL     1      36.490 -12.538  -3.231  1.00  0.00     0.230 C 
HETATM   37  C   UNL     1      36.077 -11.089  -3.050  1.00  0.00     0.034 C 
ENDBRANCH  32  36
ENDBRANCH  26  29
ENDBRANCH   1  23
TORSDOF 8
ENDMDL
MODEL 10
REMARK VINA RESULT:      -6.9      8.254     12.087
REMARK  8 active torsions:
REMARK  status: ('A' for Active; 'I' for Inactive)
REMARK    1  A    between atoms: C_2  and  N_3 
REMARK    2  A    between atoms: N_7  and  C_8 
REMARK    3  A    between atoms: C_11  and  N_12 
REMARK       I    between atoms: N_12  and  C_13 
REMARK    4  A    between atoms: C_13  and  C_14 
REMARK    5  A    between atoms: C_17  and  N_18 
REMARK       I    between atoms: N_18  and  C_19 
REMARK    6  A    between atoms: C_19  and  C_20 
REMARK    7  A    between atoms: C_20  and  S_21 
REMARK    8  A    between atoms: S_21  and  C_22 
ROOT
HETATM    1  N   UNL     1      41.189 -10.915  -0.531  1.00  0.00    -0.323 N 
HETATM    2  C   UNL     1      40.783 -12.209  -0.803  1.00  0.00     0.256 C 
HETATM    3  O   UNL     1      40.379 -12.644  -1.872  1.00  0.00    -0.267 OA
HETATM    4  H   UNL     1      41.655 -10.765   0.356  1.00  0.00     0.169 HD
ENDROOT
BRANCH   2   5
HETATM    5  C   UNL     1      40.950 -13.140   0.347  1.00  0.00     0.032 A 
HETATM    6  C   UNL     1      41.575 -12.720   1.526  1.00  0.00     0.019 A 
HETATM    7  C   UNL     1      41.812 -13.635   2.556  1.00  0.00     0.030 A 
HETATM    8  C   UNL     1      41.428 -14.971   2.425  1.00  0.00     0.034 A 
HETATM    9  C   UNL     1      40.744 -15.368   1.267  1.00  0.00     0.030 A 
HETATM   10  C   UNL     1      40.502 -14.458   0.232  1.00  0.00     0.019 A 
BRANCH   8  11
HETATM   11  N   UNL     1      41.715 -15.965   3.382  1.00  0.00    -0.327 N 
HETATM   12  C   UNL     1      42.032 -15.777   4.721  1.00  0.00     0.231 C 
HETATM   13  O   UNL     1      42.009 -14.705   5.322  1.00  0.00    -0.272 OA
HETATM   14  H   UNL     1      41.827 -16.910   3.032  1.00  0.00     0.169 HD
BRANCH  12  15
HETATM   15  C   UNL     1      42.418 -17.062   5.436  1.00  0.00     0.185 C 
BRANCH  15  16
HETATM   16  S   UNL     1      44.141 -17.495   5.029  1.00  0.00    -0.083 SA
BRANCH  16  17
HETATM   17  C   UNL     1      43.869 -18.734   3.854  1.00  0.00     0.168 A 
HETATM   18  N   UNL     1      44.014 -20.069   4.128  1.00  0.00    -0.339 N 
HETATM   19  C   UNL     1      44.422 -20.672   5.373  1.00  0.00     0.158 C 
HETATM   20  C   UNL     1      43.692 -20.754   2.986  1.00  0.00     0.112 A 
HETATM   21  C   UNL     1      43.373 -19.783   2.064  1.00  0.00     0.136 A 
HETATM   22  N   UNL     1      43.495 -18.532   2.612  1.00  0.00    -0.235 NA
ENDBRANCH  16  17
ENDBRANCH  15  16
ENDBRANCH  12  15
ENDBRANCH   8  11
ENDBRANCH   2   5
BRANCH   1  23
HETATM   23  C   UNL     1      41.113  -9.795  -1.379  1.00  0.00     0.035 A 
HETATM   24  C   UNL     1      39.971  -9.423  -2.080  1.00  0.00     0.032 A 
HETATM   25  C   UNL     1      39.971  -8.274  -2.888  1.00  0.00     0.031 A 
HETATM   26  C   UNL     1      41.113  -7.477  -3.041  1.00  0.00     0.030 A 
HETATM   27  C   UNL     1      42.248  -7.864  -2.312  1.00  0.00     0.031 A 
HETATM   28  C   UNL     1      42.252  -9.000  -1.493  1.00  0.00     0.032 A 
BRANCH  26  29
HETATM   29  N   UNL     1      41.155  -6.328  -3.831  1.00  0.00    -0.378 N 
HETATM   30  C   UNL     1      40.016  -5.966  -4.690  1.00  0.00     0.150 C 
HETATM   31  C   UNL     1      40.200  -6.485  -6.131  1.00  0.00     0.254 C 
HETATM   32  N   UNL     1      41.549  -6.025  -6.704  1.00  0.00    -0.068 N 
HETATM   33  H   UNL     1      41.536  -4.996  -6.691  1.00  0.00     0.280 HD
HETATM   34  C   UNL     1      42.690  -6.475  -5.781  1.00  0.00     0.254 C 
HETATM   35  C   UNL     1      42.477  -5.927  -4.354  1.00  0.00     0.150 C 
BRANCH  32  36
HETATM   36  C   UNL     1      41.715  -6.475  -8.135  1.00  0.00     0.230 C 
HETATM   37  C   UNL     1      41.139  -7.865  -8.333  1.00  0.00     0.034 C 
ENDBRANCH  32  36
ENDBRANCH  26  29
ENDBRANCH   1  23
TORSDOF 8
ENDMDL
