MODEL 1
REMARK VINA RESULT:      -8.4      0.000      0.000
REMARK  7 active torsions:
REMARK  status: ('A' for Active; 'I' for Inactive)
REMARK    1  A    between atoms: O_2  and  C_3 
REMARK    2  A    between atoms: C_4  and  N_5 
REMARK    3  A    between atoms: N_5  and  C_6 
REMARK    4  A    between atoms: C_6  and  C_7 
REMARK       I    between atoms: C_7  and  N_8 
REMARK    5  A    between atoms: N_8  and  N_9 
REMARK       I    between atoms: N_9  and  C_10 
REMARK    6  A    between atoms: C_10  and  C_11 
REMARK    7  A    between atoms: N_13  and  C_14 
ROOT
HETATM    1  N   UNL     1      41.226 -13.346  -0.543  1.00  0.00    -0.263 N 
HETATM    2  C   UNL     1      40.284 -13.425   0.474  1.00  0.00     0.273 C 
HETATM    3  O   UNL     1      39.310 -12.690   0.592  1.00  0.00    -0.266 OA
HETATM    4  H   UNL     1      42.146 -13.738  -0.369  1.00  0.00     0.190 HD
ENDROOT
BRANCH   1   5
HETATM    5  N   UNL     1      41.199 -12.242  -1.409  1.00  0.00    -0.266 N 
HETATM    6  C   UNL     1      40.901 -12.454  -2.751  1.00  0.00     0.249 C 
HETATM    7  O   UNL     1      40.868 -13.554  -3.295  1.00  0.00    -0.270 OA
HETATM    8  H   UNL     1      40.856 -11.359  -1.026  1.00  0.00     0.190 HD
BRANCH   6   9
HETATM    9  C   UNL     1      40.589 -11.141  -3.475  1.00  0.00     0.197 C 
BRANCH   9  10
HETATM   10  N   UNL     1      40.524 -10.039  -2.504  1.00  0.00    -0.282 NA
HETATM   11  H   UNL     1      40.423 -10.339  -1.531  1.00  0.00     0.128 HD
BRANCH  10  12
HETATM   12  C   UNL     1      41.463  -8.989  -2.557  1.00  0.00     0.042 A 
HETATM   13  C   UNL     1      42.262  -8.740  -1.414  1.00  0.00     0.089 A 
HETATM   14  C   UNL     1      43.167  -7.673  -1.398  1.00  0.00     0.038 A 
HETATM   15  C   UNL     1      43.262  -6.816  -2.494  1.00  0.00     0.003 A 
HETATM   16  C   UNL     1      42.451  -7.020  -3.604  1.00  0.00     0.002 A 
HETATM   17  C   UNL     1      41.552  -8.089  -3.629  1.00  0.00     0.026 A 
BRANCH  13  18
HETATM   18  O   UNL     1      42.102  -9.630  -0.375  1.00  0.00    -0.354 OA
HETATM   19  C   UNL     1      41.242  -9.209   0.678  1.00  0.00     0.210 C 
ENDBRANCH  13  18
ENDBRANCH  10  12
ENDBRANCH   9  10
ENDBRANCH   6   9
ENDBRANCH   1   5
BRANCH   2  20
HETATM   20  C   UNL     1      40.573 -14.488   1.419  1.00  0.00     0.070 A 
HETATM   21  C   UNL     1      41.772 -15.156   1.573  1.00  0.00     0.137 A 
HETATM   22  N   UNL     1      41.595 -16.095   2.566  1.00  0.00    -0.244 N 
HETATM   23  N   UNL     1      40.346 -16.015   3.098  1.00  0.00    -0.179 NA
HETATM   24  C   UNL     1      39.741 -15.059   2.397  1.00  0.00     0.157 A 
BRANCH  22  25
HETATM   25  C   UNL     1      42.515 -17.076   3.028  1.00  0.00     0.059 A 
HETATM   26  C   UNL     1      42.793 -18.224   2.274  1.00  0.00     0.055 A 
HETATM   27  C   UNL     1      43.683 -19.177   2.773  1.00  0.00     0.036 A 
HETATM   28 CL   UNL     1      44.004 -20.602   1.861  1.00  0.00    -0.084 Cl
HETATM   29  C   UNL     1      44.311 -18.995   4.006  1.00  0.00     0.024 A 
HETATM   30  C   UNL     1      44.042 -17.852   4.755  1.00  0.00     0.004 A 
HETATM   31  C   UNL     1      43.144 -16.898   4.272  1.00  0.00     0.031 A 
ENDBRANCH  22  25
ENDBRANCH   2  20
TORSDOF 7
ENDMDL
MODEL 2
REMARK VINA RESULT:      -8.4      6.606      8.664
REMARK  7 active torsions:
REMARK  status: ('A' for Active; 'I' for Inactive)
REMARK    1  A    between atoms: O_2  and  C_3 
REMARK    2  A    between atoms: C_4  and  N_5 
REMARK    3  A    between atoms: N_5  and  C_6 
REMARK    4  A    between atoms: C_6  and  C_7 
REMARK       I    between atoms: C_7  and  N_8 
REMARK    5  A    between atoms: N_8  and  N_9 
REMARK       I    between atoms: N_9  and  C_10 
REMARK    6  A    between atoms: C_10  and  C_11 
REMARK    7  A    between atoms: N_13  and  C_14 
ROOT
HETATM    1  N   UNL     1      42.125 -12.465   6.325  1.00  0.00    -0.263 N 
HETATM    2  C   UNL     1      43.297 -13.191   6.162  1.00  0.00     0.273 C 
HETATM    3  O   UNL     1      44.335 -13.005   6.787  1.00  0.00    -0.266 OA
HETATM    4  H   UNL     1      41.466 -12.449   5.552  1.00  0.00     0.190 HD
ENDROOT
BRANCH   1   5
HETATM    5  N   UNL     1      42.148 -11.307   7.117  1.00  0.00    -0.266 N 
HETATM    6  C   UNL     1      41.926 -10.077   6.506  1.00  0.00     0.249 C 
HETATM    7  O   UNL     1      41.920  -9.889   5.293  1.00  0.00    -0.270 OA
HETATM    8  H   UNL     1      41.787 -11.388   8.069  1.00  0.00     0.190 HD
BRANCH   6   9
HETATM    9  C   UNL     1      41.657  -8.976   7.536  1.00  0.00     0.197 C 
BRANCH   9  10
HETATM   10  N   UNL     1      41.429  -9.575   8.860  1.00  0.00    -0.282 NA
HETATM   11  H   UNL     1      41.507 -10.595   8.881  1.00  0.00     0.128 HD
BRANCH  10  12
HETATM   12  C   UNL     1      42.072  -9.050   9.998  1.00  0.00     0.042 A 
HETATM   13  C   UNL     1      43.304  -9.622  10.401  1.00  0.00     0.089 A 
HETATM   14  C   UNL     1      43.952  -9.173  11.557  1.00  0.00     0.038 A 
HETATM   15  C   UNL     1      43.370  -8.183  12.349  1.00  0.00     0.003 A 
HETATM   16  C   UNL     1      42.140  -7.646  11.991  1.00  0.00     0.002 A 
HETATM   17  C   UNL     1      41.492  -8.084  10.834  1.00  0.00     0.026 A 
BRANCH  13  18
HETATM   18  O   UNL     1      43.806 -10.595   9.565  1.00  0.00    -0.354 OA
HETATM   19  C   UNL     1      45.081 -10.325   8.993  1.00  0.00     0.210 C 
ENDBRANCH  13  18
ENDBRANCH  10  12
ENDBRANCH   9  10
ENDBRANCH   6   9
ENDBRANCH   1   5
BRANCH   2  20
HETATM   20  C   UNL     1      43.179 -14.218   5.144  1.00  0.00     0.070 A 
HETATM   21  C   UNL     1      43.380 -15.574   5.307  1.00  0.00     0.137 A 
HETATM   22  N   UNL     1      43.183 -16.171   4.081  1.00  0.00    -0.244 N 
HETATM   23  N   UNL     1      42.802 -15.257   3.148  1.00  0.00    -0.179 NA
HETATM   24  C   UNL     1      42.814 -14.092   3.792  1.00  0.00     0.157 A 
BRANCH  22  25
HETATM   25  C   UNL     1      43.352 -17.538   3.726  1.00  0.00     0.059 A 
HETATM   26  C   UNL     1      43.837 -18.473   4.650  1.00  0.00     0.055 A 
HETATM   27  C   UNL     1      44.013 -19.801   4.257  1.00  0.00     0.036 A 
HETATM   28 CL   UNL     1      44.635 -20.947   5.383  1.00  0.00    -0.084 Cl
HETATM   29  C   UNL     1      43.701 -20.213   2.961  1.00  0.00     0.024 A 
HETATM   30  C   UNL     1      43.213 -19.287   2.042  1.00  0.00     0.004 A 
HETATM   31  C   UNL     1      43.044 -17.953   2.420  1.00  0.00     0.031 A 
ENDBRANCH  22  25
ENDBRANCH   2  20
TORSDOF 7
ENDMDL
MODEL 3
REMARK VINA RESULT:      -8.3      7.154      9.296
REMARK  7 active torsions:
REMARK  status: ('A' for Active; 'I' for Inactive)
REMARK    1  A    between atoms: O_2  and  C_3 
REMARK    2  A    between atoms: C_4  and  N_5 
REMARK    3  A    between atoms: N_5  and  C_6 
REMARK    4  A    between atoms: C_6  and  C_7 
REMARK       I    between atoms: C_7  and  N_8 
REMARK    5  A    between atoms: N_8  and  N_9 
REMARK       I    between atoms: N_9  and  C_10 
REMARK    6  A    between atoms: C_10  and  C_11 
REMARK    7  A    between atoms: N_13  and  C_14 
ROOT
HETATM    1  N   UNL     1      43.621 -12.996   7.013  1.00  0.00    -0.263 N 
HETATM    2  C   UNL     1      42.982 -12.868   5.787  1.00  0.00     0.273 C 
HETATM    3  O   UNL     1      42.430 -11.851   5.383  1.00  0.00    -0.266 OA
HETATM    4  H   UNL     1      43.727 -13.930   7.396  1.00  0.00     0.190 HD
ENDROOT
BRANCH   1   5
HETATM    5  N   UNL     1      43.483 -11.971   7.961  1.00  0.00    -0.266 N 
HETATM    6  C   UNL     1      44.481 -11.005   8.048  1.00  0.00     0.249 C 
HETATM    7  O   UNL     1      45.582 -11.086   7.512  1.00  0.00    -0.270 OA
HETATM    8  H   UNL     1      42.537 -11.633   8.146  1.00  0.00     0.190 HD
BRANCH   6   9
HETATM    9  C   UNL     1      44.029  -9.800   8.878  1.00  0.00     0.197 C 
BRANCH   9  10
HETATM   10  N   UNL     1      42.895 -10.181   9.735  1.00  0.00    -0.282 NA
HETATM   11  H   UNL     1      42.822 -11.184   9.916  1.00  0.00     0.128 HD
BRANCH  10  12
HETATM   12  C   UNL     1      42.647  -9.485  10.935  1.00  0.00     0.042 A 
HETATM   13  C   UNL     1      41.302  -9.281  11.331  1.00  0.00     0.089 A 
HETATM   14  C   UNL     1      41.004  -8.547  12.485  1.00  0.00     0.038 A 
HETATM   15  C   UNL     1      42.029  -7.972  13.235  1.00  0.00     0.003 A 
HETATM   16  C   UNL     1      43.350  -8.124  12.833  1.00  0.00     0.002 A 
HETATM   17  C   UNL     1      43.654  -8.863  11.687  1.00  0.00     0.026 A 
BRANCH  13  18
HETATM   18  O   UNL     1      40.353  -9.879  10.532  1.00  0.00    -0.354 OA
HETATM   19  C   UNL     1      39.362  -9.013   9.990  1.00  0.00     0.210 C 
ENDBRANCH  13  18
ENDBRANCH  10  12
ENDBRANCH   9  10
ENDBRANCH   6   9
ENDBRANCH   1   5
BRANCH   2  20
HETATM   20  C   UNL     1      43.022 -14.090   5.007  1.00  0.00     0.070 A 
HETATM   21  C   UNL     1      43.264 -15.366   5.477  1.00  0.00     0.137 A 
HETATM   22  N   UNL     1      43.229 -16.217   4.395  1.00  0.00    -0.244 N 
HETATM   23  N   UNL     1      42.913 -15.547   3.255  1.00  0.00    -0.179 NA
HETATM   24  C   UNL     1      42.802 -14.275   3.631  1.00  0.00     0.157 A 
BRANCH  22  25
HETATM   25  C   UNL     1      43.497 -17.614   4.361  1.00  0.00     0.059 A 
HETATM   26  C   UNL     1      43.583 -18.307   3.146  1.00  0.00     0.055 A 
HETATM   27  C   UNL     1      43.822 -19.683   3.155  1.00  0.00     0.036 A 
HETATM   28 CL   UNL     1      43.901 -20.543   1.664  1.00  0.00    -0.084 Cl
HETATM   29  C   UNL     1      43.988 -20.374   4.355  1.00  0.00     0.024 A 
HETATM   30  C   UNL     1      43.909 -19.687   5.564  1.00  0.00     0.004 A 
HETATM   31  C   UNL     1      43.659 -18.314   5.569  1.00  0.00     0.031 A 
ENDBRANCH  22  25
ENDBRANCH   2  20
TORSDOF 7
ENDMDL
MODEL 4
REMARK VINA RESULT:      -8.3      7.915     10.899
REMARK  7 active torsions:
REMARK  status: ('A' for Active; 'I' for Inactive)
REMARK    1  A    between atoms: O_2  and  C_3 
REMARK    2  A    between atoms: C_4  and  N_5 
REMARK    3  A    between atoms: N_5  and  C_6 
REMARK    4  A    between atoms: C_6  and  C_7 
REMARK       I    between atoms: C_7  and  N_8 
REMARK    5  A    between atoms: N_8  and  N_9 
REMARK       I    between atoms: N_9  and  C_10 
REMARK    6  A    between atoms: C_10  and  C_11 
REMARK    7  A    between atoms: N_13  and  C_14 
ROOT
HETATM    1  N   UNL     1      43.159 -12.304   6.926  1.00  0.00    -0.263 N 
HETATM    2  C   UNL     1      44.403 -11.724   7.128  1.00  0.00     0.273 C 
HETATM    3  O   UNL     1      45.371 -11.853   6.387  1.00  0.00    -0.266 OA
HETATM    4  H   UNL     1      42.559 -12.433   7.735  1.00  0.00     0.190 HD
ENDROOT
BRANCH   1   5
HETATM    5  N   UNL     1      43.015 -13.265   5.913  1.00  0.00    -0.266 N 
HETATM    6  C   UNL     1      41.731 -13.635   5.524  1.00  0.00     0.249 C 
HETATM    7  O   UNL     1      40.705 -13.351   6.135  1.00  0.00    -0.270 OA
HETATM    8  H   UNL     1      43.708 -13.258   5.163  1.00  0.00     0.190 HD
BRANCH   6   9
HETATM    9  C   UNL     1      41.745 -14.422   4.211  1.00  0.00     0.197 C 
BRANCH   9  10
HETATM   10  N   UNL     1      43.099 -14.932   3.948  1.00  0.00    -0.282 NA
HETATM   11  H   UNL     1      43.823 -14.539   4.554  1.00  0.00     0.128 HD
BRANCH  10  12
HETATM   12  C   UNL     1      43.324 -16.317   3.818  1.00  0.00     0.042 A 
HETATM   13  C   UNL     1      43.972 -16.999   4.877  1.00  0.00     0.089 A 
HETATM   14  C   UNL     1      44.268 -18.362   4.771  1.00  0.00     0.038 A 
HETATM   15  C   UNL     1      43.966 -19.057   3.600  1.00  0.00     0.003 A 
HETATM   16  C   UNL     1      43.373 -18.391   2.534  1.00  0.00     0.002 A 
HETATM   17  C   UNL     1      43.067 -17.032   2.638  1.00  0.00     0.026 A 
BRANCH  13  18
HETATM   18  O   UNL     1      44.238 -16.238   5.994  1.00  0.00    -0.354 OA
HETATM   19  C   UNL     1      43.593 -16.650   7.195  1.00  0.00     0.210 C 
ENDBRANCH  13  18
ENDBRANCH  10  12
ENDBRANCH   9  10
ENDBRANCH   6   9
ENDBRANCH   1   5
BRANCH   2  20
HETATM   20  C   UNL     1      44.457 -10.931   8.343  1.00  0.00     0.070 A 
HETATM   21  C   UNL     1      43.481 -10.835   9.314  1.00  0.00     0.137 A 
HETATM   22  N   UNL     1      43.940  -9.962  10.275  1.00  0.00    -0.244 N 
HETATM   23  N   UNL     1      45.200  -9.538   9.990  1.00  0.00    -0.179 NA
HETATM   24  C   UNL     1      45.495 -10.116   8.827  1.00  0.00     0.157 A 
BRANCH  22  25
HETATM   25  C   UNL     1      43.261  -9.482  11.429  1.00  0.00     0.059 A 
HETATM   26  C   UNL     1      42.061 -10.063  11.860  1.00  0.00     0.055 A 
HETATM   27  C   UNL     1      41.410  -9.548  12.983  1.00  0.00     0.036 A 
HETATM   28 CL   UNL     1      39.921 -10.242  13.498  1.00  0.00    -0.084 Cl
HETATM   29  C   UNL     1      41.946  -8.472  13.690  1.00  0.00     0.024 A 
HETATM   30  C   UNL     1      43.142  -7.895  13.269  1.00  0.00     0.004 A 
HETATM   31  C   UNL     1      43.795  -8.394  12.140  1.00  0.00     0.031 A 
ENDBRANCH  22  25
ENDBRANCH   2  20
TORSDOF 7
ENDMDL
MODEL 5
REMARK VINA RESULT:      -8.3      8.359     10.510
REMARK  7 active torsions:
REMARK  status: ('A' for Active; 'I' for Inactive)
REMARK    1  A    between atoms: O_2  and  C_3 
REMARK    2  A    between atoms: C_4  and  N_5 
REMARK    3  A    between atoms: N_5  and  C_6 
REMARK    4  A    between atoms: C_6  and  C_7 
REMARK       I    between atoms: C_7  and  N_8 
REMARK    5  A    between atoms: N_8  and  N_9 
REMARK       I    between atoms: N_9  and  C_10 
REMARK    6  A    between atoms: C_10  and  C_11 
REMARK    7  A    between atoms: N_13  and  C_14 
ROOT
HETATM    1  N   UNL     1      43.361 -11.375   7.340  1.00  0.00    -0.263 N 
HETATM    2  C   UNL     1      42.866 -10.933   6.120  1.00  0.00     0.273 C 
HETATM    3  O   UNL     1      42.386  -9.825   5.913  1.00  0.00    -0.266 OA
HETATM    4  H   UNL     1      43.402 -12.376   7.500  1.00  0.00     0.190 HD
ENDROOT
BRANCH   1   5
HETATM    5  N   UNL     1      43.141 -10.593   8.484  1.00  0.00    -0.266 N 
HETATM    6  C   UNL     1      44.217 -10.327   9.326  1.00  0.00     0.249 C 
HETATM    7  O   UNL     1      45.305 -10.893   9.272  1.00  0.00    -0.270 OA
HETATM    8  H   UNL     1      42.456  -9.839   8.408  1.00  0.00     0.190 HD
BRANCH   6   9
HETATM    9  C   UNL     1      43.891  -9.211  10.322  1.00  0.00     0.197 C 
BRANCH   9  10
HETATM   10  N   UNL     1      42.895  -9.685  11.295  1.00  0.00    -0.282 NA
HETATM   11  H   UNL     1      42.927 -10.691  11.475  1.00  0.00     0.128 HD
BRANCH  10  12
HETATM   12  C   UNL     1      42.724  -9.012  12.521  1.00  0.00     0.042 A 
HETATM   13  C   UNL     1      41.663  -9.415  13.370  1.00  0.00     0.089 A 
HETATM   14  C   UNL     1      41.417  -8.741  14.571  1.00  0.00     0.038 A 
HETATM   15  C   UNL     1      42.189  -7.635  14.926  1.00  0.00     0.003 A 
HETATM   16  C   UNL     1      43.202  -7.199  14.081  1.00  0.00     0.002 A 
HETATM   17  C   UNL     1      43.458  -7.874  12.885  1.00  0.00     0.026 A 
BRANCH  13  18
HETATM   18  O   UNL     1      40.949 -10.513  12.943  1.00  0.00    -0.354 OA
HETATM   19  C   UNL     1      39.548 -10.319  12.785  1.00  0.00     0.210 C 
ENDBRANCH  13  18
ENDBRANCH  10  12
ENDBRANCH   9  10
ENDBRANCH   6   9
ENDBRANCH   1   5
BRANCH   2  20
HETATM   20  C   UNL     1      42.965 -11.942   5.081  1.00  0.00     0.070 A 
HETATM   21  C   UNL     1      42.916 -13.311   5.248  1.00  0.00     0.137 A 
HETATM   22  N   UNL     1      43.070 -13.884   4.004  1.00  0.00    -0.244 N 
HETATM   23  N   UNL     1      43.154 -12.934   3.035  1.00  0.00    -0.179 NA
HETATM   24  C   UNL     1      43.102 -11.777   3.692  1.00  0.00     0.157 A 
BRANCH  22  25
HETATM   25  C   UNL     1      43.165 -15.264   3.673  1.00  0.00     0.059 A 
HETATM   26  C   UNL     1      43.380 -16.235   4.660  1.00  0.00     0.055 A 
HETATM   27  C   UNL     1      43.494 -17.577   4.292  1.00  0.00     0.036 A 
HETATM   28 CL   UNL     1      43.787 -18.769   5.501  1.00  0.00    -0.084 Cl
HETATM   29  C   UNL     1      43.382 -17.966   2.958  1.00  0.00     0.024 A 
HETATM   30  C   UNL     1      43.162 -17.005   1.974  1.00  0.00     0.004 A 
HETATM   31  C   UNL     1      43.059 -15.658   2.328  1.00  0.00     0.031 A 
ENDBRANCH  22  25
ENDBRANCH   2  20
TORSDOF 7
ENDMDL
MODEL 6
REMARK VINA RESULT:      -8.1      7.750     11.077
REMARK  7 active torsions:
REMARK  status: ('A' for Active; 'I' for Inactive)
REMARK    1  A    between atoms: O_2  and  C_3 
REMARK    2  A    between atoms: C_4  and  N_5 
REMARK    3  A    between atoms: N_5  and  C_6 
REMARK    4  A    between atoms: C_6  and  C_7 
REMARK       I    between atoms: C_7  and  N_8 
REMARK    5  A    between atoms: N_8  and  N_9 
REMARK       I    between atoms: N_9  and  C_10 
REMARK    6  A    between atoms: C_10  and  C_11 
REMARK    7  A    between atoms: N_13  and  C_14 
ROOT
HETATM    1  N   UNL     1      42.923 -12.650   7.029  1.00  0.00    -0.263 N 
HETATM    2  C   UNL     1      43.903 -11.711   6.738  1.00  0.00     0.273 C 
HETATM    3  O   UNL     1      44.502 -11.624   5.672  1.00  0.00    -0.266 OA
HETATM    4  H   UNL     1      42.750 -12.867   8.006  1.00  0.00     0.190 HD
ENDROOT
BRANCH   1   5
HETATM    5  N   UNL     1      42.709 -13.708   6.133  1.00  0.00    -0.266 N 
HETATM    6  C   UNL     1      41.408 -13.978   5.720  1.00  0.00     0.249 C 
HETATM    7  O   UNL     1      40.397 -13.508   6.235  1.00  0.00    -0.270 OA
HETATM    8  H   UNL     1      43.428 -13.872   5.427  1.00  0.00     0.190 HD
BRANCH   6   9
HETATM    9  C   UNL     1      41.383 -14.921   4.514  1.00  0.00     0.197 C 
BRANCH   9  10
HETATM   10  N   UNL     1      42.758 -15.258   4.115  1.00  0.00    -0.282 NA
HETATM   11  H   UNL     1      43.482 -14.849   4.710  1.00  0.00     0.128 HD
BRANCH  10  12
HETATM   12  C   UNL     1      43.108 -16.594   3.832  1.00  0.00     0.042 A 
HETATM   13  C   UNL     1      43.951 -17.278   4.742  1.00  0.00     0.089 A 
HETATM   14  C   UNL     1      44.373 -18.586   4.477  1.00  0.00     0.038 A 
HETATM   15  C   UNL     1      44.001 -19.215   3.289  1.00  0.00     0.003 A 
HETATM   16  C   UNL     1      43.214 -18.539   2.365  1.00  0.00     0.002 A 
HETATM   17  C   UNL     1      42.782 -17.237   2.629  1.00  0.00     0.026 A 
BRANCH  13  18
HETATM   18  O   UNL     1      44.273 -16.583   5.887  1.00  0.00    -0.354 OA
HETATM   19  C   UNL     1      43.709 -17.080   7.095  1.00  0.00     0.210 C 
ENDBRANCH  13  18
ENDBRANCH  10  12
ENDBRANCH   9  10
ENDBRANCH   6   9
ENDBRANCH   1   5
BRANCH   2  20
HETATM   20  C   UNL     1      44.168 -10.818   7.851  1.00  0.00     0.070 A 
HETATM   21  C   UNL     1      43.248 -10.042   8.528  1.00  0.00     0.137 A 
HETATM   22  N   UNL     1      43.934  -9.339   9.494  1.00  0.00    -0.244 N 
HETATM   23  N   UNL     1      45.251  -9.679   9.505  1.00  0.00    -0.179 NA
HETATM   24  C   UNL     1      45.381 -10.556   8.512  1.00  0.00     0.157 A 
BRANCH  22  25
HETATM   25  C   UNL     1      43.436  -8.352  10.389  1.00  0.00     0.059 A 
HETATM   26  C   UNL     1      43.360  -8.594  11.767  1.00  0.00     0.055 A 
HETATM   27  C   UNL     1      42.841  -7.611  12.611  1.00  0.00     0.036 A 
HETATM   28 CL   UNL     1      42.720  -7.916  14.302  1.00  0.00    -0.084 Cl
HETATM   29  C   UNL     1      42.410  -6.385  12.103  1.00  0.00     0.024 A 
HETATM   30  C   UNL     1      42.490  -6.138  10.735  1.00  0.00     0.004 A 
HETATM   31  C   UNL     1      42.995  -7.119   9.879  1.00  0.00     0.031 A 
ENDBRANCH  22  25
ENDBRANCH   2  20
TORSDOF 7
ENDMDL
MODEL 7
REMARK VINA RESULT:      -8.1      7.760     11.211
REMARK  7 active torsions:
REMARK  status: ('A' for Active; 'I' for Inactive)
REMARK    1  A    between atoms: O_2  and  C_3 
REMARK    2  A    between atoms: C_4  and  N_5 
REMARK    3  A    between atoms: N_5  and  C_6 
REMARK    4  A    between atoms: C_6  and  C_7 
REMARK       I    between atoms: C_7  and  N_8 
REMARK    5  A    between atoms: N_8  and  N_9 
REMARK       I    between atoms: N_9  and  C_10 
REMARK    6  A    between atoms: C_10  and  C_11 
REMARK    7  A    between atoms: N_13  and  C_14 
ROOT
HETATM    1  N   UNL     1      43.125 -13.226   6.996  1.00  0.00    -0.263 N 
HETATM    2  C   UNL     1      44.072 -12.212   7.008  1.00  0.00     0.273 C 
HETATM    3  O   UNL     1      45.209 -12.304   6.559  1.00  0.00    -0.266 OA
HETATM    4  H   UNL     1      42.374 -13.182   7.678  1.00  0.00     0.190 HD
ENDROOT
BRANCH   1   5
HETATM    5  N   UNL     1      43.520 -14.520   6.623  1.00  0.00    -0.266 N 
HETATM    6  C   UNL     1      43.407 -15.547   7.556  1.00  0.00     0.249 C 
HETATM    7  O   UNL     1      43.190 -15.384   8.753  1.00  0.00    -0.270 OA
HETATM    8  H   UNL     1      43.351 -14.797   5.654  1.00  0.00     0.190 HD
BRANCH   6   9
HETATM    9  C   UNL     1      43.559 -16.923   6.902  1.00  0.00     0.197 C 
BRANCH   9  10
HETATM   10  N   UNL     1      44.407 -16.816   5.705  1.00  0.00    -0.282 NA
HETATM   11  H   UNL     1      45.405 -16.947   5.881  1.00  0.00     0.128 HD
BRANCH  10  12
HETATM   12  C   UNL     1      44.062 -17.508   4.526  1.00  0.00     0.042 A 
HETATM   13  C   UNL     1      43.355 -16.811   3.517  1.00  0.00     0.089 A 
HETATM   14  C   UNL     1      42.940 -17.470   2.353  1.00  0.00     0.038 A 
HETATM   15  C   UNL     1      43.184 -18.833   2.195  1.00  0.00     0.003 A 
HETATM   16  C   UNL     1      43.835 -19.541   3.198  1.00  0.00     0.002 A 
HETATM   17  C   UNL     1      44.259 -18.886   4.357  1.00  0.00     0.026 A 
BRANCH  13  18
HETATM   18  O   UNL     1      43.153 -15.469   3.755  1.00  0.00    -0.354 OA
HETATM   19  C   UNL     1      41.863 -14.966   3.423  1.00  0.00     0.210 C 
ENDBRANCH  13  18
ENDBRANCH  10  12
ENDBRANCH   9  10
ENDBRANCH   6   9
ENDBRANCH   1   5
BRANCH   2  20
HETATM   20  C   UNL     1      43.579 -10.997   7.629  1.00  0.00     0.070 A 
HETATM   21  C   UNL     1      43.728 -10.621   8.949  1.00  0.00     0.137 A 
HETATM   22  N   UNL     1      43.090  -9.410   9.107  1.00  0.00    -0.244 N 
HETATM   23  N   UNL     1      42.588  -8.963   7.925  1.00  0.00    -0.179 NA
HETATM   24  C   UNL     1      42.877  -9.924   7.051  1.00  0.00     0.157 A 
BRANCH  22  25
HETATM   25  C   UNL     1      42.902  -8.661  10.301  1.00  0.00     0.059 A 
HETATM   26  C   UNL     1      42.019  -7.573  10.345  1.00  0.00     0.055 A 
HETATM   27  C   UNL     1      41.881  -6.846  11.529  1.00  0.00     0.036 A 
HETATM   28 CL   UNL     1      40.817  -5.492  11.577  1.00  0.00    -0.084 Cl
HETATM   29  C   UNL     1      42.600  -7.194  12.672  1.00  0.00     0.024 A 
HETATM   30  C   UNL     1      43.474  -8.278  12.634  1.00  0.00     0.004 A 
HETATM   31  C   UNL     1      43.630  -9.006  11.453  1.00  0.00     0.031 A 
ENDBRANCH  22  25
ENDBRANCH   2  20
TORSDOF 7
ENDMDL
MODEL 8
REMARK VINA RESULT:      -7.7      6.145      8.003
REMARK  7 active torsions:
REMARK  status: ('A' for Active; 'I' for Inactive)
REMARK    1  A    between atoms: O_2  and  C_3 
REMARK    2  A    between atoms: C_4  and  N_5 
REMARK    3  A    between atoms: N_5  and  C_6 
REMARK    4  A    between atoms: C_6  and  C_7 
REMARK       I    between atoms: C_7  and  N_8 
REMARK    5  A    between atoms: N_8  and  N_9 
REMARK       I    between atoms: N_9  and  C_10 
REMARK    6  A    between atoms: C_10  and  C_11 
REMARK    7  A    between atoms: N_13  and  C_14 
ROOT
HETATM    1  N   UNL     1      42.689 -11.973   4.970  1.00  0.00    -0.263 N 
HETATM    2  C   UNL     1      42.715 -12.072   3.586  1.00  0.00     0.273 C 
HETATM    3  O   UNL     1      42.691 -11.124   2.810  1.00  0.00    -0.266 OA
HETATM    4  H   UNL     1      42.362 -12.776   5.498  1.00  0.00     0.190 HD
ENDROOT
BRANCH   1   5
HETATM    5  N   UNL     1      42.427 -10.725   5.556  1.00  0.00    -0.266 N 
HETATM    6  C   UNL     1      41.279 -10.580   6.330  1.00  0.00     0.249 C 
HETATM    7  O   UNL     1      40.358 -11.390   6.375  1.00  0.00    -0.270 OA
HETATM    8  H   UNL     1      43.232 -10.181   5.872  1.00  0.00     0.190 HD
BRANCH   6   9
HETATM    9  C   UNL     1      41.313  -9.288   7.152  1.00  0.00     0.197 C 
BRANCH   9  10
HETATM   10  N   UNL     1      41.563  -9.603   8.567  1.00  0.00    -0.282 NA
HETATM   11  H   UNL     1      41.108 -10.458   8.897  1.00  0.00     0.128 HD
BRANCH  10  12
HETATM   12  C   UNL     1      42.874  -9.563   9.082  1.00  0.00     0.042 A 
HETATM   13  C   UNL     1      43.057  -9.731  10.477  1.00  0.00     0.089 A 
HETATM   14  C   UNL     1      44.334  -9.642  11.044  1.00  0.00     0.038 A 
HETATM   15  C   UNL     1      45.437  -9.343  10.245  1.00  0.00     0.003 A 
HETATM   16  C   UNL     1      45.266  -9.129   8.882  1.00  0.00     0.002 A 
HETATM   17  C   UNL     1      43.996  -9.226   8.310  1.00  0.00     0.026 A 
BRANCH  13  18
HETATM   18  O   UNL     1      41.916 -10.019  11.192  1.00  0.00    -0.354 OA
HETATM   19  C   UNL     1      41.843  -9.457  12.498  1.00  0.00     0.210 C 
ENDBRANCH  13  18
ENDBRANCH  10  12
ENDBRANCH   9  10
ENDBRANCH   6   9
ENDBRANCH   1   5
BRANCH   2  20
HETATM   20  C   UNL     1      42.766 -13.448   3.128  1.00  0.00     0.070 A 
HETATM   21  C   UNL     1      43.117 -14.557   3.871  1.00  0.00     0.137 A 
HETATM   22  N   UNL     1      43.049 -15.651   3.037  1.00  0.00    -0.244 N 
HETATM   23  N   UNL     1      42.607 -15.297   1.801  1.00  0.00    -0.179 NA
HETATM   24  C   UNL     1      42.452 -13.977   1.863  1.00  0.00     0.157 A 
BRANCH  22  25
HETATM   25  C   UNL     1      43.394 -17.002   3.322  1.00  0.00     0.059 A 
HETATM   26  C   UNL     1      43.273 -18.002   2.348  1.00  0.00     0.055 A 
HETATM   27  C   UNL     1      43.597 -19.321   2.673  1.00  0.00     0.036 A 
HETATM   28 CL   UNL     1      43.424 -20.558   1.486  1.00  0.00    -0.084 Cl
HETATM   29  C   UNL     1      44.052 -19.654   3.949  1.00  0.00     0.024 A 
HETATM   30  C   UNL     1      44.178 -18.661   4.918  1.00  0.00     0.004 A 
HETATM   31  C   UNL     1      43.845 -17.341   4.608  1.00  0.00     0.031 A 
ENDBRANCH  22  25
ENDBRANCH   2  20
TORSDOF 7
ENDMDL
MODEL 9
REMARK VINA RESULT:      -7.4      8.287     10.627
REMARK  7 active torsions:
REMARK  status: ('A' for Active; 'I' for Inactive)
REMARK    1  A    between atoms: O_2  and  C_3 
REMARK    2  A    between atoms: C_4  and  N_5 
REMARK    3  A    between atoms: N_5  and  C_6 
REMARK    4  A    between atoms: C_6  and  C_7 
REMARK       I    between atoms: C_7  and  N_8 
REMARK    5  A    between atoms: N_8  and  N_9 
REMARK       I    between atoms: N_9  and  C_10 
REMARK    6  A    between atoms: C_10  and  C_11 
REMARK    7  A    between atoms: N_13  and  C_14 
ROOT
HETATM    1  N   UNL     1      43.481 -12.081   7.921  1.00  0.00    -0.263 N 
HETATM    2  C   UNL     1      44.195 -12.299   6.751  1.00  0.00     0.273 C 
HETATM    3  O   UNL     1      45.246 -11.744   6.451  1.00  0.00    -0.266 OA
HETATM    4  H   UNL     1      42.490 -12.300   7.920  1.00  0.00     0.190 HD
ENDROOT
BRANCH   1   5
HETATM    5  N   UNL     1      43.860 -11.020   8.759  1.00  0.00    -0.266 N 
HETATM    6  C   UNL     1      43.096  -9.857   8.747  1.00  0.00     0.249 C 
HETATM    7  O   UNL     1      42.238  -9.591   7.909  1.00  0.00    -0.270 OA
HETATM    8  H   UNL     1      44.260 -11.264   9.666  1.00  0.00     0.190 HD
BRANCH   6   9
HETATM    9  C   UNL     1      43.434  -8.947   9.931  1.00  0.00     0.197 C 
BRANCH   9  10
HETATM   10  N   UNL     1      42.205  -8.599  10.661  1.00  0.00    -0.282 NA
HETATM   11  H   UNL     1      41.388  -9.156  10.401  1.00  0.00     0.128 HD
BRANCH  10  12
HETATM   12  C   UNL     1      42.228  -8.458  12.063  1.00  0.00     0.042 A 
HETATM   13  C   UNL     1      41.242  -9.132  12.825  1.00  0.00     0.089 A 
HETATM   14  C   UNL     1      41.188  -8.977  14.215  1.00  0.00     0.038 A 
HETATM   15  C   UNL     1      42.079  -8.121  14.861  1.00  0.00     0.003 A 
HETATM   16  C   UNL     1      43.021  -7.417  14.121  1.00  0.00     0.002 A 
HETATM   17  C   UNL     1      43.086  -7.575  12.734  1.00  0.00     0.026 A 
BRANCH  13  18
HETATM   18  O   UNL     1      40.400  -9.953  12.108  1.00  0.00    -0.354 OA
HETATM   19  C   UNL     1      39.480 -10.721  12.876  1.00  0.00     0.210 C 
ENDBRANCH  13  18
ENDBRANCH  10  12
ENDBRANCH   9  10
ENDBRANCH   6   9
ENDBRANCH   1   5
BRANCH   2  20
HETATM   20  C   UNL     1      43.556 -13.270   5.882  1.00  0.00     0.070 A 
HETATM   21  C   UNL     1      42.994 -13.031   4.644  1.00  0.00     0.137 A 
HETATM   22  N   UNL     1      42.486 -14.226   4.184  1.00  0.00    -0.244 N 
HETATM   23  N   UNL     1      42.754 -15.238   5.052  1.00  0.00    -0.179 NA
HETATM   24  C   UNL     1      43.384 -14.653   6.068  1.00  0.00     0.157 A 
BRANCH  22  25
HETATM   25  C   UNL     1      41.746 -14.472   2.995  1.00  0.00     0.059 A 
HETATM   26  C   UNL     1      41.725 -13.542   1.947  1.00  0.00     0.055 A 
HETATM   27  C   UNL     1      40.966 -13.808   0.805  1.00  0.00     0.036 A 
HETATM   28 CL   UNL     1      40.916 -12.654  -0.472  1.00  0.00    -0.084 Cl
HETATM   29  C   UNL     1      40.239 -14.992   0.688  1.00  0.00     0.024 A 
HETATM   30  C   UNL     1      40.262 -15.922   1.725  1.00  0.00     0.004 A 
HETATM   31  C   UNL     1      41.007 -15.662   2.877  1.00  0.00     0.031 A 
ENDBRANCH  22  25
ENDBRANCH   2  20
TORSDOF 7
ENDMDL
MODEL 10
REMARK VINA RESULT:      -7.4      8.728     11.351
REMARK  7 active torsions:
REMARK  status: ('A' for Active; 'I' for Inactive)
REMARK    1  A    between atoms: O_2  and  C_3 
REMARK    2  A    between atoms: C_4  and  N_5 
REMARK    3  A    between atoms: N_5  and  C_6 
REMARK    4  A    between atoms: C_6  and  C_7 
REMARK       I    between atoms: C_7  and  N_8 
REMARK    5  A    between atoms: N_8  and  N_9 
REMARK       I    between atoms: N_9  and  C_10 
REMARK    6  A    between atoms: C_10  and  C_11 
REMARK    7  A    between atoms: N_13  and  C_14 
ROOT
HETATM    1  N   UNL     1      41.482 -10.664   7.264  1.00  0.00    -0.263 N 
HETATM    2  C   UNL     1      42.780 -10.206   7.441  1.00  0.00     0.273 C 
HETATM    3  O   UNL     1      43.751 -10.567   6.785  1.00  0.00    -0.266 OA
HETATM    4  H   UNL     1      40.841 -10.588   8.048  1.00  0.00     0.190 HD
ENDROOT
BRANCH   1   5
HETATM    5  N   UNL     1      41.258 -11.755   6.410  1.00  0.00    -0.266 N 
HETATM    6  C   UNL     1      39.945 -12.116   6.120  1.00  0.00     0.249 C 
HETATM    7  O   UNL     1      38.956 -11.696   6.715  1.00  0.00    -0.270 OA
HETATM    8  H   UNL     1      41.921 -11.892   5.646  1.00  0.00     0.190 HD
BRANCH   6   9
HETATM    9  C   UNL     1      39.874 -13.087   4.939  1.00  0.00     0.197 C 
BRANCH   9  10
HETATM   10  N   UNL     1      40.071 -14.466   5.414  1.00  0.00    -0.282 NA
HETATM   11  H   UNL     1      39.206 -14.999   5.529  1.00  0.00     0.128 HD
BRANCH  10  12
HETATM   12  C   UNL     1      41.035 -15.295   4.808  1.00  0.00     0.042 A 
HETATM   13  C   UNL     1      42.334 -15.342   5.372  1.00  0.00     0.089 A 
HETATM   14  C   UNL     1      43.343 -16.106   4.773  1.00  0.00     0.038 A 
HETATM   15  C   UNL     1      43.090 -16.797   3.589  1.00  0.00     0.003 A 
HETATM   16  C   UNL     1      41.834 -16.723   2.999  1.00  0.00     0.002 A 
HETATM   17  C   UNL     1      40.821 -15.969   3.597  1.00  0.00     0.026 A 
BRANCH  13  18
HETATM   18  O   UNL     1      42.499 -14.628   6.538  1.00  0.00    -0.354 OA
HETATM   19  C   UNL     1      42.907 -15.381   7.675  1.00  0.00     0.210 C 
ENDBRANCH  13  18
ENDBRANCH  10  12
ENDBRANCH   9  10
ENDBRANCH   6   9
ENDBRANCH   1   5
BRANCH   2  20
HETATM   20  C   UNL     1      42.887  -9.236   8.515  1.00  0.00     0.070 A 
HETATM   21  C   UNL     1      42.415  -9.373   9.805  1.00  0.00     0.137 A 
HETATM   22  N   UNL     1      42.714  -8.210  10.479  1.00  0.00    -0.244 N 
HETATM   23  N   UNL     1      43.415  -7.352   9.689  1.00  0.00    -0.179 NA
HETATM   24  C   UNL     1      43.503  -7.972   8.514  1.00  0.00     0.157 A 
BRANCH  22  25
HETATM   25  C   UNL     1      42.364  -7.843  11.808  1.00  0.00     0.059 A 
HETATM   26  C   UNL     1      41.060  -7.445  12.131  1.00  0.00     0.055 A 
HETATM   27  C   UNL     1      40.760  -7.068  13.442  1.00  0.00     0.036 A 
HETATM   28 CL   UNL     1      39.165  -6.551  13.836  1.00  0.00    -0.084 Cl
HETATM   29  C   UNL     1      41.738  -7.096  14.437  1.00  0.00     0.024 A 
HETATM   30  C   UNL     1      43.033  -7.497  14.120  1.00  0.00     0.004 A 
HETATM   31  C   UNL     1      43.348  -7.864  12.811  1.00  0.00     0.031 A 
ENDBRANCH  22  25
ENDBRANCH   2  20
TORSDOF 7
ENDMDL
