MODEL 1
REMARK VINA RESULT:      -8.8      0.000      0.000
REMARK  5 active torsions:
REMARK  status: ('A' for Active; 'I' for Inactive)
REMARK    1  A    between atoms: C_4  and  C_5 
REMARK    2  A    between atoms: C_5  and  N_6 
REMARK    3  A    between atoms: C_9  and  N_10 
REMARK       I    between atoms: N_10  and  C_11 
REMARK       I    between atoms: C_11  and  N_12 
REMARK    4  A    between atoms: N_12  and  N_13 
REMARK       I    between atoms: N_13  and  C_14 
REMARK    5  A    between atoms: C_14  and  C_15 
ROOT
HETATM    1  N   UNL     1      41.718 -12.905   4.189  1.00  0.00    -0.336 N 
HETATM    2  C   UNL     1      41.905 -12.603   5.517  1.00  0.00     0.335 C 
HETATM    3  N   UNL     1      42.007 -11.253   5.737  1.00  0.00    -0.249 N 
HETATM    4  O   UNL     1      41.953 -13.456   6.397  1.00  0.00    -0.246 OA
HETATM    5  H   UNL     1      41.272 -12.151   3.676  1.00  0.00     0.164 HD
HETATM    6  H   UNL     1      42.333 -10.631   4.999  1.00  0.00     0.192 HD
ENDROOT
BRANCH   1   7
HETATM    7  C   UNL     1      41.387 -14.268   3.784  1.00  0.00     0.112 C 
HETATM    8  C   UNL     1      42.568 -15.016   3.112  1.00  0.00     0.260 C 
HETATM    9  N   UNL     1      42.128 -16.402   2.674  1.00  0.00    -0.065 N 
HETATM   10  H   UNL     1      41.781 -16.873   3.518  1.00  0.00     0.280 HD
HETATM   11  C   UNL     1      40.988 -16.345   1.694  1.00  0.00     0.235 C 
HETATM   12  C   UNL     1      39.807 -15.645   2.352  1.00  0.00     0.030 C 
HETATM   13  C   UNL     1      40.176 -14.247   2.841  1.00  0.00     0.028 C 
BRANCH   9  14
HETATM   14  C   UNL     1      43.283 -17.276   2.219  1.00  0.00     0.273 C 
BRANCH  14  15
HETATM   15  C   UNL     1      43.552 -18.500   3.052  1.00  0.00    -0.033 A 
HETATM   16  C   UNL     1      43.797 -18.384   4.429  1.00  0.00     0.009 A 
HETATM   17  C   UNL     1      44.061 -19.517   5.199  1.00  0.00     0.001 A 
HETATM   18  C   UNL     1      44.079 -20.776   4.606  1.00  0.00     0.000 A 
HETATM   19  C   UNL     1      43.827 -20.907   3.242  1.00  0.00     0.001 A 
HETATM   20  C   UNL     1      43.562 -19.776   2.468  1.00  0.00     0.009 A 
ENDBRANCH  14  15
ENDBRANCH   9  14
ENDBRANCH   1   7
BRANCH   3  21
HETATM   21  N   UNL     1      42.316 -10.820   7.034  1.00  0.00    -0.261 N 
HETATM   22  C   UNL     1      43.643 -10.595   7.362  1.00  0.00     0.277 C 
HETATM   23  O   UNL     1      44.528 -10.808   6.532  1.00  0.00    -0.265 OA
HETATM   24  H   UNL     1      41.552 -10.665   7.688  1.00  0.00     0.190 HD
BRANCH  22  25
HETATM   25  C   UNL     1      43.903 -10.106   8.706  1.00  0.00     0.075 A 
HETATM   26  S   UNL     1      42.696  -9.337   9.655  1.00  0.00    -0.077 SA
HETATM   27  C   UNL     1      43.764  -9.125  10.951  1.00  0.00     0.052 A 
HETATM   28 BR   UNL     1      43.269  -8.306  12.560  1.00  0.00    -0.043 Br
HETATM   29  C   UNL     1      45.022  -9.611  10.703  1.00  0.00     0.028 A 
HETATM   30  C   UNL     1      45.100 -10.185   9.399  1.00  0.00     0.026 A 
ENDBRANCH  22  25
ENDBRANCH   3  21
TORSDOF 5
ENDMDL
MODEL 2
REMARK VINA RESULT:      -8.6      5.623      7.788
REMARK  5 active torsions:
REMARK  status: ('A' for Active; 'I' for Inactive)
REMARK    1  A    between atoms: C_4  and  C_5 
REMARK    2  A    between atoms: C_5  and  N_6 
REMARK    3  A    between atoms: C_9  and  N_10 
REMARK       I    between atoms: N_10  and  C_11 
REMARK       I    between atoms: C_11  and  N_12 
REMARK    4  A    between atoms: N_12  and  N_13 
REMARK       I    between atoms: N_13  and  C_14 
REMARK    5  A    between atoms: C_14  and  C_15 
ROOT
HETATM    1  N   UNL     1      40.183 -15.011   3.626  1.00  0.00    -0.336 N 
HETATM    2  C   UNL     1      40.282 -13.969   2.734  1.00  0.00     0.335 C 
HETATM    3  N   UNL     1      39.156 -13.833   1.962  1.00  0.00    -0.249 N 
HETATM    4  O   UNL     1      41.265 -13.241   2.663  1.00  0.00    -0.246 OA
HETATM    5  H   UNL     1      39.222 -15.220   3.877  1.00  0.00     0.164 HD
HETATM    6  H   UNL     1      38.552 -14.634   1.780  1.00  0.00     0.192 HD
ENDROOT
BRANCH   1   7
HETATM    7  C   UNL     1      41.193 -15.187   4.665  1.00  0.00     0.112 C 
HETATM    8  C   UNL     1      42.293 -16.214   4.288  1.00  0.00     0.260 C 
HETATM    9  N   UNL     1      43.270 -16.378   5.439  1.00  0.00    -0.065 N 
HETATM   10  H   UNL     1      43.644 -15.442   5.635  1.00  0.00     0.280 HD
HETATM   11  C   UNL     1      42.589 -16.858   6.690  1.00  0.00     0.235 C 
HETATM   12  C   UNL     1      41.529 -15.843   7.094  1.00  0.00     0.030 C 
HETATM   13  C   UNL     1      40.516 -15.604   5.978  1.00  0.00     0.028 C 
BRANCH   9  14
HETATM   14  C   UNL     1      44.499 -17.188   5.063  1.00  0.00     0.273 C 
BRANCH  14  15
HETATM   15  C   UNL     1      44.239 -18.517   4.409  1.00  0.00    -0.033 A 
HETATM   16  C   UNL     1      44.089 -18.609   3.016  1.00  0.00     0.009 A 
HETATM   17  C   UNL     1      43.833 -19.840   2.411  1.00  0.00     0.001 A 
HETATM   18  C   UNL     1      43.726 -20.991   3.187  1.00  0.00     0.000 A 
HETATM   19  C   UNL     1      43.883 -20.916   4.569  1.00  0.00     0.001 A 
HETATM   20  C   UNL     1      44.140 -19.687   5.179  1.00  0.00     0.009 A 
ENDBRANCH  14  15
ENDBRANCH   9  14
ENDBRANCH   1   7
BRANCH   3  21
HETATM   21  N   UNL     1      39.175 -12.882   0.933  1.00  0.00    -0.261 N 
HETATM   22  C   UNL     1      39.458 -13.300  -0.356  1.00  0.00     0.277 C 
HETATM   23  O   UNL     1      39.720 -14.485  -0.576  1.00  0.00    -0.265 OA
HETATM   24  H   UNL     1      38.960 -11.914   1.164  1.00  0.00     0.190 HD
BRANCH  22  25
HETATM   25  C   UNL     1      39.423 -12.280  -1.391  1.00  0.00     0.075 A 
HETATM   26  S   UNL     1      40.828 -11.432  -1.894  1.00  0.00    -0.077 SA
HETATM   27  C   UNL     1      39.951 -10.533  -3.030  1.00  0.00     0.052 A 
HETATM   28 BR   UNL     1      40.737  -9.248  -4.142  1.00  0.00    -0.043 Br
HETATM   29  C   UNL     1      38.615 -10.840  -3.051  1.00  0.00     0.028 A 
HETATM   30  C   UNL     1      38.310 -11.859  -2.101  1.00  0.00     0.026 A 
ENDBRANCH  22  25
ENDBRANCH   3  21
TORSDOF 5
ENDMDL
MODEL 3
REMARK VINA RESULT:      -8.4      4.088     10.343
REMARK  5 active torsions:
REMARK  status: ('A' for Active; 'I' for Inactive)
REMARK    1  A    between atoms: C_4  and  C_5 
REMARK    2  A    between atoms: C_5  and  N_6 
REMARK    3  A    between atoms: C_9  and  N_10 
REMARK       I    between atoms: N_10  and  C_11 
REMARK       I    between atoms: C_11  and  N_12 
REMARK    4  A    between atoms: N_12  and  N_13 
REMARK       I    between atoms: N_13  and  C_14 
REMARK    5  A    between atoms: C_14  and  C_15 
ROOT
HETATM    1  N   UNL     1      43.085 -11.869   6.776  1.00  0.00    -0.336 N 
HETATM    2  C   UNL     1      43.356 -13.178   6.453  1.00  0.00     0.335 C 
HETATM    3  N   UNL     1      42.618 -13.617   5.383  1.00  0.00    -0.249 N 
HETATM    4  O   UNL     1      44.183 -13.858   7.052  1.00  0.00    -0.246 OA
HETATM    5  H   UNL     1      42.753 -11.333   5.981  1.00  0.00     0.164 HD
HETATM    6  H   UNL     1      41.719 -13.190   5.163  1.00  0.00     0.192 HD
ENDROOT
BRANCH   1   7
HETATM    7  C   UNL     1      43.912 -11.167   7.752  1.00  0.00     0.112 C 
HETATM    8  C   UNL     1      43.236  -9.898   8.333  1.00  0.00     0.260 C 
HETATM    9  N   UNL     1      44.179  -9.197   9.295  1.00  0.00    -0.065 N 
HETATM   10  H   UNL     1      44.421  -9.890  10.014  1.00  0.00     0.280 HD
HETATM   11  C   UNL     1      45.459  -8.782   8.625  1.00  0.00     0.235 C 
HETATM   12  C   UNL     1      46.154 -10.022   8.079  1.00  0.00     0.030 C 
HETATM   13  C   UNL     1      45.260 -10.797   7.116  1.00  0.00     0.028 C 
BRANCH   9  14
HETATM   14  C   UNL     1      43.509  -8.081  10.078  1.00  0.00     0.273 C 
BRANCH  14  15
HETATM   15  C   UNL     1      43.086  -8.422  11.481  1.00  0.00    -0.033 A 
HETATM   16  C   UNL     1      42.631  -9.713  11.795  1.00  0.00     0.009 A 
HETATM   17  C   UNL     1      42.226 -10.024  13.093  1.00  0.00     0.001 A 
HETATM   18  C   UNL     1      42.272  -9.054  14.091  1.00  0.00     0.000 A 
HETATM   19  C   UNL     1      42.730  -7.773  13.796  1.00  0.00     0.001 A 
HETATM   20  C   UNL     1      43.138  -7.457  12.499  1.00  0.00     0.009 A 
ENDBRANCH  14  15
ENDBRANCH   9  14
ENDBRANCH   1   7
BRANCH   3  21
HETATM   21  N   UNL     1      42.716 -14.969   5.026  1.00  0.00    -0.261 N 
HETATM   22  C   UNL     1      43.079 -15.291   3.729  1.00  0.00     0.277 C 
HETATM   23  O   UNL     1      43.279 -14.396   2.905  1.00  0.00    -0.265 OA
HETATM   24  H   UNL     1      42.533 -15.672   5.739  1.00  0.00     0.190 HD
BRANCH  22  25
HETATM   25  C   UNL     1      43.207 -16.707   3.425  1.00  0.00     0.075 A 
HETATM   26  S   UNL     1      43.792 -17.844   4.570  1.00  0.00    -0.077 SA
HETATM   27  C   UNL     1      43.613 -19.125   3.477  1.00  0.00     0.052 A 
HETATM   28 BR   UNL     1      44.040 -20.898   3.903  1.00  0.00    -0.043 Br
HETATM   29  C   UNL     1      43.126 -18.735   2.257  1.00  0.00     0.028 A 
HETATM   30  C   UNL     1      42.887 -17.329   2.228  1.00  0.00     0.026 A 
ENDBRANCH  22  25
ENDBRANCH   3  21
TORSDOF 5
ENDMDL
MODEL 4
REMARK VINA RESULT:      -7.9      2.060      3.117
REMARK  5 active torsions:
REMARK  status: ('A' for Active; 'I' for Inactive)
REMARK    1  A    between atoms: C_4  and  C_5 
REMARK    2  A    between atoms: C_5  and  N_6 
REMARK    3  A    between atoms: C_9  and  N_10 
REMARK       I    between atoms: N_10  and  C_11 
REMARK       I    between atoms: C_11  and  N_12 
REMARK    4  A    between atoms: N_12  and  N_13 
REMARK       I    between atoms: N_13  and  C_14 
REMARK    5  A    between atoms: C_14  and  C_15 
ROOT
HETATM    1  N   UNL     1      43.734 -11.539   6.136  1.00  0.00    -0.336 N 
HETATM    2  C   UNL     1      43.129 -10.804   7.128  1.00  0.00     0.335 C 
HETATM    3  N   UNL     1      44.036 -10.239   7.989  1.00  0.00    -0.249 N 
HETATM    4  O   UNL     1      41.914 -10.663   7.210  1.00  0.00    -0.246 OA
HETATM    5  H   UNL     1      44.675 -11.218   5.932  1.00  0.00     0.164 HD
HETATM    6  H   UNL     1      44.955 -10.660   8.123  1.00  0.00     0.192 HD
ENDROOT
BRANCH   1   7
HETATM    7  C   UNL     1      42.949 -12.046   5.016  1.00  0.00     0.112 C 
HETATM    8  C   UNL     1      42.603 -13.554   5.137  1.00  0.00     0.260 C 
HETATM    9  N   UNL     1      41.836 -14.015   3.911  1.00  0.00    -0.065 N 
HETATM   10  H   UNL     1      41.004 -13.414   3.850  1.00  0.00     0.280 HD
HETATM   11  C   UNL     1      42.625 -13.815   2.647  1.00  0.00     0.235 C 
HETATM   12  C   UNL     1      42.942 -12.333   2.493  1.00  0.00     0.030 C 
HETATM   13  C   UNL     1      43.698 -11.786   3.701  1.00  0.00     0.028 C 
BRANCH   9  14
HETATM   14  C   UNL     1      41.263 -15.413   4.059  1.00  0.00     0.273 C 
BRANCH  14  15
HETATM   15  C   UNL     1      42.209 -16.547   3.770  1.00  0.00    -0.033 A 
HETATM   16  C   UNL     1      43.158 -16.944   4.725  1.00  0.00     0.009 A 
HETATM   17  C   UNL     1      44.045 -17.986   4.451  1.00  0.00     0.001 A 
HETATM   18  C   UNL     1      43.992 -18.644   3.225  1.00  0.00     0.000 A 
HETATM   19  C   UNL     1      43.049 -18.267   2.272  1.00  0.00     0.001 A 
HETATM   20  C   UNL     1      42.159 -17.226   2.542  1.00  0.00     0.009 A 
ENDBRANCH  14  15
ENDBRANCH   9  14
ENDBRANCH   1   7
BRANCH   3  21
HETATM   21  N   UNL     1      43.544  -9.561   9.112  1.00  0.00    -0.261 N 
HETATM   22  C   UNL     1      43.820 -10.069  10.370  1.00  0.00     0.277 C 
HETATM   23  O   UNL     1      44.459 -11.117  10.485  1.00  0.00    -0.265 OA
HETATM   24  H   UNL     1      43.014  -8.704   8.967  1.00  0.00     0.190 HD
BRANCH  22  25
HETATM   25  C   UNL     1      43.322  -9.304  11.502  1.00  0.00     0.075 A 
HETATM   26  S   UNL     1      42.362 -10.010  12.738  1.00  0.00    -0.077 SA
HETATM   27  C   UNL     1      42.250  -8.541  13.572  1.00  0.00     0.052 A 
HETATM   28 BR   UNL     1      41.313  -8.349  15.182  1.00  0.00    -0.043 Br
HETATM   29  C   UNL     1      42.911  -7.512  12.952  1.00  0.00     0.028 A 
HETATM   30  C   UNL     1      43.537  -7.958  11.750  1.00  0.00     0.026 A 
ENDBRANCH  22  25
ENDBRANCH   3  21
TORSDOF 5
ENDMDL
MODEL 5
REMARK VINA RESULT:      -7.5      4.067     10.469
REMARK  5 active torsions:
REMARK  status: ('A' for Active; 'I' for Inactive)
REMARK    1  A    between atoms: C_4  and  C_5 
REMARK    2  A    between atoms: C_5  and  N_6 
REMARK    3  A    between atoms: C_9  and  N_10 
REMARK       I    between atoms: N_10  and  C_11 
REMARK       I    between atoms: C_11  and  N_12 
REMARK    4  A    between atoms: N_12  and  N_13 
REMARK       I    between atoms: N_13  and  C_14 
REMARK    5  A    between atoms: C_14  and  C_15 
ROOT
HETATM    1  N   UNL     1      41.806 -10.523   7.126  1.00  0.00    -0.336 N 
HETATM    2  C   UNL     1      42.417 -11.554   6.452  1.00  0.00     0.335 C 
HETATM    3  N   UNL     1      41.530 -12.292   5.709  1.00  0.00    -0.249 N 
HETATM    4  O   UNL     1      43.624 -11.765   6.503  1.00  0.00    -0.246 OA
HETATM    5  H   UNL     1      40.957 -10.207   6.669  1.00  0.00     0.164 HD
HETATM    6  H   UNL     1      40.546 -12.336   5.971  1.00  0.00     0.192 HD
ENDROOT
BRANCH   1   7
HETATM    7  C   UNL     1      42.610  -9.511   7.805  1.00  0.00     0.112 C 
HETATM    8  C   UNL     1      42.882  -9.838   9.296  1.00  0.00     0.260 C 
HETATM    9  N   UNL     1      43.674  -8.715   9.942  1.00  0.00    -0.065 N 
HETATM   10  H   UNL     1      44.534  -8.615   9.388  1.00  0.00     0.280 HD
HETATM   11  C   UNL     1      42.944  -7.402   9.874  1.00  0.00     0.235 C 
HETATM   12  C   UNL     1      42.701  -7.048   8.413  1.00  0.00     0.030 C 
HETATM   13  C   UNL     1      41.925  -8.142   7.685  1.00  0.00     0.028 C 
BRANCH   9  14
HETATM   14  C   UNL     1      44.176  -9.064  11.332  1.00  0.00     0.273 C 
BRANCH  14  15
HETATM   15  C   UNL     1      43.236  -8.763  12.467  1.00  0.00    -0.033 A 
HETATM   16  C   UNL     1      42.142  -9.602  12.729  1.00  0.00     0.009 A 
HETATM   17  C   UNL     1      41.262  -9.314  13.773  1.00  0.00     0.001 A 
HETATM   18  C   UNL     1      41.466  -8.190  14.568  1.00  0.00     0.000 A 
HETATM   19  C   UNL     1      42.554  -7.354  14.327  1.00  0.00     0.001 A 
HETATM   20  C   UNL     1      43.437  -7.638  13.284  1.00  0.00     0.009 A 
ENDBRANCH  14  15
ENDBRANCH   9  14
ENDBRANCH   1   7
BRANCH   3  21
HETATM   21  N   UNL     1      42.007 -13.442   5.067  1.00  0.00    -0.261 N 
HETATM   22  C   UNL     1      41.733 -13.615   3.720  1.00  0.00     0.277 C 
HETATM   23  O   UNL     1      41.054 -12.782   3.118  1.00  0.00    -0.265 OA
HETATM   24  H   UNL     1      42.557 -14.106   5.607  1.00  0.00     0.190 HD
BRANCH  22  25
HETATM   25  C   UNL     1      42.287 -14.804   3.094  1.00  0.00     0.075 A 
HETATM   26  S   UNL     1      42.222 -16.350   3.838  1.00  0.00    -0.077 SA
HETATM   27  C   UNL     1      43.016 -17.078   2.531  1.00  0.00     0.052 A 
HETATM   28 BR   UNL     1      43.405 -18.908   2.463  1.00  0.00    -0.043 Br
HETATM   29  C   UNL     1      43.343 -16.196   1.534  1.00  0.00     0.028 A 
HETATM   30  C   UNL     1      42.916 -14.874   1.861  1.00  0.00     0.026 A 
ENDBRANCH  22  25
ENDBRANCH   3  21
TORSDOF 5
ENDMDL
MODEL 6
REMARK VINA RESULT:      -7.4      5.139     10.589
REMARK  5 active torsions:
REMARK  status: ('A' for Active; 'I' for Inactive)
REMARK    1  A    between atoms: C_4  and  C_5 
REMARK    2  A    between atoms: C_5  and  N_6 
REMARK    3  A    between atoms: C_9  and  N_10 
REMARK       I    between atoms: N_10  and  C_11 
REMARK       I    between atoms: C_11  and  N_12 
REMARK    4  A    between atoms: N_12  and  N_13 
REMARK       I    between atoms: N_13  and  C_14 
REMARK    5  A    between atoms: C_14  and  C_15 
ROOT
HETATM    1  N   UNL     1      44.174 -10.944   6.260  1.00  0.00    -0.336 N 
HETATM    2  C   UNL     1      43.386 -11.851   5.591  1.00  0.00     0.335 C 
HETATM    3  N   UNL     1      43.687 -11.920   4.254  1.00  0.00    -0.249 N 
HETATM    4  O   UNL     1      42.528 -12.529   6.145  1.00  0.00    -0.246 OA
HETATM    5  H   UNL     1      45.074 -10.805   5.812  1.00  0.00     0.164 HD
HETATM    6  H   UNL     1      44.106 -11.123   3.775  1.00  0.00     0.192 HD
ENDROOT
BRANCH   1   7
HETATM    7  C   UNL     1      44.141 -10.877   7.717  1.00  0.00     0.112 C 
HETATM    8  C   UNL     1      43.041  -9.930   8.266  1.00  0.00     0.260 C 
HETATM    9  N   UNL     1      43.108  -9.875   9.782  1.00  0.00    -0.065 N 
HETATM   10  H   UNL     1      43.007 -10.843  10.110  1.00  0.00     0.280 HD
HETATM   11  C   UNL     1      44.441  -9.376  10.267  1.00  0.00     0.235 C 
HETATM   12  C   UNL     1      45.530 -10.316   9.766  1.00  0.00     0.030 C 
HETATM   13  C   UNL     1      45.516 -10.443   8.246  1.00  0.00     0.028 C 
BRANCH   9  14
HETATM   14  C   UNL     1      41.924  -9.155  10.403  1.00  0.00     0.273 C 
BRANCH  14  15
HETATM   15  C   UNL     1      42.118  -8.658  11.810  1.00  0.00    -0.033 A 
HETATM   16  C   UNL     1      41.983  -9.533  12.900  1.00  0.00     0.009 A 
HETATM   17  C   UNL     1      42.150  -9.068  14.205  1.00  0.00     0.001 A 
HETATM   18  C   UNL     1      42.455  -7.730  14.437  1.00  0.00     0.000 A 
HETATM   19  C   UNL     1      42.602  -6.854  13.364  1.00  0.00     0.001 A 
HETATM   20  C   UNL     1      42.437  -7.313  12.057  1.00  0.00     0.009 A 
ENDBRANCH  14  15
ENDBRANCH   9  14
ENDBRANCH   1   7
BRANCH   3  21
HETATM   21  N   UNL     1      42.878 -12.721   3.437  1.00  0.00    -0.261 N 
HETATM   22  C   UNL     1      42.290 -12.153   2.319  1.00  0.00     0.277 C 
HETATM   23  O   UNL     1      42.457 -10.956   2.077  1.00  0.00    -0.265 OA
HETATM   24  H   UNL     1      42.763 -13.702   3.683  1.00  0.00     0.190 HD
BRANCH  22  25
HETATM   25  C   UNL     1      41.495 -13.039   1.485  1.00  0.00     0.075 A 
HETATM   26  S   UNL     1      40.832 -12.537  -0.017  1.00  0.00    -0.077 SA
HETATM   27  C   UNL     1      40.136 -14.057  -0.285  1.00  0.00     0.052 A 
HETATM   28 BR   UNL     1      39.137 -14.467  -1.815  1.00  0.00    -0.043 Br
HETATM   29  C   UNL     1      40.377 -14.951   0.725  1.00  0.00     0.028 A 
HETATM   30  C   UNL     1      41.171 -14.359   1.752  1.00  0.00     0.026 A 
ENDBRANCH  22  25
ENDBRANCH   3  21
TORSDOF 5
ENDMDL
MODEL 7
REMARK VINA RESULT:      -7.4      5.440      7.842
REMARK  5 active torsions:
REMARK  status: ('A' for Active; 'I' for Inactive)
REMARK    1  A    between atoms: C_4  and  C_5 
REMARK    2  A    between atoms: C_5  and  N_6 
REMARK    3  A    between atoms: C_9  and  N_10 
REMARK       I    between atoms: N_10  and  C_11 
REMARK       I    between atoms: C_11  and  N_12 
REMARK    4  A    between atoms: N_12  and  N_13 
REMARK       I    between atoms: N_13  and  C_14 
REMARK    5  A    between atoms: C_14  and  C_15 
ROOT
HETATM    1  N   UNL     1      40.689 -14.471   3.739  1.00  0.00    -0.336 N 
HETATM    2  C   UNL     1      40.607 -13.899   2.491  1.00  0.00     0.335 C 
HETATM    3  N   UNL     1      39.317 -13.593   2.139  1.00  0.00    -0.249 N 
HETATM    4  O   UNL     1      41.589 -13.677   1.791  1.00  0.00    -0.246 OA
HETATM    5  H   UNL     1      39.923 -14.195   4.345  1.00  0.00     0.164 HD
HETATM    6  H   UNL     1      38.534 -14.107   2.542  1.00  0.00     0.192 HD
ENDROOT
BRANCH   1   7
HETATM    7  C   UNL     1      41.990 -14.679   4.368  1.00  0.00     0.112 C 
HETATM    8  C   UNL     1      42.165 -16.100   4.966  1.00  0.00     0.260 C 
HETATM    9  N   UNL     1      43.517 -16.217   5.646  1.00  0.00    -0.065 N 
HETATM   10  H   UNL     1      44.219 -15.992   4.930  1.00  0.00     0.280 HD
HETATM   11  C   UNL     1      43.676 -15.217   6.757  1.00  0.00     0.235 C 
HETATM   12  C   UNL     1      43.542 -13.814   6.180  1.00  0.00     0.030 C 
HETATM   13  C   UNL     1      42.212 -13.621   5.458  1.00  0.00     0.028 C 
BRANCH   9  14
HETATM   14  C   UNL     1      43.857 -17.641   6.052  1.00  0.00     0.273 C 
BRANCH  14  15
HETATM   15  C   UNL     1      43.845 -18.662   4.947  1.00  0.00    -0.033 A 
HETATM   16  C   UNL     1      43.907 -20.033   5.243  1.00  0.00     0.009 A 
HETATM   17  C   UNL     1      43.910 -20.979   4.218  1.00  0.00     0.001 A 
HETATM   18  C   UNL     1      43.848 -20.570   2.889  1.00  0.00     0.000 A 
HETATM   19  C   UNL     1      43.776 -19.213   2.581  1.00  0.00     0.001 A 
HETATM   20  C   UNL     1      43.772 -18.263   3.603  1.00  0.00     0.009 A 
ENDBRANCH  14  15
ENDBRANCH   9  14
ENDBRANCH   1   7
BRANCH   3  21
HETATM   21  N   UNL     1      39.084 -13.113   0.844  1.00  0.00    -0.261 N 
HETATM   22  C   UNL     1      38.438 -11.898   0.690  1.00  0.00     0.277 C 
HETATM   23  O   UNL     1      38.051 -11.276   1.681  1.00  0.00    -0.265 OA
HETATM   24  H   UNL     1      39.415 -13.666   0.056  1.00  0.00     0.190 HD
BRANCH  22  25
HETATM   25  C   UNL     1      38.260 -11.427  -0.674  1.00  0.00     0.075 A 
HETATM   26  S   UNL     1      37.041 -10.298  -1.105  1.00  0.00    -0.077 SA
HETATM   27  C   UNL     1      37.522 -10.308  -2.728  1.00  0.00     0.052 A 
HETATM   28 BR   UNL     1      36.684  -9.278  -4.048  1.00  0.00    -0.043 Br
HETATM   29  C   UNL     1      38.581 -11.143  -2.976  1.00  0.00     0.028 A 
HETATM   30  C   UNL     1      39.012 -11.790  -1.780  1.00  0.00     0.026 A 
ENDBRANCH  22  25
ENDBRANCH   3  21
TORSDOF 5
ENDMDL
MODEL 8
REMARK VINA RESULT:      -7.2      4.145      9.427
REMARK  5 active torsions:
REMARK  status: ('A' for Active; 'I' for Inactive)
REMARK    1  A    between atoms: C_4  and  C_5 
REMARK    2  A    between atoms: C_5  and  N_6 
REMARK    3  A    between atoms: C_9  and  N_10 
REMARK       I    between atoms: N_10  and  C_11 
REMARK       I    between atoms: C_11  and  N_12 
REMARK    4  A    between atoms: N_12  and  N_13 
REMARK       I    between atoms: N_13  and  C_14 
REMARK    5  A    between atoms: C_14  and  C_15 
ROOT
HETATM    1  N   UNL     1      39.327 -11.035   6.101  1.00  0.00    -0.336 N 
HETATM    2  C   UNL     1      40.212 -12.029   5.756  1.00  0.00     0.335 C 
HETATM    3  N   UNL     1      39.579 -13.164   5.315  1.00  0.00    -0.249 N 
HETATM    4  O   UNL     1      41.429 -11.894   5.822  1.00  0.00    -0.246 OA
HETATM    5  H   UNL     1      38.445 -11.108   5.603  1.00  0.00     0.164 HD
HETATM    6  H   UNL     1      38.629 -13.378   5.617  1.00  0.00     0.192 HD
ENDROOT
BRANCH   1   7
HETATM    7  C   UNL     1      39.811  -9.691   6.400  1.00  0.00     0.112 C 
HETATM    8  C   UNL     1      40.295  -9.521   7.864  1.00  0.00     0.260 C 
HETATM    9  N   UNL     1      40.730  -8.087   8.107  1.00  0.00    -0.065 N 
HETATM   10  H   UNL     1      41.463  -7.888   7.415  1.00  0.00     0.280 HD
HETATM   11  C   UNL     1      39.611  -7.112   7.866  1.00  0.00     0.235 C 
HETATM   12  C   UNL     1      39.148  -7.241   6.421  1.00  0.00     0.030 C 
HETATM   13  C   UNL     1      38.712  -8.665   6.090  1.00  0.00     0.028 C 
BRANCH   9  14
HETATM   14  C   UNL     1      41.430  -7.896   9.441  1.00  0.00     0.273 C 
BRANCH  14  15
HETATM   15  C   UNL     1      42.837  -8.423   9.528  1.00  0.00    -0.033 A 
HETATM   16  C   UNL     1      43.232  -9.224  10.611  1.00  0.00     0.009 A 
HETATM   17  C   UNL     1      44.541  -9.700  10.699  1.00  0.00     0.001 A 
HETATM   18  C   UNL     1      45.467  -9.386   9.709  1.00  0.00     0.000 A 
HETATM   19  C   UNL     1      45.086  -8.601   8.623  1.00  0.00     0.001 A 
HETATM   20  C   UNL     1      43.778  -8.122   8.531  1.00  0.00     0.009 A 
ENDBRANCH  14  15
ENDBRANCH   9  14
ENDBRANCH   1   7
BRANCH   3  21
HETATM   21  N   UNL     1      40.364 -14.292   5.043  1.00  0.00    -0.261 N 
HETATM   22  C   UNL     1      40.649 -14.602   3.723  1.00  0.00     0.277 C 
HETATM   23  O   UNL     1      40.187 -13.910   2.814  1.00  0.00    -0.265 OA
HETATM   24  H   UNL     1      40.716 -14.838   5.826  1.00  0.00     0.190 HD
BRANCH  22  25
HETATM   25  C   UNL     1      41.503 -15.758   3.500  1.00  0.00     0.075 A 
HETATM   26  S   UNL     1      42.590 -16.342   4.692  1.00  0.00    -0.077 SA
HETATM   27  C   UNL     1      43.117 -17.595   3.683  1.00  0.00     0.052 A 
HETATM   28 BR   UNL     1      44.409 -18.848   4.200  1.00  0.00    -0.043 Br
HETATM   29  C   UNL     1      42.505 -17.598   2.456  1.00  0.00     0.028 A 
HETATM   30  C   UNL     1      41.564 -16.532   2.352  1.00  0.00     0.026 A 
ENDBRANCH  22  25
ENDBRANCH   3  21
TORSDOF 5
ENDMDL
MODEL 9
REMARK VINA RESULT:      -7.2      4.538     10.221
REMARK  5 active torsions:
REMARK  status: ('A' for Active; 'I' for Inactive)
REMARK    1  A    between atoms: C_4  and  C_5 
REMARK    2  A    between atoms: C_5  and  N_6 
REMARK    3  A    between atoms: C_9  and  N_10 
REMARK       I    between atoms: N_10  and  C_11 
REMARK       I    between atoms: C_11  and  N_12 
REMARK    4  A    between atoms: N_12  and  N_13 
REMARK       I    between atoms: N_13  and  C_14 
REMARK    5  A    between atoms: C_14  and  C_15 
ROOT
HETATM    1  N   UNL     1      39.128 -11.243   6.355  1.00  0.00    -0.336 N 
HETATM    2  C   UNL     1      40.010 -12.173   5.856  1.00  0.00     0.335 C 
HETATM    3  N   UNL     1      39.429 -12.997   4.925  1.00  0.00    -0.249 N 
HETATM    4  O   UNL     1      41.185 -12.234   6.200  1.00  0.00    -0.246 OA
HETATM    5  H   UNL     1      38.382 -11.025   5.704  1.00  0.00     0.164 HD
HETATM    6  H   UNL     1      38.425 -13.170   4.941  1.00  0.00     0.192 HD
ENDROOT
BRANCH   1   7
HETATM    7  C   UNL     1      39.609 -10.156   7.202  1.00  0.00     0.112 C 
HETATM    8  C   UNL     1      39.279 -10.353   8.705  1.00  0.00     0.260 C 
HETATM    9  N   UNL     1      39.763  -9.158   9.507  1.00  0.00    -0.065 N 
HETATM   10  H   UNL     1      40.771  -9.078   9.323  1.00  0.00     0.280 HD
HETATM   11  C   UNL     1      39.122  -7.878   9.050  1.00  0.00     0.235 C 
HETATM   12  C   UNL     1      39.466  -7.651   7.584  1.00  0.00     0.030 C 
HETATM   13  C   UNL     1      39.029  -8.823   6.710  1.00  0.00     0.028 C 
BRANCH   9  14
HETATM   14  C   UNL     1      39.685  -9.379  11.008  1.00  0.00     0.273 C 
BRANCH  14  15
HETATM   15  C   UNL     1      40.863  -8.893  11.808  1.00  0.00    -0.033 A 
HETATM   16  C   UNL     1      42.103  -8.671  11.188  1.00  0.00     0.009 A 
HETATM   17  C   UNL     1      43.199  -8.234  11.932  1.00  0.00     0.001 A 
HETATM   18  C   UNL     1      43.070  -8.011  13.300  1.00  0.00     0.000 A 
HETATM   19  C   UNL     1      41.843  -8.217  13.927  1.00  0.00     0.001 A 
HETATM   20  C   UNL     1      40.744  -8.654  13.186  1.00  0.00     0.009 A 
ENDBRANCH  14  15
ENDBRANCH   9  14
ENDBRANCH   1   7
BRANCH   3  21
HETATM   21  N   UNL     1      40.189 -14.063   4.425  1.00  0.00    -0.261 N 
HETATM   22  C   UNL     1      40.919 -13.873   3.264  1.00  0.00     0.277 C 
HETATM   23  O   UNL     1      40.867 -12.793   2.673  1.00  0.00    -0.265 OA
HETATM   24  H   UNL     1      40.194 -14.939   4.943  1.00  0.00     0.190 HD
BRANCH  22  25
HETATM   25  C   UNL     1      41.722 -14.998   2.813  1.00  0.00     0.075 A 
HETATM   26  S   UNL     1      41.809 -16.474   3.684  1.00  0.00    -0.077 SA
HETATM   27  C   UNL     1      42.857 -17.156   2.543  1.00  0.00     0.052 A 
HETATM   28 BR   UNL     1      43.531 -18.897   2.686  1.00  0.00    -0.043 Br
HETATM   29  C   UNL     1      43.162 -16.307   1.510  1.00  0.00     0.028 A 
HETATM   30  C   UNL     1      42.498 -15.054   1.666  1.00  0.00     0.026 A 
ENDBRANCH  22  25
ENDBRANCH   3  21
TORSDOF 5
ENDMDL
MODEL 10
REMARK VINA RESULT:      -7.1     16.642     18.080
REMARK  5 active torsions:
REMARK  status: ('A' for Active; 'I' for Inactive)
REMARK    1  A    between atoms: C_4  and  C_5 
REMARK    2  A    between atoms: C_5  and  N_6 
REMARK    3  A    between atoms: C_9  and  N_10 
REMARK       I    between atoms: N_10  and  C_11 
REMARK       I    between atoms: C_11  and  N_12 
REMARK    4  A    between atoms: N_12  and  N_13 
REMARK       I    between atoms: N_13  and  C_14 
REMARK    5  A    between atoms: C_14  and  C_15 
ROOT
HETATM    1  N   UNL     1      46.002 -28.318   2.171  1.00  0.00    -0.336 N 
HETATM    2  C   UNL     1      45.105 -29.318   2.465  1.00  0.00     0.335 C 
HETATM    3  N   UNL     1      43.946 -28.836   3.018  1.00  0.00    -0.249 N 
HETATM    4  O   UNL     1      45.325 -30.502   2.234  1.00  0.00    -0.246 OA
HETATM    5  H   UNL     1      45.548 -27.426   1.998  1.00  0.00     0.164 HD
HETATM    6  H   UNL     1      43.942 -27.952   3.525  1.00  0.00     0.192 HD
ENDROOT
BRANCH   1   7
HETATM    7  C   UNL     1      47.203 -28.612   1.396  1.00  0.00     0.112 C 
HETATM    8  C   UNL     1      46.903 -29.079  -0.053  1.00  0.00     0.260 C 
HETATM    9  N   UNL     1      48.197 -29.415  -0.772  1.00  0.00    -0.065 N 
HETATM   10  H   UNL     1      48.776 -28.567  -0.734  1.00  0.00     0.280 HD
HETATM   11  C   UNL     1      48.959 -30.508  -0.075  1.00  0.00     0.235 C 
HETATM   12  C   UNL     1      49.294 -30.051   1.339  1.00  0.00     0.030 C 
HETATM   13  C   UNL     1      48.041 -29.672   2.124  1.00  0.00     0.028 C 
BRANCH   9  14
HETATM   14  C   UNL     1      48.005 -29.657  -2.259  1.00  0.00     0.273 C 
BRANCH  14  15
HETATM   15  C   UNL     1      46.588 -29.591  -2.760  1.00  0.00    -0.033 A 
HETATM   16  C   UNL     1      45.837 -30.764  -2.931  1.00  0.00     0.009 A 
HETATM   17  C   UNL     1      44.527 -30.703  -3.409  1.00  0.00     0.001 A 
HETATM   18  C   UNL     1      43.953 -29.474  -3.719  1.00  0.00     0.000 A 
HETATM   19  C   UNL     1      44.684 -28.301  -3.545  1.00  0.00     0.001 A 
HETATM   20  C   UNL     1      45.994 -28.356  -3.066  1.00  0.00     0.009 A 
ENDBRANCH  14  15
ENDBRANCH   9  14
ENDBRANCH   1   7
BRANCH   3  21
HETATM   21  N   UNL     1      42.998 -29.763   3.470  1.00  0.00    -0.261 N 
HETATM   22  C   UNL     1      41.913 -30.056   2.661  1.00  0.00     0.277 C 
HETATM   23  O   UNL     1      41.779 -29.480   1.579  1.00  0.00    -0.265 OA
HETATM   24  H   UNL     1      43.147 -30.207   4.374  1.00  0.00     0.190 HD
BRANCH  22  25
HETATM   25  C   UNL     1      40.983 -31.055   3.160  1.00  0.00     0.075 A 
HETATM   26  S   UNL     1      40.661 -31.256   4.834  1.00  0.00    -0.077 SA
HETATM   27  C   UNL     1      39.562 -32.509   4.533  1.00  0.00     0.052 A 
HETATM   28 BR   UNL     1      38.636 -33.404   5.892  1.00  0.00    -0.043 Br
HETATM   29  C   UNL     1      39.421 -32.799   3.201  1.00  0.00     0.028 A 
HETATM   30  C   UNL     1      40.244 -31.951   2.403  1.00  0.00     0.026 A 
ENDBRANCH  22  25
ENDBRANCH   3  21
TORSDOF 5
ENDMDL
