MODEL 1
REMARK VINA RESULT:      -8.5      0.000      0.000
REMARK  5 active torsions:
REMARK  status: ('A' for Active; 'I' for Inactive)
REMARK    1  A    between atoms: C_5  and  C_6 
REMARK    2  A    between atoms: C_6  and  N_7 
REMARK       I    between atoms: N_7  and  C_8 
REMARK       I    between atoms: C_8  and  N_9 
REMARK    3  A    between atoms: N_9  and  C_10 
REMARK    4  A    between atoms: C_10  and  C_11 
REMARK    5  A    between atoms: N_14  and  C_15 
ROOT
HETATM    1  N   UNL     1      43.235 -14.796   4.879  1.00  0.00    -0.339 N 
HETATM    2  C   UNL     1      42.067 -14.122   4.663  1.00  0.00     0.316 C 
HETATM    3  N   UNL     1      42.278 -12.862   4.181  1.00  0.00    -0.339 N 
HETATM    4  O   UNL     1      40.960 -14.587   4.898  1.00  0.00    -0.247 OA
HETATM    5  H   UNL     1      44.115 -14.338   4.704  1.00  0.00     0.164 HD
HETATM    6  H   UNL     1      43.169 -12.648   3.764  1.00  0.00     0.164 HD
ENDROOT
BRANCH   3   7
HETATM    7  C   UNL     1      41.171 -11.997   3.847  1.00  0.00     0.165 C 
BRANCH   7   8
HETATM    8  C   UNL     1      41.001 -11.891   2.360  1.00  0.00    -0.016 A 
HETATM    9  C   UNL     1      40.240 -12.746   1.568  1.00  0.00     0.021 A 
HETATM   10  C   UNL     1      39.541 -13.997   1.999  1.00  0.00     0.069 C 
HETATM   11  N   UNL     1      40.265 -12.288   0.251  1.00  0.00    -0.319 N 
HETATM   12  C   UNL     1      41.095 -11.172   0.203  1.00  0.00     0.014 A 
HETATM   13  C   UNL     1      41.328 -10.335  -1.008  1.00  0.00     0.068 C 
HETATM   14  C   UNL     1      41.543 -10.918   1.485  1.00  0.00     0.035 A 
BRANCH  11  15
HETATM   15  C   UNL     1      39.542 -12.843  -0.847  1.00  0.00     0.039 A 
HETATM   16  C   UNL     1      40.119 -13.857  -1.623  1.00  0.00     0.030 A 
HETATM   17  C   UNL     1      39.409 -14.409  -2.692  1.00  0.00     0.002 A 
HETATM   18  C   UNL     1      38.127 -13.951  -2.990  1.00  0.00     0.000 A 
HETATM   19  C   UNL     1      37.549 -12.943  -2.220  1.00  0.00     0.002 A 
HETATM   20  C   UNL     1      38.254 -12.389  -1.147  1.00  0.00     0.030 A 
ENDBRANCH  11  15
ENDBRANCH   7   8
ENDBRANCH   3   7
BRANCH   1  21
HETATM   21  C   UNL     1      43.259 -16.097   5.511  1.00  0.00     0.162 C 
BRANCH  21  22
HETATM   22  C   UNL     1      43.442 -17.225   4.528  1.00  0.00    -0.040 A 
HETATM   23  C   UNL     1      44.010 -18.437   4.947  1.00  0.00     0.009 A 
HETATM   24  C   UNL     1      44.107 -19.522   4.070  1.00  0.00     0.007 A 
HETATM   25  C   UNL     1      43.635 -19.418   2.758  1.00  0.00    -0.062 A 
HETATM   26  C   UNL     1      43.699 -20.586   1.819  1.00  0.00     0.048 C 
HETATM   27  C   UNL     1      43.063 -18.213   2.337  1.00  0.00     0.007 A 
HETATM   28  C   UNL     1      42.961 -17.131   3.214  1.00  0.00     0.009 A 
ENDBRANCH  21  22
ENDBRANCH   1  21
TORSDOF 5
ENDMDL
MODEL 2
REMARK VINA RESULT:      -8.4      4.491      8.482
REMARK  5 active torsions:
REMARK  status: ('A' for Active; 'I' for Inactive)
REMARK    1  A    between atoms: C_5  and  C_6 
REMARK    2  A    between atoms: C_6  and  N_7 
REMARK       I    between atoms: N_7  and  C_8 
REMARK       I    between atoms: C_8  and  N_9 
REMARK    3  A    between atoms: N_9  and  C_10 
REMARK    4  A    between atoms: C_10  and  C_11 
REMARK    5  A    between atoms: N_14  and  C_15 
ROOT
HETATM    1  N   UNL     1      44.232 -10.862   6.643  1.00  0.00    -0.339 N 
HETATM    2  C   UNL     1      43.636 -12.082   6.788  1.00  0.00     0.316 C 
HETATM    3  N   UNL     1      42.581 -12.247   5.935  1.00  0.00    -0.339 N 
HETATM    4  O   UNL     1      43.991 -12.921   7.604  1.00  0.00    -0.247 OA
HETATM    5  H   UNL     1      43.862 -10.201   5.979  1.00  0.00     0.164 HD
HETATM    6  H   UNL     1      42.516 -11.649   5.128  1.00  0.00     0.164 HD
ENDROOT
BRANCH   3   7
HETATM    7  C   UNL     1      41.838 -13.485   5.900  1.00  0.00     0.165 C 
BRANCH   7   8
HETATM    8  C   UNL     1      42.395 -14.416   4.864  1.00  0.00    -0.016 A 
HETATM    9  C   UNL     1      42.601 -15.783   5.028  1.00  0.00     0.021 A 
HETATM   10  C   UNL     1      42.430 -16.579   6.283  1.00  0.00     0.069 C 
HETATM   11  N   UNL     1      43.061 -16.321   3.827  1.00  0.00    -0.319 N 
HETATM   12  C   UNL     1      43.202 -15.276   2.918  1.00  0.00     0.014 A 
HETATM   13  C   UNL     1      43.596 -15.438   1.489  1.00  0.00     0.068 C 
HETATM   14  C   UNL     1      42.792 -14.112   3.538  1.00  0.00     0.035 A 
BRANCH  11  15
HETATM   15  C   UNL     1      43.311 -17.701   3.563  1.00  0.00     0.039 A 
HETATM   16  C   UNL     1      44.058 -18.462   4.472  1.00  0.00     0.030 A 
HETATM   17  C   UNL     1      44.295 -19.815   4.221  1.00  0.00     0.002 A 
HETATM   18  C   UNL     1      43.791 -20.411   3.067  1.00  0.00     0.000 A 
HETATM   19  C   UNL     1      43.047 -19.657   2.160  1.00  0.00     0.002 A 
HETATM   20  C   UNL     1      42.804 -18.303   2.407  1.00  0.00     0.030 A 
ENDBRANCH  11  15
ENDBRANCH   7   8
ENDBRANCH   3   7
BRANCH   1  21
HETATM   21  C   UNL     1      45.285 -10.419   7.530  1.00  0.00     0.162 C 
BRANCH  21  22
HETATM   22  C   UNL     1      44.764  -9.685   8.740  1.00  0.00    -0.040 A 
HETATM   23  C   UNL     1      44.112  -8.452   8.588  1.00  0.00     0.009 A 
HETATM   24  C   UNL     1      43.547  -7.802   9.689  1.00  0.00     0.007 A 
HETATM   25  C   UNL     1      43.619  -8.372  10.963  1.00  0.00    -0.062 A 
HETATM   26  C   UNL     1      42.984  -7.703  12.146  1.00  0.00     0.048 C 
HETATM   27  C   UNL     1      44.263  -9.604  11.119  1.00  0.00     0.007 A 
HETATM   28  C   UNL     1      44.823 -10.257  10.019  1.00  0.00     0.009 A 
ENDBRANCH  21  22
ENDBRANCH   1  21
TORSDOF 5
ENDMDL
MODEL 3
REMARK VINA RESULT:      -8.4      6.507      9.830
REMARK  5 active torsions:
REMARK  status: ('A' for Active; 'I' for Inactive)
REMARK    1  A    between atoms: C_5  and  C_6 
REMARK    2  A    between atoms: C_6  and  N_7 
REMARK       I    between atoms: N_7  and  C_8 
REMARK       I    between atoms: C_8  and  N_9 
REMARK    3  A    between atoms: N_9  and  C_10 
REMARK    4  A    between atoms: C_10  and  C_11 
REMARK    5  A    between atoms: N_14  and  C_15 
ROOT
HETATM    1  N   UNL     1      42.831 -12.971   5.580  1.00  0.00    -0.339 N 
HETATM    2  C   UNL     1      43.661 -12.034   6.126  1.00  0.00     0.316 C 
HETATM    3  N   UNL     1      43.541 -11.966   7.485  1.00  0.00    -0.339 N 
HETATM    4  O   UNL     1      44.409 -11.322   5.471  1.00  0.00    -0.247 OA
HETATM    5  H   UNL     1      42.210 -13.495   6.175  1.00  0.00     0.164 HD
HETATM    6  H   UNL     1      43.125 -12.743   7.972  1.00  0.00     0.164 HD
ENDROOT
BRANCH   3   7
HETATM    7  C   UNL     1      44.361 -11.066   8.262  1.00  0.00     0.165 C 
BRANCH   7   8
HETATM    8  C   UNL     1      43.513 -10.159   9.104  1.00  0.00    -0.016 A 
HETATM    9  C   UNL     1      43.454 -10.164  10.495  1.00  0.00     0.021 A 
HETATM   10  C   UNL     1      44.114 -11.133  11.425  1.00  0.00     0.069 C 
HETATM   11  N   UNL     1      42.614  -9.134  10.919  1.00  0.00    -0.319 N 
HETATM   12  C   UNL     1      42.096  -8.514   9.786  1.00  0.00     0.014 A 
HETATM   13  C   UNL     1      41.215  -7.311   9.801  1.00  0.00     0.068 C 
HETATM   14  C   UNL     1      42.643  -9.127   8.675  1.00  0.00     0.035 A 
BRANCH  11  15
HETATM   15  C   UNL     1      42.358  -8.760  12.271  1.00  0.00     0.039 A 
HETATM   16  C   UNL     1      41.275  -9.322  12.960  1.00  0.00     0.030 A 
HETATM   17  C   UNL     1      41.029  -8.964  14.287  1.00  0.00     0.002 A 
HETATM   18  C   UNL     1      41.858  -8.047  14.929  1.00  0.00     0.000 A 
HETATM   19  C   UNL     1      42.937  -7.485  14.248  1.00  0.00     0.002 A 
HETATM   20  C   UNL     1      43.191  -7.842  12.920  1.00  0.00     0.030 A 
ENDBRANCH  11  15
ENDBRANCH   7   8
ENDBRANCH   3   7
BRANCH   1  21
HETATM   21  C   UNL     1      42.694 -13.125   4.149  1.00  0.00     0.162 C 
BRANCH  21  22
HETATM   22  C   UNL     1      42.899 -14.546   3.687  1.00  0.00    -0.040 A 
HETATM   23  C   UNL     1      42.733 -15.608   4.588  1.00  0.00     0.009 A 
HETATM   24  C   UNL     1      42.834 -16.934   4.156  1.00  0.00     0.007 A 
HETATM   25  C   UNL     1      43.098 -17.225   2.815  1.00  0.00    -0.062 A 
HETATM   26  C   UNL     1      43.171 -18.643   2.331  1.00  0.00     0.048 C 
HETATM   27  C   UNL     1      43.259 -16.169   1.911  1.00  0.00     0.007 A 
HETATM   28  C   UNL     1      43.153 -14.844   2.341  1.00  0.00     0.009 A 
ENDBRANCH  21  22
ENDBRANCH   1  21
TORSDOF 5
ENDMDL
MODEL 4
REMARK VINA RESULT:      -8.3      5.863      9.063
REMARK  5 active torsions:
REMARK  status: ('A' for Active; 'I' for Inactive)
REMARK    1  A    between atoms: C_5  and  C_6 
REMARK    2  A    between atoms: C_6  and  N_7 
REMARK       I    between atoms: N_7  and  C_8 
REMARK       I    between atoms: C_8  and  N_9 
REMARK    3  A    between atoms: N_9  and  C_10 
REMARK    4  A    between atoms: C_10  and  C_11 
REMARK    5  A    between atoms: N_14  and  C_15 
ROOT
HETATM    1  N   UNL     1      42.910 -10.189   9.202  1.00  0.00    -0.339 N 
HETATM    2  C   UNL     1      43.292 -10.636   7.970  1.00  0.00     0.316 C 
HETATM    3  N   UNL     1      42.245 -10.698   7.094  1.00  0.00    -0.339 N 
HETATM    4  O   UNL     1      44.436 -10.966   7.690  1.00  0.00    -0.247 OA
HETATM    5  H   UNL     1      41.942  -9.974   9.377  1.00  0.00     0.164 HD
HETATM    6  H   UNL     1      41.413 -10.169   7.299  1.00  0.00     0.164 HD
ENDROOT
BRANCH   3   7
HETATM    7  C   UNL     1      42.444 -11.108   5.724  1.00  0.00     0.165 C 
BRANCH   7   8
HETATM    8  C   UNL     1      42.093 -12.555   5.540  1.00  0.00    -0.016 A 
HETATM    9  C   UNL     1      42.556 -13.379   4.518  1.00  0.00     0.021 A 
HETATM   10  C   UNL     1      43.387 -12.979   3.340  1.00  0.00     0.069 C 
HETATM   11  N   UNL     1      42.072 -14.671   4.720  1.00  0.00    -0.319 N 
HETATM   12  C   UNL     1      41.251 -14.648   5.844  1.00  0.00     0.014 A 
HETATM   13  C   UNL     1      40.600 -15.845   6.448  1.00  0.00     0.068 C 
HETATM   14  C   UNL     1      41.263 -13.364   6.355  1.00  0.00     0.035 A 
BRANCH  11  15
HETATM   15  C   UNL     1      42.388 -15.821   3.937  1.00  0.00     0.039 A 
HETATM   16  C   UNL     1      43.486 -16.621   4.279  1.00  0.00     0.030 A 
HETATM   17  C   UNL     1      43.790 -17.753   3.520  1.00  0.00     0.002 A 
HETATM   18  C   UNL     1      43.005 -18.088   2.419  1.00  0.00     0.000 A 
HETATM   19  C   UNL     1      41.911 -17.295   2.075  1.00  0.00     0.002 A 
HETATM   20  C   UNL     1      41.599 -16.162   2.833  1.00  0.00     0.030 A 
ENDBRANCH  11  15
ENDBRANCH   7   8
ENDBRANCH   3   7
BRANCH   1  21
HETATM   21  C   UNL     1      43.825 -10.169  10.322  1.00  0.00     0.162 C 
BRANCH  21  22
HETATM   22  C   UNL     1      43.223  -9.558  11.562  1.00  0.00    -0.040 A 
HETATM   23  C   UNL     1      42.266 -10.269  12.302  1.00  0.00     0.009 A 
HETATM   24  C   UNL     1      41.763  -9.754  13.501  1.00  0.00     0.007 A 
HETATM   25  C   UNL     1      42.209  -8.521  13.986  1.00  0.00    -0.062 A 
HETATM   26  C   UNL     1      41.705  -7.977  15.290  1.00  0.00     0.048 C 
HETATM   27  C   UNL     1      43.167  -7.811  13.255  1.00  0.00     0.007 A 
HETATM   28  C   UNL     1      43.674  -8.327  12.060  1.00  0.00     0.009 A 
ENDBRANCH  21  22
ENDBRANCH   1  21
TORSDOF 5
ENDMDL
MODEL 5
REMARK VINA RESULT:      -8.1      4.826      8.149
REMARK  5 active torsions:
REMARK  status: ('A' for Active; 'I' for Inactive)
REMARK    1  A    between atoms: C_5  and  C_6 
REMARK    2  A    between atoms: C_6  and  N_7 
REMARK       I    between atoms: N_7  and  C_8 
REMARK       I    between atoms: C_8  and  N_9 
REMARK    3  A    between atoms: N_9  and  C_10 
REMARK    4  A    between atoms: C_10  and  C_11 
REMARK    5  A    between atoms: N_14  and  C_15 
ROOT
HETATM    1  N   UNL     1      42.921 -14.677   5.325  1.00  0.00    -0.339 N 
HETATM    2  C   UNL     1      43.476 -13.489   5.707  1.00  0.00     0.316 C 
HETATM    3  N   UNL     1      42.961 -12.431   5.014  1.00  0.00    -0.339 N 
HETATM    4  O   UNL     1      44.351 -13.388   6.556  1.00  0.00    -0.247 OA
HETATM    5  H   UNL     1      42.234 -14.692   4.589  1.00  0.00     0.164 HD
HETATM    6  H   UNL     1      42.078 -12.546   4.543  1.00  0.00     0.164 HD
ENDROOT
BRANCH   3   7
HETATM    7  C   UNL     1      43.385 -11.079   5.295  1.00  0.00     0.165 C 
BRANCH   7   8
HETATM    8  C   UNL     1      42.675 -10.532   6.499  1.00  0.00    -0.016 A 
HETATM    9  C   UNL     1      43.278 -10.161   7.697  1.00  0.00     0.021 A 
HETATM   10  C   UNL     1      44.713 -10.337   8.080  1.00  0.00     0.069 C 
HETATM   11  N   UNL     1      42.309  -9.633   8.550  1.00  0.00    -0.319 N 
HETATM   12  C   UNL     1      41.078  -9.727   7.906  1.00  0.00     0.014 A 
HETATM   13  C   UNL     1      39.792  -9.198   8.445  1.00  0.00     0.068 C 
HETATM   14  C   UNL     1      41.292 -10.267   6.652  1.00  0.00     0.035 A 
BRANCH  11  15
HETATM   15  C   UNL     1      42.539  -9.066   9.838  1.00  0.00     0.039 A 
HETATM   16  C   UNL     1      42.684  -9.901  10.954  1.00  0.00     0.030 A 
HETATM   17  C   UNL     1      42.921  -9.349  12.215  1.00  0.00     0.002 A 
HETATM   18  C   UNL     1      43.011  -7.967  12.367  1.00  0.00     0.000 A 
HETATM   19  C   UNL     1      42.869  -7.132  11.259  1.00  0.00     0.002 A 
HETATM   20  C   UNL     1      42.635  -7.679   9.994  1.00  0.00     0.030 A 
ENDBRANCH  11  15
ENDBRANCH   7   8
ENDBRANCH   3   7
BRANCH   1  21
HETATM   21  C   UNL     1      43.407 -15.942   5.830  1.00  0.00     0.162 C 
BRANCH  21  22
HETATM   22  C   UNL     1      43.513 -17.000   4.761  1.00  0.00    -0.040 A 
HETATM   23  C   UNL     1      44.115 -18.233   5.050  1.00  0.00     0.009 A 
HETATM   24  C   UNL     1      44.143 -19.256   4.097  1.00  0.00     0.007 A 
HETATM   25  C   UNL     1      43.566 -19.068   2.838  1.00  0.00    -0.062 A 
HETATM   26  C   UNL     1      43.556 -20.170   1.821  1.00  0.00     0.048 C 
HETATM   27  C   UNL     1      42.959 -17.842   2.547  1.00  0.00     0.007 A 
HETATM   28  C   UNL     1      42.926 -16.822   3.500  1.00  0.00     0.009 A 
ENDBRANCH  21  22
ENDBRANCH   1  21
TORSDOF 5
ENDMDL
MODEL 6
REMARK VINA RESULT:      -8.0      4.666      8.029
REMARK  5 active torsions:
REMARK  status: ('A' for Active; 'I' for Inactive)
REMARK    1  A    between atoms: C_5  and  C_6 
REMARK    2  A    between atoms: C_6  and  N_7 
REMARK       I    between atoms: N_7  and  C_8 
REMARK       I    between atoms: C_8  and  N_9 
REMARK    3  A    between atoms: N_9  and  C_10 
REMARK    4  A    between atoms: C_10  and  C_11 
REMARK    5  A    between atoms: N_14  and  C_15 
ROOT
HETATM    1  N   UNL     1      43.409 -15.004   4.973  1.00  0.00    -0.339 N 
HETATM    2  C   UNL     1      42.692 -13.984   5.531  1.00  0.00     0.316 C 
HETATM    3  N   UNL     1      42.855 -12.807   4.856  1.00  0.00    -0.339 N 
HETATM    4  O   UNL     1      42.002 -14.106   6.533  1.00  0.00    -0.247 OA
HETATM    5  H   UNL     1      43.991 -14.824   4.171  1.00  0.00     0.164 HD
HETATM    6  H   UNL     1      43.204 -12.837   3.912  1.00  0.00     0.164 HD
ENDROOT
BRANCH   3   7
HETATM    7  C   UNL     1      42.151 -11.613   5.260  1.00  0.00     0.165 C 
BRANCH   7   8
HETATM    8  C   UNL     1      42.890 -10.896   6.352  1.00  0.00    -0.016 A 
HETATM    9  C   UNL     1      42.312 -10.096   7.333  1.00  0.00     0.021 A 
HETATM   10  C   UNL     1      40.876  -9.689   7.439  1.00  0.00     0.069 C 
HETATM   11  N   UNL     1      43.306  -9.662   8.210  1.00  0.00    -0.319 N 
HETATM   12  C   UNL     1      44.526 -10.144   7.743  1.00  0.00     0.014 A 
HETATM   13  C   UNL     1      45.833  -9.971   8.440  1.00  0.00     0.068 C 
HETATM   14  C   UNL     1      44.282 -10.903   6.615  1.00  0.00     0.035 A 
BRANCH  11  15
HETATM   15  C   UNL     1      43.107  -8.891   9.393  1.00  0.00     0.039 A 
HETATM   16  C   UNL     1      43.065  -7.493   9.319  1.00  0.00     0.030 A 
HETATM   17  C   UNL     1      42.860  -6.737  10.474  1.00  0.00     0.002 A 
HETATM   18  C   UNL     1      42.697  -7.370  11.705  1.00  0.00     0.000 A 
HETATM   19  C   UNL     1      42.737  -8.761  11.784  1.00  0.00     0.002 A 
HETATM   20  C   UNL     1      42.939  -9.524  10.630  1.00  0.00     0.030 A 
ENDBRANCH  11  15
ENDBRANCH   7   8
ENDBRANCH   3   7
BRANCH   1  21
HETATM   21  C   UNL     1      43.491 -16.306   5.596  1.00  0.00     0.162 C 
BRANCH  21  22
HETATM   22  C   UNL     1      43.470 -17.437   4.599  1.00  0.00    -0.040 A 
HETATM   23  C   UNL     1      42.982 -17.221   3.302  1.00  0.00     0.009 A 
HETATM   24  C   UNL     1      43.037 -18.235   2.340  1.00  0.00     0.007 A 
HETATM   25  C   UNL     1      43.582 -19.483   2.655  1.00  0.00    -0.062 A 
HETATM   26  C   UNL     1      43.681 -20.566   1.622  1.00  0.00     0.048 C 
HETATM   27  C   UNL     1      44.075 -19.701   3.946  1.00  0.00     0.007 A 
HETATM   28  C   UNL     1      44.026 -18.687   4.906  1.00  0.00     0.009 A 
ENDBRANCH  21  22
ENDBRANCH   1  21
TORSDOF 5
ENDMDL
MODEL 7
REMARK VINA RESULT:      -8.0      4.994      8.737
REMARK  5 active torsions:
REMARK  status: ('A' for Active; 'I' for Inactive)
REMARK    1  A    between atoms: C_5  and  C_6 
REMARK    2  A    between atoms: C_6  and  N_7 
REMARK       I    between atoms: N_7  and  C_8 
REMARK       I    between atoms: C_8  and  N_9 
REMARK    3  A    between atoms: N_9  and  C_10 
REMARK    4  A    between atoms: C_10  and  C_11 
REMARK    5  A    between atoms: N_14  and  C_15 
ROOT
HETATM    1  N   UNL     1      40.285 -10.125   7.727  1.00  0.00    -0.339 N 
HETATM    2  C   UNL     1      39.575 -11.081   7.060  1.00  0.00     0.316 C 
HETATM    3  N   UNL     1      40.384 -11.964   6.404  1.00  0.00    -0.339 N 
HETATM    4  O   UNL     1      38.352 -11.127   7.035  1.00  0.00    -0.247 OA
HETATM    5  H   UNL     1      41.291 -10.121   7.671  1.00  0.00     0.164 HD
HETATM    6  H   UNL     1      41.350 -12.032   6.681  1.00  0.00     0.164 HD
ENDROOT
BRANCH   3   7
HETATM    7  C   UNL     1      39.831 -13.078   5.670  1.00  0.00     0.165 C 
BRANCH   7   8
HETATM    8  C   UNL     1      40.884 -13.751   4.840  1.00  0.00    -0.016 A 
HETATM    9  C   UNL     1      41.239 -15.095   4.914  1.00  0.00     0.021 A 
HETATM   10  C   UNL     1      40.743 -16.110   5.896  1.00  0.00     0.069 C 
HETATM   11  N   UNL     1      42.201 -15.366   3.941  1.00  0.00    -0.319 N 
HETATM   12  C   UNL     1      42.498 -14.171   3.291  1.00  0.00     0.014 A 
HETATM   13  C   UNL     1      43.422 -14.041   2.129  1.00  0.00     0.068 C 
HETATM   14  C   UNL     1      41.695 -13.183   3.827  1.00  0.00     0.035 A 
BRANCH  11  15
HETATM   15  C   UNL     1      42.759 -16.644   3.642  1.00  0.00     0.039 A 
HETATM   16  C   UNL     1      43.756 -17.183   4.465  1.00  0.00     0.030 A 
HETATM   17  C   UNL     1      44.296 -18.438   4.179  1.00  0.00     0.002 A 
HETATM   18  C   UNL     1      43.846 -19.158   3.074  1.00  0.00     0.000 A 
HETATM   19  C   UNL     1      42.853 -18.626   2.253  1.00  0.00     0.002 A 
HETATM   20  C   UNL     1      42.307 -17.371   2.535  1.00  0.00     0.030 A 
ENDBRANCH  11  15
ENDBRANCH   7   8
ENDBRANCH   3   7
BRANCH   1  21
HETATM   21  C   UNL     1      39.636  -9.011   8.382  1.00  0.00     0.162 C 
BRANCH  21  22
HETATM   22  C   UNL     1      39.903  -8.963   9.865  1.00  0.00    -0.040 A 
HETATM   23  C   UNL     1      39.462 -10.007  10.692  1.00  0.00     0.009 A 
HETATM   24  C   UNL     1      39.777 -10.021  12.054  1.00  0.00     0.007 A 
HETATM   25  C   UNL     1      40.542  -8.994  12.616  1.00  0.00    -0.062 A 
HETATM   26  C   UNL     1      40.918  -9.018  14.067  1.00  0.00     0.048 C 
HETATM   27  C   UNL     1      40.989  -7.954  11.794  1.00  0.00     0.007 A 
HETATM   28  C   UNL     1      40.679  -7.942  10.432  1.00  0.00     0.009 A 
ENDBRANCH  21  22
ENDBRANCH   1  21
TORSDOF 5
ENDMDL
MODEL 8
REMARK VINA RESULT:      -7.9      1.385      2.357
REMARK  5 active torsions:
REMARK  status: ('A' for Active; 'I' for Inactive)
REMARK    1  A    between atoms: C_5  and  C_6 
REMARK    2  A    between atoms: C_6  and  N_7 
REMARK       I    between atoms: N_7  and  C_8 
REMARK       I    between atoms: C_8  and  N_9 
REMARK    3  A    between atoms: N_9  and  C_10 
REMARK    4  A    between atoms: C_10  and  C_11 
REMARK    5  A    between atoms: N_14  and  C_15 
ROOT
HETATM    1  N   UNL     1      41.735 -15.431   5.262  1.00  0.00    -0.339 N 
HETATM    2  C   UNL     1      41.543 -14.241   4.621  1.00  0.00     0.316 C 
HETATM    3  N   UNL     1      40.219 -13.936   4.483  1.00  0.00    -0.339 N 
HETATM    4  O   UNL     1      42.453 -13.540   4.200  1.00  0.00    -0.247 OA
HETATM    5  H   UNL     1      40.939 -15.979   5.547  1.00  0.00     0.164 HD
HETATM    6  H   UNL     1      39.552 -14.402   5.075  1.00  0.00     0.164 HD
ENDROOT
BRANCH   3   7
HETATM    7  C   UNL     1      39.800 -12.698   3.867  1.00  0.00     0.165 C 
BRANCH   7   8
HETATM    8  C   UNL     1      39.701 -12.846   2.377  1.00  0.00    -0.016 A 
HETATM    9  C   UNL     1      39.560 -11.803   1.466  1.00  0.00     0.021 A 
HETATM   10  C   UNL     1      39.360 -10.353   1.775  1.00  0.00     0.069 C 
HETATM   11  N   UNL     1      39.576 -12.324   0.172  1.00  0.00    -0.319 N 
HETATM   12  C   UNL     1      39.668 -13.709   0.272  1.00  0.00     0.014 A 
HETATM   13  C   UNL     1      39.795 -14.639  -0.886  1.00  0.00     0.068 C 
HETATM   14  C   UNL     1      39.752 -14.037   1.611  1.00  0.00     0.035 A 
BRANCH  11  15
HETATM   15  C   UNL     1      39.539 -11.571  -1.039  1.00  0.00     0.039 A 
HETATM   16  C   UNL     1      38.313 -11.314  -1.665  1.00  0.00     0.030 A 
HETATM   17  C   UNL     1      38.274 -10.568  -2.845  1.00  0.00     0.002 A 
HETATM   18  C   UNL     1      39.453 -10.079  -3.403  1.00  0.00     0.000 A 
HETATM   19  C   UNL     1      40.676 -10.332  -2.782  1.00  0.00     0.002 A 
HETATM   20  C   UNL     1      40.721 -11.075  -1.600  1.00  0.00     0.030 A 
ENDBRANCH  11  15
ENDBRANCH   7   8
ENDBRANCH   3   7
BRANCH   1  21
HETATM   21  C   UNL     1      43.050 -16.017   5.403  1.00  0.00     0.162 C 
BRANCH  21  22
HETATM   22  C   UNL     1      43.300 -17.141   4.430  1.00  0.00    -0.040 A 
HETATM   23  C   UNL     1      44.007 -18.281   4.840  1.00  0.00     0.009 A 
HETATM   24  C   UNL     1      44.171 -19.369   3.976  1.00  0.00     0.007 A 
HETATM   25  C   UNL     1      43.630 -19.340   2.688  1.00  0.00    -0.062 A 
HETATM   26  C   UNL     1      43.767 -20.516   1.766  1.00  0.00     0.048 C 
HETATM   27  C   UNL     1      42.919 -18.208   2.277  1.00  0.00     0.007 A 
HETATM   28  C   UNL     1      42.750 -17.123   3.140  1.00  0.00     0.009 A 
ENDBRANCH  21  22
ENDBRANCH   1  21
TORSDOF 5
ENDMDL
MODEL 9
REMARK VINA RESULT:      -7.8      5.971      9.355
REMARK  5 active torsions:
REMARK  status: ('A' for Active; 'I' for Inactive)
REMARK    1  A    between atoms: C_5  and  C_6 
REMARK    2  A    between atoms: C_6  and  N_7 
REMARK       I    between atoms: N_7  and  C_8 
REMARK       I    between atoms: C_8  and  N_9 
REMARK    3  A    between atoms: N_9  and  C_10 
REMARK    4  A    between atoms: C_10  and  C_11 
REMARK    5  A    between atoms: N_14  and  C_15 
ROOT
HETATM    1  N   UNL     1      42.844 -12.726   4.333  1.00  0.00    -0.339 N 
HETATM    2  C   UNL     1      42.191 -11.612   4.776  1.00  0.00     0.316 C 
HETATM    3  N   UNL     1      42.516 -11.300   6.066  1.00  0.00    -0.339 N 
HETATM    4  O   UNL     1      41.390 -10.979   4.103  1.00  0.00    -0.247 OA
HETATM    5  H   UNL     1      43.460 -13.224   4.955  1.00  0.00     0.164 HD
HETATM    6  H   UNL     1      43.360 -11.686   6.457  1.00  0.00     0.164 HD
ENDROOT
BRANCH   3   7
HETATM    7  C   UNL     1      41.965 -10.132   6.712  1.00  0.00     0.165 C 
BRANCH   7   8
HETATM    8  C   UNL     1      42.672  -9.849   8.005  1.00  0.00    -0.016 A 
HETATM    9  C   UNL     1      42.083  -9.337   9.157  1.00  0.00     0.021 A 
HETATM   10  C   UNL     1      40.675  -8.855   9.316  1.00  0.00     0.069 C 
HETATM   11  N   UNL     1      43.039  -9.279  10.171  1.00  0.00    -0.319 N 
HETATM   12  C   UNL     1      44.252  -9.702   9.636  1.00  0.00     0.014 A 
HETATM   13  C   UNL     1      45.515  -9.865  10.412  1.00  0.00     0.068 C 
HETATM   14  C   UNL     1      44.038 -10.059   8.318  1.00  0.00     0.035 A 
BRANCH  11  15
HETATM   15  C   UNL     1      42.809  -8.889  11.523  1.00  0.00     0.039 A 
HETATM   16  C   UNL     1      42.375  -9.836  12.460  1.00  0.00     0.030 A 
HETATM   17  C   UNL     1      42.161  -9.459  13.788  1.00  0.00     0.002 A 
HETATM   18  C   UNL     1      42.375  -8.140  14.183  1.00  0.00     0.000 A 
HETATM   19  C   UNL     1      42.807  -7.194  13.254  1.00  0.00     0.002 A 
HETATM   20  C   UNL     1      43.027  -7.567  11.924  1.00  0.00     0.030 A 
ENDBRANCH  11  15
ENDBRANCH   7   8
ENDBRANCH   3   7
BRANCH   1  21
HETATM   21  C   UNL     1      42.555 -13.316   3.045  1.00  0.00     0.162 C 
BRANCH  21  22
HETATM   22  C   UNL     1      42.922 -14.777   2.971  1.00  0.00    -0.040 A 
HETATM   23  C   UNL     1      43.060 -15.527   4.148  1.00  0.00     0.009 A 
HETATM   24  C   UNL     1      43.313 -16.901   4.094  1.00  0.00     0.007 A 
HETATM   25  C   UNL     1      43.429 -17.553   2.863  1.00  0.00    -0.062 A 
HETATM   26  C   UNL     1      43.663 -19.033   2.792  1.00  0.00     0.048 C 
HETATM   27  C   UNL     1      43.286 -16.810   1.686  1.00  0.00     0.007 A 
HETATM   28  C   UNL     1      43.028 -15.439   1.739  1.00  0.00     0.009 A 
ENDBRANCH  21  22
ENDBRANCH   1  21
TORSDOF 5
ENDMDL
MODEL 10
REMARK VINA RESULT:      -7.6      2.492      4.139
REMARK  5 active torsions:
REMARK  status: ('A' for Active; 'I' for Inactive)
REMARK    1  A    between atoms: C_5  and  C_6 
REMARK    2  A    between atoms: C_6  and  N_7 
REMARK       I    between atoms: N_7  and  C_8 
REMARK       I    between atoms: C_8  and  N_9 
REMARK    3  A    between atoms: N_9  and  C_10 
REMARK    4  A    between atoms: C_10  and  C_11 
REMARK    5  A    between atoms: N_14  and  C_15 
ROOT
HETATM    1  N   UNL     1      42.195 -14.888   1.200  1.00  0.00    -0.339 N 
HETATM    2  C   UNL     1      40.955 -14.403   0.900  1.00  0.00     0.316 C 
HETATM    3  N   UNL     1      40.706 -14.414  -0.443  1.00  0.00    -0.339 N 
HETATM    4  O   UNL     1      40.167 -13.983   1.737  1.00  0.00    -0.247 OA
HETATM    5  H   UNL     1      42.810 -15.179   0.457  1.00  0.00     0.164 HD
HETATM    6  H   UNL     1      41.267 -15.007  -1.032  1.00  0.00     0.164 HD
ENDROOT
BRANCH   3   7
HETATM    7  C   UNL     1      39.433 -13.978  -0.968  1.00  0.00     0.165 C 
BRANCH   7   8
HETATM    8  C   UNL     1      39.431 -12.497  -1.210  1.00  0.00    -0.016 A 
HETATM    9  C   UNL     1      40.178 -11.832  -2.178  1.00  0.00     0.021 A 
HETATM   10  C   UNL     1      41.212 -12.421  -3.085  1.00  0.00     0.069 C 
HETATM   11  N   UNL     1      39.858 -10.475  -2.148  1.00  0.00    -0.319 N 
HETATM   12  C   UNL     1      38.947 -10.276  -1.114  1.00  0.00     0.014 A 
HETATM   13  C   UNL     1      38.291  -8.975  -0.797  1.00  0.00     0.068 C 
HETATM   14  C   UNL     1      38.675 -11.503  -0.541  1.00  0.00     0.035 A 
BRANCH  11  15
HETATM   15  C   UNL     1      40.349  -9.474  -3.038  1.00  0.00     0.039 A 
HETATM   16  C   UNL     1      41.497  -8.744  -2.704  1.00  0.00     0.030 A 
HETATM   17  C   UNL     1      41.985  -7.771  -3.579  1.00  0.00     0.002 A 
HETATM   18  C   UNL     1      41.331  -7.523  -4.784  1.00  0.00     0.000 A 
HETATM   19  C   UNL     1      40.189  -8.247  -5.120  1.00  0.00     0.002 A 
HETATM   20  C   UNL     1      39.697  -9.225  -4.250  1.00  0.00     0.030 A 
ENDBRANCH  11  15
ENDBRANCH   7   8
ENDBRANCH   3   7
BRANCH   1  21
HETATM   21  C   UNL     1      42.724 -14.848   2.546  1.00  0.00     0.162 C 
BRANCH  21  22
HETATM   22  C   UNL     1      43.184 -16.198   3.037  1.00  0.00    -0.040 A 
HETATM   23  C   UNL     1      43.570 -16.364   4.375  1.00  0.00     0.009 A 
HETATM   24  C   UNL     1      43.915 -17.626   4.868  1.00  0.00     0.007 A 
HETATM   25  C   UNL     1      43.877 -18.748   4.035  1.00  0.00    -0.062 A 
HETATM   26  C   UNL     1      44.208 -20.113   4.561  1.00  0.00     0.048 C 
HETATM   27  C   UNL     1      43.487 -18.588   2.701  1.00  0.00     0.007 A 
HETATM   28  C   UNL     1      43.137 -17.328   2.209  1.00  0.00     0.009 A 
ENDBRANCH  21  22
ENDBRANCH   1  21
TORSDOF 5
ENDMDL
