MODEL 1
REMARK VINA RESULT:      -8.1      0.000      0.000
REMARK  4 active torsions:
REMARK  status: ('A' for Active; 'I' for Inactive)
REMARK    1  A    between atoms: C_2  and  N_3 
REMARK    2  A    between atoms: C_2  and  C_14 
REMARK    3  A    between atoms: N_3  and  C_6 
REMARK    4  A    between atoms: C_6  and  C_7 
ROOT
HETATM    1  C   UNL     1      40.325 -15.771   3.107  1.00  0.00     0.048 C 
HETATM    2  C   UNL     1      41.177 -14.570   2.721  1.00  0.00     0.251 C 
ENDROOT
BRANCH   2   3
HETATM    3  N   UNL     1      42.626 -14.987   2.752  1.00  0.00    -0.060 N 
HETATM    4  H   UNL     1      43.259 -14.208   2.536  1.00  0.00     0.278 HD
HETATM    5  H   UNL     1      42.823 -15.265   3.729  1.00  0.00     0.278 HD
BRANCH   3   6
HETATM    6  C   UNL     1      42.969 -16.156   1.895  1.00  0.00     0.271 C 
BRANCH   6   7
HETATM    7  C   UNL     1      43.374 -17.332   2.737  1.00  0.00    -0.033 A 
HETATM    8  C   UNL     1      43.333 -18.633   2.207  1.00  0.00     0.010 A 
HETATM    9  C   UNL     1      43.675 -19.731   3.002  1.00  0.00     0.024 A 
HETATM   10  C   UNL     1      44.057 -19.538   4.327  1.00  0.00     0.034 A 
HETATM   11 CL   UNL     1      44.475 -20.889   5.303  1.00  0.00    -0.084 Cl
HETATM   12  C   UNL     1      44.099 -18.255   4.866  1.00  0.00     0.024 A 
HETATM   13  C   UNL     1      43.755 -17.154   4.076  1.00  0.00     0.010 A 
ENDBRANCH   6   7
ENDBRANCH   3   6
ENDBRANCH   2   3
BRANCH   2  14
HETATM   14  C   UNL     1      40.801 -14.093   1.312  1.00  0.00     0.138 A 
HETATM   15  N   UNL     1      40.142 -14.904   0.543  1.00  0.00    -0.232 NA
HETATM   16  C   UNL     1      39.797 -14.441  -0.745  1.00  0.00     0.074 A 
HETATM   17  C   UNL     1      40.153 -13.170  -1.209  1.00  0.00     0.061 A 
HETATM   18  C   UNL     1      39.076 -15.282  -1.594  1.00  0.00     0.032 A 
HETATM   19  C   UNL     1      40.904 -12.301  -0.289  1.00  0.00     0.259 A 
HETATM   20  C   UNL     1      39.808 -12.735  -2.490  1.00  0.00     0.019 A 
HETATM   21  O   UNL     1      41.278 -11.176  -0.590  1.00  0.00    -0.267 OA
HETATM   22  N   UNL     1      41.176 -12.832   0.948  1.00  0.00    -0.309 N 
HETATM   23  H   UNL     1      41.684 -12.202   1.556  1.00  0.00     0.170 HD
HETATM   24  C   UNL     1      39.091 -13.587  -3.327  1.00  0.00     0.001 A 
HETATM   25  C   UNL     1      38.724 -14.857  -2.880  1.00  0.00     0.002 A 
ENDBRANCH   2  14
TORSDOF 4
ENDMDL
MODEL 2
REMARK VINA RESULT:      -8.1      1.333      2.187
REMARK  4 active torsions:
REMARK  status: ('A' for Active; 'I' for Inactive)
REMARK    1  A    between atoms: C_2  and  N_3 
REMARK    2  A    between atoms: C_2  and  C_14 
REMARK    3  A    between atoms: N_3  and  C_6 
REMARK    4  A    between atoms: C_6  and  C_7 
ROOT
HETATM    1  C   UNL     1      39.860 -15.951   2.463  1.00  0.00     0.048 C 
HETATM    2  C   UNL     1      40.569 -14.607   2.364  1.00  0.00     0.251 C 
ENDROOT
BRANCH   2   3
HETATM    3  N   UNL     1      42.032 -14.820   2.663  1.00  0.00    -0.060 N 
HETATM    4  H   UNL     1      42.563 -13.942   2.642  1.00  0.00     0.278 HD
HETATM    5  H   UNL     1      42.077 -15.170   3.635  1.00  0.00     0.278 HD
BRANCH   3   6
HETATM    6  C   UNL     1      42.714 -15.831   1.808  1.00  0.00     0.271 C 
BRANCH   6   7
HETATM    7  C   UNL     1      43.191 -16.991   2.636  1.00  0.00    -0.033 A 
HETATM    8  C   UNL     1      43.263 -18.279   2.078  1.00  0.00     0.010 A 
HETATM    9  C   UNL     1      43.671 -19.365   2.858  1.00  0.00     0.024 A 
HETATM   10  C   UNL     1      44.008 -19.173   4.196  1.00  0.00     0.034 A 
HETATM   11 CL   UNL     1      44.507 -20.509   5.154  1.00  0.00    -0.084 Cl
HETATM   12  C   UNL     1      43.937 -17.902   4.762  1.00  0.00     0.024 A 
HETATM   13  C   UNL     1      43.526 -16.814   3.987  1.00  0.00     0.010 A 
ENDBRANCH   6   7
ENDBRANCH   3   6
ENDBRANCH   2   3
BRANCH   2  14
HETATM   14  C   UNL     1      40.403 -14.031   0.952  1.00  0.00     0.138 A 
HETATM   15  N   UNL     1      40.897 -12.857   0.704  1.00  0.00    -0.232 NA
HETATM   16  C   UNL     1      40.743 -12.350  -0.604  1.00  0.00     0.074 A 
HETATM   17  C   UNL     1      40.072 -13.055  -1.610  1.00  0.00     0.061 A 
HETATM   18  C   UNL     1      41.274 -11.096  -0.910  1.00  0.00     0.032 A 
HETATM   19  C   UNL     1      39.531 -14.378  -1.263  1.00  0.00     0.259 A 
HETATM   20  C   UNL     1      39.924 -12.531  -2.896  1.00  0.00     0.019 A 
HETATM   21  O   UNL     1      38.917 -15.077  -2.057  1.00  0.00    -0.267 OA
HETATM   22  N   UNL     1      39.748 -14.793   0.028  1.00  0.00    -0.309 N 
HETATM   23  H   UNL     1      39.371 -15.711   0.227  1.00  0.00     0.170 HD
HETATM   24  C   UNL     1      40.457 -11.277  -3.185  1.00  0.00     0.001 A 
HETATM   25  C   UNL     1      41.133 -10.562  -2.195  1.00  0.00     0.002 A 
ENDBRANCH   2  14
TORSDOF 4
ENDMDL
MODEL 3
REMARK VINA RESULT:      -8.0      1.824      2.503
REMARK  4 active torsions:
REMARK  status: ('A' for Active; 'I' for Inactive)
REMARK    1  A    between atoms: C_2  and  N_3 
REMARK    2  A    between atoms: C_2  and  C_14 
REMARK    3  A    between atoms: N_3  and  C_6 
REMARK    4  A    between atoms: C_6  and  C_7 
ROOT
HETATM    1  C   UNL     1      39.826 -16.035   1.502  1.00  0.00     0.048 C 
HETATM    2  C   UNL     1      40.649 -14.759   1.392  1.00  0.00     0.251 C 
ENDROOT
BRANCH   2   3
HETATM    3  N   UNL     1      42.088 -15.142   1.150  1.00  0.00    -0.060 N 
HETATM    4  H   UNL     1      42.180 -16.102   0.799  1.00  0.00     0.278 HD
HETATM    5  H   UNL     1      42.428 -14.519   0.398  1.00  0.00     0.278 HD
BRANCH   3   6
HETATM    6  C   UNL     1      43.000 -14.952   2.313  1.00  0.00     0.271 C 
BRANCH   6   7
HETATM    7  C   UNL     1      43.280 -16.264   2.988  1.00  0.00    -0.033 A 
HETATM    8  C   UNL     1      43.595 -16.305   4.357  1.00  0.00     0.010 A 
HETATM    9  C   UNL     1      43.892 -17.522   4.978  1.00  0.00     0.024 A 
HETATM   10  C   UNL     1      43.878 -18.702   4.238  1.00  0.00     0.034 A 
HETATM   11 CL   UNL     1      44.245 -20.196   5.002  1.00  0.00    -0.084 Cl
HETATM   12  C   UNL     1      43.571 -18.675   2.879  1.00  0.00     0.024 A 
HETATM   13  C   UNL     1      43.276 -17.460   2.254  1.00  0.00     0.010 A 
ENDBRANCH   6   7
ENDBRANCH   3   6
ENDBRANCH   2   3
BRANCH   2  14
HETATM   14  C   UNL     1      40.134 -13.902   0.229  1.00  0.00     0.138 A 
HETATM   15  N   UNL     1      39.313 -12.933   0.495  1.00  0.00    -0.232 NA
HETATM   16  C   UNL     1      38.859 -12.151  -0.588  1.00  0.00     0.074 A 
HETATM   17  C   UNL     1      39.248 -12.397  -1.910  1.00  0.00     0.061 A 
HETATM   18  C   UNL     1      37.985 -11.092  -0.338  1.00  0.00     0.032 A 
HETATM   19  C   UNL     1      40.177 -13.513  -2.144  1.00  0.00     0.259 A 
HETATM   20  C   UNL     1      38.781 -11.615  -2.969  1.00  0.00     0.019 A 
HETATM   21  O   UNL     1      40.575 -13.828  -3.257  1.00  0.00    -0.267 OA
HETATM   22  N   UNL     1      40.578 -14.203  -1.026  1.00  0.00    -0.309 N 
HETATM   23  H   UNL     1      41.224 -14.956  -1.225  1.00  0.00     0.170 HD
HETATM   24  C   UNL     1      37.907 -10.563  -2.703  1.00  0.00     0.001 A 
HETATM   25  C   UNL     1      37.511 -10.300  -1.390  1.00  0.00     0.002 A 
ENDBRANCH   2  14
TORSDOF 4
ENDMDL
MODEL 4
REMARK VINA RESULT:      -7.9      3.750      7.739
REMARK  4 active torsions:
REMARK  status: ('A' for Active; 'I' for Inactive)
REMARK    1  A    between atoms: C_2  and  N_3 
REMARK    2  A    between atoms: C_2  and  C_14 
REMARK    3  A    between atoms: N_3  and  C_6 
REMARK    4  A    between atoms: C_6  and  C_7 
ROOT
HETATM    1  C   UNL     1      43.564 -14.207   1.893  1.00  0.00     0.048 C 
HETATM    2  C   UNL     1      42.739 -14.552   3.125  1.00  0.00     0.251 C 
ENDROOT
BRANCH   2   3
HETATM    3  N   UNL     1      41.279 -14.493   2.749  1.00  0.00    -0.060 N 
HETATM    4  H   UNL     1      41.020 -15.230   2.083  1.00  0.00     0.278 HD
HETATM    5  H   UNL     1      40.752 -14.682   3.619  1.00  0.00     0.278 HD
BRANCH   3   6
HETATM    6  C   UNL     1      40.808 -13.176   2.237  1.00  0.00     0.271 C 
BRANCH   6   7
HETATM    7  C   UNL     1      40.125 -13.336   0.908  1.00  0.00    -0.033 A 
HETATM    8  C   UNL     1      39.324 -12.303   0.393  1.00  0.00     0.010 A 
HETATM    9  C   UNL     1      38.659 -12.466  -0.826  1.00  0.00     0.024 A 
HETATM   10  C   UNL     1      38.788 -13.658  -1.535  1.00  0.00     0.034 A 
HETATM   11 CL   UNL     1      37.969 -13.857  -3.032  1.00  0.00    -0.084 Cl
HETATM   12  C   UNL     1      39.576 -14.691  -1.034  1.00  0.00     0.024 A 
HETATM   13  C   UNL     1      40.240 -14.534   0.187  1.00  0.00     0.010 A 
ENDBRANCH   6   7
ENDBRANCH   3   6
ENDBRANCH   2   3
BRANCH   2  14
HETATM   14  C   UNL     1      43.096 -15.960   3.616  1.00  0.00     0.138 A 
HETATM   15  N   UNL     1      43.055 -16.938   2.764  1.00  0.00    -0.232 NA
HETATM   16  C   UNL     1      43.398 -18.224   3.235  1.00  0.00     0.074 A 
HETATM   17  C   UNL     1      43.755 -18.468   4.566  1.00  0.00     0.061 A 
HETATM   18  C   UNL     1      43.378 -19.297   2.343  1.00  0.00     0.032 A 
HETATM   19  C   UNL     1      43.776 -17.317   5.482  1.00  0.00     0.259 A 
HETATM   20  C   UNL     1      44.082 -19.751   5.012  1.00  0.00     0.019 A 
HETATM   21  O   UNL     1      44.061 -17.414   6.668  1.00  0.00    -0.267 OA
HETATM   22  N   UNL     1      43.447 -16.105   4.927  1.00  0.00    -0.309 N 
HETATM   23  H   UNL     1      43.483 -15.336   5.584  1.00  0.00     0.170 HD
HETATM   24  C   UNL     1      44.055 -20.812   4.110  1.00  0.00     0.001 A 
HETATM   25  C   UNL     1      43.706 -20.586   2.778  1.00  0.00     0.002 A 
ENDBRANCH   2  14
TORSDOF 4
ENDMDL
MODEL 5
REMARK VINA RESULT:      -7.9      4.680      7.646
REMARK  4 active torsions:
REMARK  status: ('A' for Active; 'I' for Inactive)
REMARK    1  A    between atoms: C_2  and  N_3 
REMARK    2  A    between atoms: C_2  and  C_14 
REMARK    3  A    between atoms: N_3  and  C_6 
REMARK    4  A    between atoms: C_6  and  C_7 
ROOT
HETATM    1  C   UNL     1      43.266 -14.903   1.878  1.00  0.00     0.048 C 
HETATM    2  C   UNL     1      43.165 -14.838   3.396  1.00  0.00     0.251 C 
ENDROOT
BRANCH   2   3
HETATM    3  N   UNL     1      41.801 -14.305   3.758  1.00  0.00    -0.060 N 
HETATM    4  H   UNL     1      41.090 -14.556   3.061  1.00  0.00     0.278 HD
HETATM    5  H   UNL     1      41.533 -14.779   4.637  1.00  0.00     0.278 HD
BRANCH   3   6
HETATM    6  C   UNL     1      41.741 -12.840   4.021  1.00  0.00     0.271 C 
BRANCH   6   7
HETATM    7  C   UNL     1      42.838 -12.424   4.960  1.00  0.00    -0.033 A 
HETATM    8  C   UNL     1      42.786 -12.786   6.317  1.00  0.00     0.010 A 
HETATM    9  C   UNL     1      43.788 -12.367   7.198  1.00  0.00     0.024 A 
HETATM   10  C   UNL     1      44.843 -11.587   6.731  1.00  0.00     0.034 A 
HETATM   11 CL   UNL     1      46.072 -11.072   7.816  1.00  0.00    -0.084 Cl
HETATM   12  C   UNL     1      44.904 -11.218   5.390  1.00  0.00     0.024 A 
HETATM   13  C   UNL     1      43.903 -11.631   4.505  1.00  0.00     0.010 A 
ENDBRANCH   6   7
ENDBRANCH   3   6
ENDBRANCH   2   3
BRANCH   2  14
HETATM   14  C   UNL     1      43.355 -16.237   3.993  1.00  0.00     0.138 A 
HETATM   15  N   UNL     1      43.443 -17.246   3.182  1.00  0.00    -0.232 NA
HETATM   16  C   UNL     1      43.629 -18.524   3.751  1.00  0.00     0.074 A 
HETATM   17  C   UNL     1      43.701 -18.729   5.134  1.00  0.00     0.061 A 
HETATM   18  C   UNL     1      43.741 -19.630   2.907  1.00  0.00     0.032 A 
HETATM   19  C   UNL     1      43.590 -17.544   5.999  1.00  0.00     0.259 A 
HETATM   20  C   UNL     1      43.877 -20.003   5.677  1.00  0.00     0.019 A 
HETATM   21  O   UNL     1      43.627 -17.604   7.220  1.00  0.00    -0.267 OA
HETATM   22  N   UNL     1      43.431 -16.343   5.352  1.00  0.00    -0.309 N 
HETATM   23  H   UNL     1      43.368 -15.551   5.978  1.00  0.00     0.170 HD
HETATM   24  C   UNL     1      43.984 -21.098   4.822  1.00  0.00     0.001 A 
HETATM   25  C   UNL     1      43.919 -20.912   3.440  1.00  0.00     0.002 A 
ENDBRANCH   2  14
TORSDOF 4
ENDMDL
MODEL 6
REMARK VINA RESULT:      -7.9      5.147      7.359
REMARK  4 active torsions:
REMARK  status: ('A' for Active; 'I' for Inactive)
REMARK    1  A    between atoms: C_2  and  N_3 
REMARK    2  A    between atoms: C_2  and  C_14 
REMARK    3  A    between atoms: N_3  and  C_6 
REMARK    4  A    between atoms: C_6  and  C_7 
ROOT
HETATM    1  C   UNL     1      41.456 -12.931   3.921  1.00  0.00     0.048 C 
HETATM    2  C   UNL     1      42.095 -13.446   5.203  1.00  0.00     0.251 C 
ENDROOT
BRANCH   2   3
HETATM    3  N   UNL     1      43.208 -14.394   4.830  1.00  0.00    -0.060 N 
HETATM    4  H   UNL     1      43.250 -14.563   3.819  1.00  0.00     0.278 HD
HETATM    5  H   UNL     1      44.088 -13.917   5.088  1.00  0.00     0.278 HD
BRANCH   3   6
HETATM    6  C   UNL     1      43.197 -15.699   5.550  1.00  0.00     0.271 C 
BRANCH   6   7
HETATM    7  C   UNL     1      43.360 -16.839   4.585  1.00  0.00    -0.033 A 
HETATM    8  C   UNL     1      42.713 -16.811   3.338  1.00  0.00     0.010 A 
HETATM    9  C   UNL     1      42.835 -17.889   2.455  1.00  0.00     0.024 A 
HETATM   10  C   UNL     1      43.599 -18.997   2.812  1.00  0.00     0.034 A 
HETATM   11 CL   UNL     1      43.746 -20.321   1.726  1.00  0.00    -0.084 Cl
HETATM   12  C   UNL     1      44.242 -19.039   4.046  1.00  0.00     0.024 A 
HETATM   13  C   UNL     1      44.121 -17.966   4.934  1.00  0.00     0.010 A 
ENDBRANCH   6   7
ENDBRANCH   3   6
ENDBRANCH   2   3
BRANCH   2  14
HETATM   14  C   UNL     1      42.658 -12.273   6.014  1.00  0.00     0.138 A 
HETATM   15  N   UNL     1      43.943 -12.203   6.186  1.00  0.00    -0.232 NA
HETATM   16  C   UNL     1      44.442 -11.110   6.926  1.00  0.00     0.074 A 
HETATM   17  C   UNL     1      43.607 -10.133   7.480  1.00  0.00     0.061 A 
HETATM   18  C   UNL     1      45.819 -10.997   7.119  1.00  0.00     0.032 A 
HETATM   19  C   UNL     1      42.160 -10.272   7.252  1.00  0.00     0.259 A 
HETATM   20  C   UNL     1      44.121  -9.063   8.216  1.00  0.00     0.019 A 
HETATM   21  O   UNL     1      41.336  -9.486   7.699  1.00  0.00    -0.267 OA
HETATM   22  N   UNL     1      41.774 -11.357   6.505  1.00  0.00    -0.309 N 
HETATM   23  H   UNL     1      40.773 -11.413   6.361  1.00  0.00     0.170 HD
HETATM   24  C   UNL     1      45.498  -8.965   8.402  1.00  0.00     0.001 A 
HETATM   25  C   UNL     1      46.346  -9.929   7.853  1.00  0.00     0.002 A 
ENDBRANCH   2  14
TORSDOF 4
ENDMDL
MODEL 7
REMARK VINA RESULT:      -7.9      5.320      7.814
REMARK  4 active torsions:
REMARK  status: ('A' for Active; 'I' for Inactive)
REMARK    1  A    between atoms: C_2  and  N_3 
REMARK    2  A    between atoms: C_2  and  C_14 
REMARK    3  A    between atoms: N_3  and  C_6 
REMARK    4  A    between atoms: C_6  and  C_7 
ROOT
HETATM    1  C   UNL     1      40.915 -13.733   4.064  1.00  0.00     0.048 C 
HETATM    2  C   UNL     1      42.433 -13.825   4.135  1.00  0.00     0.251 C 
ENDROOT
BRANCH   2   3
HETATM    3  N   UNL     1      42.897 -13.074   5.359  1.00  0.00    -0.060 N 
HETATM    4  H   UNL     1      42.112 -12.753   5.937  1.00  0.00     0.278 HD
HETATM    5  H   UNL     1      43.425 -13.756   5.929  1.00  0.00     0.278 HD
BRANCH   3   6
HETATM    6  C   UNL     1      43.816 -11.932   5.091  1.00  0.00     0.271 C 
BRANCH   6   7
HETATM    7  C   UNL     1      44.276 -11.308   6.378  1.00  0.00    -0.033 A 
HETATM    8  C   UNL     1      45.647 -11.156   6.643  1.00  0.00     0.010 A 
HETATM    9  C   UNL     1      46.076 -10.609   7.857  1.00  0.00     0.024 A 
HETATM   10  C   UNL     1      45.141 -10.213   8.810  1.00  0.00     0.034 A 
HETATM   11 CL   UNL     1      45.670  -9.543  10.301  1.00  0.00    -0.084 Cl
HETATM   12  C   UNL     1      43.779 -10.362   8.562  1.00  0.00     0.024 A 
HETATM   13  C   UNL     1      43.345 -10.912   7.352  1.00  0.00     0.010 A 
ENDBRANCH   6   7
ENDBRANCH   3   6
ENDBRANCH   2   3
BRANCH   2  14
HETATM   14  C   UNL     1      42.864 -15.294   4.229  1.00  0.00     0.138 A 
HETATM   15  N   UNL     1      42.710 -16.049   3.185  1.00  0.00    -0.232 NA
HETATM   16  C   UNL     1      43.122 -17.394   3.289  1.00  0.00     0.074 A 
HETATM   17  C   UNL     1      43.664 -17.927   4.465  1.00  0.00     0.061 A 
HETATM   18  C   UNL     1      42.984 -18.232   2.181  1.00  0.00     0.032 A 
HETATM   19  C   UNL     1      43.807 -17.020   5.614  1.00  0.00     0.259 A 
HETATM   20  C   UNL     1      44.058 -19.264   4.549  1.00  0.00     0.019 A 
HETATM   21  O   UNL     1      44.256 -17.377   6.694  1.00  0.00    -0.267 OA
HETATM   22  N   UNL     1      43.396 -15.726   5.410  1.00  0.00    -0.309 N 
HETATM   23  H   UNL     1      43.520 -15.129   6.218  1.00  0.00     0.170 HD
HETATM   24  C   UNL     1      43.911 -20.088   3.435  1.00  0.00     0.001 A 
HETATM   25  C   UNL     1      43.377 -19.573   2.253  1.00  0.00     0.002 A 
ENDBRANCH   2  14
TORSDOF 4
ENDMDL
MODEL 8
REMARK VINA RESULT:      -7.8      3.608      7.247
REMARK  4 active torsions:
REMARK  status: ('A' for Active; 'I' for Inactive)
REMARK    1  A    between atoms: C_2  and  N_3 
REMARK    2  A    between atoms: C_2  and  C_14 
REMARK    3  A    between atoms: N_3  and  C_6 
REMARK    4  A    between atoms: C_6  and  C_7 
ROOT
HETATM    1  C   UNL     1      42.720 -12.708   3.488  1.00  0.00     0.048 C 
HETATM    2  C   UNL     1      41.824 -13.692   4.226  1.00  0.00     0.251 C 
ENDROOT
BRANCH   2   3
HETATM    3  N   UNL     1      40.502 -13.765   3.503  1.00  0.00    -0.060 N 
HETATM    4  H   UNL     1      40.392 -14.643   2.984  1.00  0.00     0.278 HD
HETATM    5  H   UNL     1      39.774 -13.761   4.237  1.00  0.00     0.278 HD
BRANCH   3   6
HETATM    6  C   UNL     1      40.210 -12.616   2.600  1.00  0.00     0.271 C 
BRANCH   6   7
HETATM    7  C   UNL     1      39.826 -13.102   1.231  1.00  0.00    -0.033 A 
HETATM    8  C   UNL     1      40.164 -14.402   0.818  1.00  0.00     0.010 A 
HETATM    9  C   UNL     1      39.840 -14.841  -0.470  1.00  0.00     0.024 A 
HETATM   10  C   UNL     1      39.179 -13.988  -1.349  1.00  0.00     0.034 A 
HETATM   11 CL   UNL     1      38.782 -14.529  -2.931  1.00  0.00    -0.084 Cl
HETATM   12  C   UNL     1      38.841 -12.696  -0.954  1.00  0.00     0.024 A 
HETATM   13  C   UNL     1      39.166 -12.251   0.331  1.00  0.00     0.010 A 
ENDBRANCH   6   7
ENDBRANCH   3   6
ENDBRANCH   2   3
BRANCH   2  14
HETATM   14  C   UNL     1      42.481 -15.078   4.254  1.00  0.00     0.138 A 
HETATM   15  N   UNL     1      42.249 -15.889   3.268  1.00  0.00    -0.232 NA
HETATM   16  C   UNL     1      42.871 -17.155   3.307  1.00  0.00     0.074 A 
HETATM   17  C   UNL     1      43.698 -17.555   4.364  1.00  0.00     0.061 A 
HETATM   18  C   UNL     1      42.655 -18.048   2.256  1.00  0.00     0.032 A 
HETATM   19  C   UNL     1      43.916 -16.591   5.453  1.00  0.00     0.259 A 
HETATM   20  C   UNL     1      44.297 -18.816   4.387  1.00  0.00     0.019 A 
HETATM   21  O   UNL     1      44.608 -16.835   6.432  1.00  0.00    -0.267 OA
HETATM   22  N   UNL     1      43.284 -15.379   5.316  1.00  0.00    -0.309 N 
HETATM   23  H   UNL     1      43.466 -14.739   6.078  1.00  0.00     0.170 HD
HETATM   24  C   UNL     1      44.069 -19.697   3.332  1.00  0.00     0.001 A 
HETATM   25  C   UNL     1      43.252 -19.313   2.268  1.00  0.00     0.002 A 
ENDBRANCH   2  14
TORSDOF 4
ENDMDL
MODEL 9
REMARK VINA RESULT:      -7.8      2.036      3.039
REMARK  4 active torsions:
REMARK  status: ('A' for Active; 'I' for Inactive)
REMARK    1  A    between atoms: C_2  and  N_3 
REMARK    2  A    between atoms: C_2  and  C_14 
REMARK    3  A    between atoms: N_3  and  C_6 
REMARK    4  A    between atoms: C_6  and  C_7 
ROOT
HETATM    1  C   UNL     1      41.436 -14.683   6.483  1.00  0.00     0.048 C 
HETATM    2  C   UNL     1      42.623 -14.125   5.711  1.00  0.00     0.251 C 
ENDROOT
BRANCH   2   3
HETATM    3  N   UNL     1      43.695 -15.185   5.657  1.00  0.00    -0.060 N 
HETATM    4  H   UNL     1      44.120 -15.259   4.726  1.00  0.00     0.278 HD
HETATM    5  H   UNL     1      44.441 -14.871   6.299  1.00  0.00     0.278 HD
BRANCH   3   6
HETATM    6  C   UNL     1      43.272 -16.538   6.117  1.00  0.00     0.271 C 
BRANCH   6   7
HETATM    7  C   UNL     1      43.487 -17.558   5.035  1.00  0.00    -0.033 A 
HETATM    8  C   UNL     1      43.216 -17.239   3.694  1.00  0.00     0.010 A 
HETATM    9  C   UNL     1      43.381 -18.200   2.692  1.00  0.00     0.024 A 
HETATM   10  C   UNL     1      43.816 -19.481   3.022  1.00  0.00     0.034 A 
HETATM   11 CL   UNL     1      44.016 -20.661   1.788  1.00  0.00    -0.084 Cl
HETATM   12  C   UNL     1      44.085 -19.812   4.347  1.00  0.00     0.024 A 
HETATM   13  C   UNL     1      43.918 -18.856   5.353  1.00  0.00     0.010 A 
ENDBRANCH   6   7
ENDBRANCH   3   6
ENDBRANCH   2   3
BRANCH   2  14
HETATM   14  C   UNL     1      42.191 -13.745   4.289  1.00  0.00     0.138 A 
HETATM   15  N   UNL     1      41.520 -14.615   3.597  1.00  0.00    -0.232 NA
HETATM   16  C   UNL     1      41.123 -14.242   2.296  1.00  0.00     0.074 A 
HETATM   17  C   UNL     1      41.440 -12.997   1.739  1.00  0.00     0.061 A 
HETATM   18  C   UNL     1      40.389 -15.147   1.528  1.00  0.00     0.032 A 
HETATM   19  C   UNL     1      42.207 -12.059   2.574  1.00  0.00     0.259 A 
HETATM   20  C   UNL     1      41.044 -12.652   0.445  1.00  0.00     0.019 A 
HETATM   21  O   UNL     1      42.550 -10.950   2.189  1.00  0.00    -0.267 OA
HETATM   22  N   UNL     1      42.530 -12.505   3.832  1.00  0.00    -0.309 N 
HETATM   23  H   UNL     1      43.047 -11.829   4.381  1.00  0.00     0.170 HD
HETATM   24  C   UNL     1      40.314 -13.567  -0.310  1.00  0.00     0.001 A 
HETATM   25  C   UNL     1      39.985 -14.811   0.230  1.00  0.00     0.002 A 
ENDBRANCH   2  14
TORSDOF 4
ENDMDL
MODEL 10
REMARK VINA RESULT:      -7.7      1.824      2.326
REMARK  4 active torsions:
REMARK  status: ('A' for Active; 'I' for Inactive)
REMARK    1  A    between atoms: C_2  and  N_3 
REMARK    2  A    between atoms: C_2  and  C_14 
REMARK    3  A    between atoms: N_3  and  C_6 
REMARK    4  A    between atoms: C_6  and  C_7 
ROOT
HETATM    1  C   UNL     1      40.731 -14.359   5.296  1.00  0.00     0.048 C 
HETATM    2  C   UNL     1      41.607 -13.535   4.363  1.00  0.00     0.251 C 
ENDROOT
BRANCH   2   3
HETATM    3  N   UNL     1      42.838 -14.342   4.032  1.00  0.00    -0.060 N 
HETATM    4  H   UNL     1      42.824 -14.693   3.068  1.00  0.00     0.278 HD
HETATM    5  H   UNL     1      43.635 -13.687   4.097  1.00  0.00     0.278 HD
BRANCH   3   6
HETATM    6  C   UNL     1      43.128 -15.468   4.964  1.00  0.00     0.271 C 
BRANCH   6   7
HETATM    7  C   UNL     1      43.305 -16.753   4.206  1.00  0.00    -0.033 A 
HETATM    8  C   UNL     1      44.088 -17.790   4.741  1.00  0.00     0.010 A 
HETATM    9  C   UNL     1      44.283 -18.972   4.019  1.00  0.00     0.024 A 
HETATM   10  C   UNL     1      43.701 -19.123   2.763  1.00  0.00     0.034 A 
HETATM   11 CL   UNL     1      43.944 -20.575   1.877  1.00  0.00    -0.084 Cl
HETATM   12  C   UNL     1      42.926 -18.101   2.220  1.00  0.00     0.024 A 
HETATM   13  C   UNL     1      42.731 -16.917   2.936  1.00  0.00     0.010 A 
ENDBRANCH   6   7
ENDBRANCH   3   6
ENDBRANCH   2   3
BRANCH   2  14
HETATM   14  C   UNL     1      40.837 -13.206   3.078  1.00  0.00     0.138 A 
HETATM   15  N   UNL     1      40.844 -14.077   2.116  1.00  0.00    -0.232 NA
HETATM   16  C   UNL     1      40.121 -13.760   0.947  1.00  0.00     0.074 A 
HETATM   17  C   UNL     1      39.428 -12.553   0.794  1.00  0.00     0.061 A 
HETATM   18  C   UNL     1      40.095 -14.679  -0.103  1.00  0.00     0.032 A 
HETATM   19  C   UNL     1      39.464 -11.606   1.919  1.00  0.00     0.259 A 
HETATM   20  C   UNL     1      38.726 -12.255  -0.376  1.00  0.00     0.019 A 
HETATM   21  O   UNL     1      38.907 -10.518   1.894  1.00  0.00    -0.267 OA
HETATM   22  N   UNL     1      40.177 -12.013   3.021  1.00  0.00    -0.309 N 
HETATM   23  H   UNL     1      40.171 -11.341   3.778  1.00  0.00     0.170 HD
HETATM   24  C   UNL     1      38.712 -13.182  -1.415  1.00  0.00     0.001 A 
HETATM   25  C   UNL     1      39.393 -14.393  -1.279  1.00  0.00     0.002 A 
ENDBRANCH   2  14
TORSDOF 4
ENDMDL
