MODEL 1
REMARK VINA RESULT:      -8.8      0.000      0.000
REMARK  6 active torsions:
REMARK  status: ('A' for Active; 'I' for Inactive)
REMARK    1  A    between atoms: O_2  and  C_3 
REMARK    2  A    between atoms: C_4  and  C_5 
REMARK       I    between atoms: C_5  and  N_6 
REMARK    3  A    between atoms: N_6  and  C_7 
REMARK    4  A    between atoms: C_9  and  C_10 
REMARK    5  A    between atoms: C_10  and  C_11 
REMARK    6  A    between atoms: C_11  and  C_12 
ROOT
HETATM    1  C   UNL     1      42.867 -11.762   6.323  1.00  0.00     0.725 A 
HETATM    2  N   UNL     1      42.082 -12.775   6.049  1.00  0.00    -0.046 NA
HETATM    3  C   UNL     1      42.511 -13.214   4.825  1.00  0.00     0.166 A 
HETATM    4  N   UNL     1      43.546 -12.528   4.322  1.00  0.00    -0.144 NA
HETATM    5  N   UNL     1      43.743 -11.610   5.283  1.00  0.00    -0.106 N 
HETATM    6  H   UNL     1      44.482 -10.930   5.168  1.00  0.00     0.208 HD
ENDROOT
BRANCH   1   7
HETATM    7  N   UNL     1      42.877 -10.936   7.422  1.00  0.00    -0.152 N 
HETATM    8  C   UNL     1      43.995 -10.824   8.233  1.00  0.00     0.272 C 
HETATM    9  O   UNL     1      45.079 -11.368   8.088  1.00  0.00    -0.267 OA
HETATM   10  H   UNL     1      42.037 -10.433   7.664  1.00  0.00     0.187 HD
BRANCH   8  11
HETATM   11  C   UNL     1      43.791  -9.933   9.404  1.00  0.00     0.066 A 
HETATM   12  C   UNL     1      43.641  -8.547   9.255  1.00  0.00     0.084 A 
HETATM   13  C   UNL     1      43.385  -7.751  10.376  1.00  0.00     0.038 A 
HETATM   14  C   UNL     1      43.315  -8.324  11.647  1.00  0.00     0.003 A 
HETATM   15  C   UNL     1      43.475  -9.699  11.802  1.00  0.00     0.001 A 
HETATM   16  C   UNL     1      43.704 -10.506  10.685  1.00  0.00     0.020 A 
BRANCH  12  17
HETATM   17  O   UNL     1      43.652  -7.895   8.051  1.00  0.00    -0.355 OA
HETATM   18  C   UNL     1      42.385  -7.317   7.742  1.00  0.00     0.210 C 
ENDBRANCH  12  17
ENDBRANCH   8  11
ENDBRANCH   1   7
BRANCH   3  19
HETATM   19  C   UNL     1      41.871 -14.374   4.153  1.00  0.00     0.087 C 
BRANCH  19  20
HETATM   20  C   UNL     1      42.837 -15.208   3.312  1.00  0.00     0.048 C 
BRANCH  20  21
HETATM   21  C   UNL     1      43.315 -16.427   4.043  1.00  0.00    -0.030 A 
HETATM   22  C   UNL     1      43.388 -17.765   3.538  1.00  0.00    -0.002 A 
HETATM   23  C   UNL     1      43.923 -18.565   4.548  1.00  0.00     0.042 A 
HETATM   24  C   UNL     1      43.061 -18.370   2.306  1.00  0.00     0.014 A 
HETATM   25  C   UNL     1      44.153 -19.937   4.389  1.00  0.00     0.030 A 
HETATM   26  N   UNL     1      44.151 -17.750   5.631  1.00  0.00    -0.365 N 
HETATM   27  C   UNL     1      43.824 -20.510   3.157  1.00  0.00     0.002 A 
HETATM   28  C   UNL     1      43.285 -19.741   2.129  1.00  0.00     0.001 A 
HETATM   29  H   UNL     1      44.539 -18.061   6.511  1.00  0.00     0.165 HD
HETATM   30  C   UNL     1      43.790 -16.463   5.340  1.00  0.00     0.096 A 
ENDBRANCH  20  21
ENDBRANCH  19  20
ENDBRANCH   3  19
TORSDOF 6
ENDMDL
MODEL 2
REMARK VINA RESULT:      -8.7      1.276      2.126
REMARK  6 active torsions:
REMARK  status: ('A' for Active; 'I' for Inactive)
REMARK    1  A    between atoms: O_2  and  C_3 
REMARK    2  A    between atoms: C_4  and  C_5 
REMARK       I    between atoms: C_5  and  N_6 
REMARK    3  A    between atoms: N_6  and  C_7 
REMARK    4  A    between atoms: C_9  and  C_10 
REMARK    5  A    between atoms: C_10  and  C_11 
REMARK    6  A    between atoms: C_11  and  C_12 
ROOT
HETATM    1  C   UNL     1      41.848 -12.674   5.694  1.00  0.00     0.725 A 
HETATM    2  N   UNL     1      42.291 -13.789   5.168  1.00  0.00    -0.046 NA
HETATM    3  C   UNL     1      41.465 -14.011   4.099  1.00  0.00     0.166 A 
HETATM    4  N   UNL     1      40.527 -13.071   3.919  1.00  0.00    -0.144 NA
HETATM    5  N   UNL     1      40.784 -12.245   4.947  1.00  0.00    -0.106 N 
HETATM    6  H   UNL     1      40.211 -11.422   5.071  1.00  0.00     0.208 HD
ENDROOT
BRANCH   1   7
HETATM    7  N   UNL     1      42.295 -11.990   6.799  1.00  0.00    -0.152 N 
HETATM    8  C   UNL     1      42.541 -10.627   6.756  1.00  0.00     0.272 C 
HETATM    9  O   UNL     1      42.373  -9.868   5.814  1.00  0.00    -0.267 OA
HETATM   10  H   UNL     1      42.488 -12.501   7.647  1.00  0.00     0.187 HD
BRANCH   8  11
HETATM   11  C   UNL     1      43.079 -10.080   8.029  1.00  0.00     0.066 A 
HETATM   12  C   UNL     1      44.301 -10.520   8.558  1.00  0.00     0.084 A 
HETATM   13  C   UNL     1      44.804  -9.934   9.723  1.00  0.00     0.038 A 
HETATM   14  C   UNL     1      44.080  -8.939  10.383  1.00  0.00     0.003 A 
HETATM   15  C   UNL     1      42.861  -8.506   9.867  1.00  0.00     0.001 A 
HETATM   16  C   UNL     1      42.363  -9.066   8.688  1.00  0.00     0.020 A 
BRANCH  12  17
HETATM   17  O   UNL     1      45.104 -11.458   7.968  1.00  0.00    -0.355 OA
HETATM   18  C   UNL     1      46.178 -10.865   7.240  1.00  0.00     0.210 C 
ENDBRANCH  12  17
ENDBRANCH   8  11
ENDBRANCH   1   7
BRANCH   3  19
HETATM   19  C   UNL     1      41.641 -15.195   3.219  1.00  0.00     0.087 C 
BRANCH  19  20
HETATM   20  C   UNL     1      43.101 -15.604   3.022  1.00  0.00     0.048 C 
BRANCH  20  21
HETATM   21  C   UNL     1      43.474 -16.789   3.860  1.00  0.00    -0.030 A 
HETATM   22  C   UNL     1      43.503 -18.162   3.452  1.00  0.00    -0.002 A 
HETATM   23  C   UNL     1      43.940 -18.914   4.542  1.00  0.00     0.042 A 
HETATM   24  C   UNL     1      43.209 -18.836   2.248  1.00  0.00     0.014 A 
HETATM   25  C   UNL     1      44.104 -20.304   4.491  1.00  0.00     0.030 A 
HETATM   26  N   UNL     1      44.154 -18.036   5.579  1.00  0.00    -0.365 N 
HETATM   27  C   UNL     1      43.811 -20.946   3.285  1.00  0.00     0.002 A 
HETATM   28  C   UNL     1      43.368 -20.225   2.177  1.00  0.00     0.001 A 
HETATM   29  H   UNL     1      44.478 -18.303   6.498  1.00  0.00     0.165 HD
HETATM   30  C   UNL     1      43.878 -16.757   5.181  1.00  0.00     0.096 A 
ENDBRANCH  20  21
ENDBRANCH  19  20
ENDBRANCH   3  19
TORSDOF 6
ENDMDL
MODEL 3
REMARK VINA RESULT:      -8.5      5.656      9.225
REMARK  6 active torsions:
REMARK  status: ('A' for Active; 'I' for Inactive)
REMARK    1  A    between atoms: O_2  and  C_3 
REMARK    2  A    between atoms: C_4  and  C_5 
REMARK       I    between atoms: C_5  and  N_6 
REMARK    3  A    between atoms: N_6  and  C_7 
REMARK    4  A    between atoms: C_9  and  C_10 
REMARK    5  A    between atoms: C_10  and  C_11 
REMARK    6  A    between atoms: C_11  and  C_12 
ROOT
HETATM    1  C   UNL     1      41.490 -15.043   3.378  1.00  0.00     0.725 A 
HETATM    2  N   UNL     1      40.274 -14.691   3.041  1.00  0.00    -0.046 NA
HETATM    3  C   UNL     1      40.317 -13.323   2.998  1.00  0.00     0.166 A 
HETATM    4  N   UNL     1      41.516 -12.797   3.279  1.00  0.00    -0.144 NA
HETATM    5  N   UNL     1      42.236 -13.905   3.526  1.00  0.00    -0.106 N 
HETATM    6  H   UNL     1      43.210 -13.810   3.779  1.00  0.00     0.208 HD
ENDROOT
BRANCH   1   7
HETATM    7  N   UNL     1      42.014 -16.297   3.580  1.00  0.00    -0.152 N 
HETATM    8  C   UNL     1      43.000 -16.812   2.754  1.00  0.00     0.272 C 
HETATM    9  O   UNL     1      43.547 -16.260   1.813  1.00  0.00    -0.267 OA
HETATM   10  H   UNL     1      41.640 -16.870   4.322  1.00  0.00     0.187 HD
BRANCH   8  11
HETATM   11  C   UNL     1      43.391 -18.205   3.095  1.00  0.00     0.066 A 
HETATM   12  C   UNL     1      43.918 -18.533   4.351  1.00  0.00     0.084 A 
HETATM   13  C   UNL     1      44.212 -19.866   4.655  1.00  0.00     0.038 A 
HETATM   14  C   UNL     1      44.017 -20.867   3.702  1.00  0.00     0.003 A 
HETATM   15  C   UNL     1      43.503 -20.545   2.448  1.00  0.00     0.001 A 
HETATM   16  C   UNL     1      43.181 -19.220   2.144  1.00  0.00     0.020 A 
BRANCH  12  17
HETATM   17  O   UNL     1      44.108 -17.635   5.367  1.00  0.00    -0.355 OA
HETATM   18  C   UNL     1      43.361 -17.976   6.533  1.00  0.00     0.210 C 
ENDBRANCH  12  17
ENDBRANCH   8  11
ENDBRANCH   1   7
BRANCH   3  19
HETATM   19  C   UNL     1      39.116 -12.524   2.641  1.00  0.00     0.087 C 
BRANCH  19  20
HETATM   20  C   UNL     1      39.398 -11.401   1.644  1.00  0.00     0.048 C 
BRANCH  20  21
HETATM   21  C   UNL     1      38.632 -11.572   0.367  1.00  0.00    -0.030 A 
HETATM   22  C   UNL     1      38.766 -12.633  -0.587  1.00  0.00    -0.002 A 
HETATM   23  C   UNL     1      37.833 -12.406  -1.599  1.00  0.00     0.042 A 
HETATM   24  C   UNL     1      39.587 -13.776  -0.676  1.00  0.00     0.014 A 
HETATM   25  C   UNL     1      37.675 -13.265  -2.693  1.00  0.00     0.030 A 
HETATM   26  N   UNL     1      37.169 -11.244  -1.284  1.00  0.00    -0.365 N 
HETATM   27  C   UNL     1      38.499 -14.393  -2.755  1.00  0.00     0.002 A 
HETATM   28  C   UNL     1      39.443 -14.647  -1.763  1.00  0.00     0.001 A 
HETATM   29  H   UNL     1      36.432 -10.836  -1.842  1.00  0.00     0.165 HD
HETATM   30  C   UNL     1      37.640 -10.734  -0.105  1.00  0.00     0.096 A 
ENDBRANCH  20  21
ENDBRANCH  19  20
ENDBRANCH   3  19
TORSDOF 6
ENDMDL
MODEL 4
REMARK VINA RESULT:      -8.5      2.391      4.138
REMARK  6 active torsions:
REMARK  status: ('A' for Active; 'I' for Inactive)
REMARK    1  A    between atoms: O_2  and  C_3 
REMARK    2  A    between atoms: C_4  and  C_5 
REMARK       I    between atoms: C_5  and  N_6 
REMARK    3  A    between atoms: N_6  and  C_7 
REMARK    4  A    between atoms: C_9  and  C_10 
REMARK    5  A    between atoms: C_10  and  C_11 
REMARK    6  A    between atoms: C_11  and  C_12 
ROOT
HETATM    1  C   UNL     1      44.310 -10.366   9.743  1.00  0.00     0.725 A 
HETATM    2  N   UNL     1      43.925 -11.314   8.925  1.00  0.00    -0.046 NA
HETATM    3  C   UNL     1      44.827 -11.263   7.897  1.00  0.00     0.166 A 
HETATM    4  N   UNL     1      45.778 -10.330   8.040  1.00  0.00    -0.144 NA
HETATM    5  N   UNL     1      45.421  -9.771   9.209  1.00  0.00    -0.106 N 
HETATM    6  H   UNL     1      45.974  -9.008   9.577  1.00  0.00     0.208 HD
ENDROOT
BRANCH   1   7
HETATM    7  N   UNL     1      43.759  -9.961  10.935  1.00  0.00    -0.152 N 
HETATM    8  C   UNL     1      43.302  -8.666  11.119  1.00  0.00     0.272 C 
HETATM    9  O   UNL     1      43.280  -7.760  10.300  1.00  0.00    -0.267 OA
HETATM   10  H   UNL     1      43.727 -10.612  11.705  1.00  0.00     0.187 HD
BRANCH   8  11
HETATM   11  C   UNL     1      42.800  -8.403  12.493  1.00  0.00     0.066 A 
HETATM   12  C   UNL     1      41.732  -9.131  13.035  1.00  0.00     0.084 A 
HETATM   13  C   UNL     1      41.333  -8.898  14.355  1.00  0.00     0.038 A 
HETATM   14  C   UNL     1      41.968  -7.921  15.123  1.00  0.00     0.003 A 
HETATM   15  C   UNL     1      43.023  -7.188  14.585  1.00  0.00     0.001 A 
HETATM   16  C   UNL     1      43.447  -7.432  13.276  1.00  0.00     0.020 A 
BRANCH  12  17
HETATM   17  O   UNL     1      41.071 -10.135  12.381  1.00  0.00    -0.355 OA
HETATM   18  C   UNL     1      39.846 -10.480  13.025  1.00  0.00     0.210 C 
ENDBRANCH  12  17
ENDBRANCH   8  11
ENDBRANCH   1   7
BRANCH   3  19
HETATM   19  C   UNL     1      44.740 -12.198   6.746  1.00  0.00     0.087 C 
BRANCH  19  20
HETATM   20  C   UNL     1      43.699 -13.302   6.926  1.00  0.00     0.048 C 
BRANCH  20  21
HETATM   21  C   UNL     1      43.341 -13.961   5.628  1.00  0.00    -0.030 A 
HETATM   22  C   UNL     1      43.542 -15.334   5.271  1.00  0.00    -0.002 A 
HETATM   23  C   UNL     1      43.030 -15.511   3.985  1.00  0.00     0.042 A 
HETATM   24  C   UNL     1      44.099 -16.449   5.929  1.00  0.00     0.014 A 
HETATM   25  C   UNL     1      43.043 -16.745   3.325  1.00  0.00     0.030 A 
HETATM   26  N   UNL     1      42.553 -14.290   3.568  1.00  0.00    -0.365 N 
HETATM   27  C   UNL     1      43.597 -17.835   4.002  1.00  0.00     0.002 A 
HETATM   28  C   UNL     1      44.120 -17.692   5.285  1.00  0.00     0.001 A 
HETATM   29  H   UNL     1      42.122 -14.120   2.671  1.00  0.00     0.165 HD
HETATM   30  C   UNL     1      42.734 -13.351   4.547  1.00  0.00     0.096 A 
ENDBRANCH  20  21
ENDBRANCH  19  20
ENDBRANCH   3  19
TORSDOF 6
ENDMDL
MODEL 5
REMARK VINA RESULT:      -8.5      2.917      8.666
REMARK  6 active torsions:
REMARK  status: ('A' for Active; 'I' for Inactive)
REMARK    1  A    between atoms: O_2  and  C_3 
REMARK    2  A    between atoms: C_4  and  C_5 
REMARK       I    between atoms: C_5  and  N_6 
REMARK    3  A    between atoms: N_6  and  C_7 
REMARK    4  A    between atoms: C_9  and  C_10 
REMARK    5  A    between atoms: C_10  and  C_11 
REMARK    6  A    between atoms: C_11  and  C_12 
ROOT
HETATM    1  C   UNL     1      40.834 -14.458   4.790  1.00  0.00     0.725 A 
HETATM    2  N   UNL     1      40.906 -13.629   5.802  1.00  0.00    -0.046 NA
HETATM    3  C   UNL     1      40.047 -12.615   5.472  1.00  0.00     0.166 A 
HETATM    4  N   UNL     1      39.422 -12.780   4.298  1.00  0.00    -0.144 NA
HETATM    5  N   UNL     1      39.947 -13.945   3.883  1.00  0.00    -0.106 N 
HETATM    6  H   UNL     1      39.654 -14.326   2.994  1.00  0.00     0.208 HD
ENDROOT
BRANCH   1   7
HETATM    7  N   UNL     1      41.498 -15.643   4.582  1.00  0.00    -0.152 N 
HETATM    8  C   UNL     1      42.478 -15.763   3.610  1.00  0.00     0.272 C 
HETATM    9  O   UNL     1      42.904 -14.891   2.870  1.00  0.00    -0.267 OA
HETATM   10  H   UNL     1      41.234 -16.453   5.122  1.00  0.00     0.187 HD
BRANCH   8  11
HETATM   11  C   UNL     1      43.034 -17.137   3.494  1.00  0.00     0.066 A 
HETATM   12  C   UNL     1      43.789 -17.712   4.525  1.00  0.00     0.084 A 
HETATM   13  C   UNL     1      44.238 -19.031   4.405  1.00  0.00     0.038 A 
HETATM   14  C   UNL     1      43.969 -19.765   3.248  1.00  0.00     0.003 A 
HETATM   15  C   UNL     1      43.228 -19.194   2.216  1.00  0.00     0.001 A 
HETATM   16  C   UNL     1      42.752 -17.886   2.339  1.00  0.00     0.020 A 
BRANCH  12  17
HETATM   17  O   UNL     1      44.072 -17.093   5.713  1.00  0.00    -0.355 OA
HETATM   18  C   UNL     1      43.400 -17.707   6.812  1.00  0.00     0.210 C 
ENDBRANCH  12  17
ENDBRANCH   8  11
ENDBRANCH   1   7
BRANCH   3  19
HETATM   19  C   UNL     1      39.833 -11.457   6.377  1.00  0.00     0.087 C 
BRANCH  19  20
HETATM   20  C   UNL     1      40.691 -10.240   6.034  1.00  0.00     0.048 C 
BRANCH  20  21
HETATM   21  C   UNL     1      41.798 -10.031   7.023  1.00  0.00    -0.030 A 
HETATM   22  C   UNL     1      43.153 -10.483   6.912  1.00  0.00    -0.002 A 
HETATM   23  C   UNL     1      43.837 -10.035   8.042  1.00  0.00     0.042 A 
HETATM   24  C   UNL     1      43.867 -11.222   5.945  1.00  0.00     0.014 A 
HETATM   25  C   UNL     1      45.199 -10.283   8.255  1.00  0.00     0.030 A 
HETATM   26  N   UNL     1      42.931  -9.352   8.819  1.00  0.00    -0.365 N 
HETATM   27  C   UNL     1      45.883 -11.013   7.279  1.00  0.00     0.002 A 
HETATM   28  C   UNL     1      45.229 -11.478   6.140  1.00  0.00     0.001 A 
HETATM   29  H   UNL     1      43.150  -8.913   9.702  1.00  0.00     0.165 HD
HETATM   30  C   UNL     1      41.702  -9.343   8.217  1.00  0.00     0.096 A 
ENDBRANCH  20  21
ENDBRANCH  19  20
ENDBRANCH   3  19
TORSDOF 6
ENDMDL
MODEL 6
REMARK VINA RESULT:      -8.5      3.249      9.789
REMARK  6 active torsions:
REMARK  status: ('A' for Active; 'I' for Inactive)
REMARK    1  A    between atoms: O_2  and  C_3 
REMARK    2  A    between atoms: C_4  and  C_5 
REMARK       I    between atoms: C_5  and  N_6 
REMARK    3  A    between atoms: N_6  and  C_7 
REMARK    4  A    between atoms: C_9  and  C_10 
REMARK    5  A    between atoms: C_10  and  C_11 
REMARK    6  A    between atoms: C_11  and  C_12 
ROOT
HETATM    1  C   UNL     1      44.598 -11.601   7.066  1.00  0.00     0.725 A 
HETATM    2  N   UNL     1      44.412 -11.416   8.349  1.00  0.00    -0.046 NA
HETATM    3  C   UNL     1      45.356 -10.488   8.698  1.00  0.00     0.166 A 
HETATM    4  N   UNL     1      46.121 -10.067   7.682  1.00  0.00    -0.144 NA
HETATM    5  N   UNL     1      45.629 -10.795   6.666  1.00  0.00    -0.106 N 
HETATM    6  H   UNL     1      46.032 -10.686   5.745  1.00  0.00     0.208 HD
ENDROOT
BRANCH   1   7
HETATM    7  N   UNL     1      43.937 -12.437   6.198  1.00  0.00    -0.152 N 
HETATM    8  C   UNL     1      43.735 -12.091   4.872  1.00  0.00     0.272 C 
HETATM    9  O   UNL     1      44.118 -11.084   4.297  1.00  0.00    -0.267 OA
HETATM   10  H   UNL     1      43.556 -13.303   6.547  1.00  0.00     0.187 HD
BRANCH   8  11
HETATM   11  C   UNL     1      42.947 -13.095   4.110  1.00  0.00     0.066 A 
HETATM   12  C   UNL     1      41.799 -13.689   4.650  1.00  0.00     0.084 A 
HETATM   13  C   UNL     1      41.048 -14.580   3.876  1.00  0.00     0.038 A 
HETATM   14  C   UNL     1      41.456 -14.908   2.582  1.00  0.00     0.003 A 
HETATM   15  C   UNL     1      42.603 -14.328   2.044  1.00  0.00     0.001 A 
HETATM   16  C   UNL     1      43.345 -13.416   2.800  1.00  0.00     0.020 A 
BRANCH  12  17
HETATM   17  O   UNL     1      41.293 -13.405   5.890  1.00  0.00    -0.355 OA
HETATM   18  C   UNL     1      40.422 -14.431   6.362  1.00  0.00     0.210 C 
ENDBRANCH  12  17
ENDBRANCH   8  11
ENDBRANCH   1   7
BRANCH   3  19
HETATM   19  C   UNL     1      45.476  -9.995  10.095  1.00  0.00     0.087 C 
BRANCH  19  20
HETATM   20  C   UNL     1      44.499  -8.870  10.437  1.00  0.00     0.048 C 
BRANCH  20  21
HETATM   21  C   UNL     1      43.498  -9.286  11.472  1.00  0.00    -0.030 A 
HETATM   22  C   UNL     1      43.151  -8.582  12.671  1.00  0.00    -0.002 A 
HETATM   23  C   UNL     1      42.154  -9.317  13.314  1.00  0.00     0.042 A 
HETATM   24  C   UNL     1      43.584  -7.378  13.264  1.00  0.00     0.014 A 
HETATM   25  C   UNL     1      41.564  -8.908  14.516  1.00  0.00     0.030 A 
HETATM   26  N   UNL     1      41.915 -10.432  12.546  1.00  0.00    -0.365 N 
HETATM   27  C   UNL     1      42.008  -7.708  15.080  1.00  0.00     0.002 A 
HETATM   28  C   UNL     1      43.004  -6.953  14.465  1.00  0.00     0.001 A 
HETATM   29  H   UNL     1      41.236 -11.147  12.769  1.00  0.00     0.165 HD
HETATM   30  C   UNL     1      42.716 -10.425  11.437  1.00  0.00     0.096 A 
ENDBRANCH  20  21
ENDBRANCH  19  20
ENDBRANCH   3  19
TORSDOF 6
ENDMDL
MODEL 7
REMARK VINA RESULT:      -8.4      2.853      9.266
REMARK  6 active torsions:
REMARK  status: ('A' for Active; 'I' for Inactive)
REMARK    1  A    between atoms: O_2  and  C_3 
REMARK    2  A    between atoms: C_4  and  C_5 
REMARK       I    between atoms: C_5  and  N_6 
REMARK    3  A    between atoms: N_6  and  C_7 
REMARK    4  A    between atoms: C_9  and  C_10 
REMARK    5  A    between atoms: C_10  and  C_11 
REMARK    6  A    between atoms: C_11  and  C_12 
ROOT
HETATM    1  C   UNL     1      42.357 -14.714   3.753  1.00  0.00     0.725 A 
HETATM    2  N   UNL     1      42.876 -13.678   4.365  1.00  0.00    -0.046 NA
HETATM    3  C   UNL     1      42.167 -12.611   3.882  1.00  0.00     0.166 A 
HETATM    4  N   UNL     1      41.211 -12.933   3.001  1.00  0.00    -0.144 NA
HETATM    5  N   UNL     1      41.360 -14.267   2.930  1.00  0.00    -0.106 N 
HETATM    6  H   UNL     1      40.755 -14.795   2.317  1.00  0.00     0.208 HD
ENDROOT
BRANCH   1   7
HETATM    7  N   UNL     1      42.692 -16.044   3.848  1.00  0.00    -0.152 N 
HETATM    8  C   UNL     1      43.279 -16.719   2.790  1.00  0.00     0.272 C 
HETATM    9  O   UNL     1      43.604 -16.265   1.704  1.00  0.00    -0.267 OA
HETATM   10  H   UNL     1      42.467 -16.547   4.692  1.00  0.00     0.187 HD
BRANCH   8  11
HETATM   11  C   UNL     1      43.508 -18.163   3.061  1.00  0.00     0.066 A 
HETATM   12  C   UNL     1      43.996 -18.608   4.297  1.00  0.00     0.084 A 
HETATM   13  C   UNL     1      44.136 -19.979   4.535  1.00  0.00     0.038 A 
HETATM   14  C   UNL     1      43.825 -20.904   3.537  1.00  0.00     0.003 A 
HETATM   15  C   UNL     1      43.349 -20.466   2.303  1.00  0.00     0.001 A 
HETATM   16  C   UNL     1      43.181 -19.100   2.065  1.00  0.00     0.020 A 
BRANCH  12  17
HETATM   17  O   UNL     1      44.291 -17.787   5.352  1.00  0.00    -0.355 OA
HETATM   18  C   UNL     1      43.496 -18.082   6.499  1.00  0.00     0.210 C 
ENDBRANCH  12  17
ENDBRANCH   8  11
ENDBRANCH   1   7
BRANCH   3  19
HETATM   19  C   UNL     1      42.450 -11.225   4.339  1.00  0.00     0.087 C 
BRANCH  19  20
HETATM   20  C   UNL     1      42.380 -11.051   5.856  1.00  0.00     0.048 C 
BRANCH  20  21
HETATM   21  C   UNL     1      43.737 -10.894   6.471  1.00  0.00    -0.030 A 
HETATM   22  C   UNL     1      44.042 -10.394   7.779  1.00  0.00    -0.002 A 
HETATM   23  C   UNL     1      45.426 -10.457   7.939  1.00  0.00     0.042 A 
HETATM   24  C   UNL     1      43.264  -9.905   8.850  1.00  0.00     0.014 A 
HETATM   25  C   UNL     1      46.074 -10.061   9.116  1.00  0.00     0.030 A 
HETATM   26  N   UNL     1      45.946 -10.959   6.770  1.00  0.00    -0.365 N 
HETATM   27  C   UNL     1      45.279  -9.585  10.163  1.00  0.00     0.002 A 
HETATM   28  C   UNL     1      43.895  -9.506  10.034  1.00  0.00     0.001 A 
HETATM   29  H   UNL     1      46.930 -11.116   6.601  1.00  0.00     0.165 HD
HETATM   30  C   UNL     1      44.941 -11.226   5.880  1.00  0.00     0.096 A 
ENDBRANCH  20  21
ENDBRANCH  19  20
ENDBRANCH   3  19
TORSDOF 6
ENDMDL
MODEL 8
REMARK VINA RESULT:      -8.4      4.863      8.104
REMARK  6 active torsions:
REMARK  status: ('A' for Active; 'I' for Inactive)
REMARK    1  A    between atoms: O_2  and  C_3 
REMARK    2  A    between atoms: C_4  and  C_5 
REMARK       I    between atoms: C_5  and  N_6 
REMARK    3  A    between atoms: N_6  and  C_7 
REMARK    4  A    between atoms: C_9  and  C_10 
REMARK    5  A    between atoms: C_10  and  C_11 
REMARK    6  A    between atoms: C_11  and  C_12 
ROOT
HETATM    1  C   UNL     1      39.730 -13.561   2.935  1.00  0.00     0.725 A 
HETATM    2  N   UNL     1      40.495 -14.361   3.636  1.00  0.00    -0.046 NA
HETATM    3  C   UNL     1      40.722 -13.679   4.801  1.00  0.00     0.166 A 
HETATM    4  N   UNL     1      40.117 -12.486   4.871  1.00  0.00    -0.144 NA
HETATM    5  N   UNL     1      39.507 -12.431   3.674  1.00  0.00    -0.106 N 
HETATM    6  H   UNL     1      38.962 -11.614   3.439  1.00  0.00     0.208 HD
ENDROOT
BRANCH   1   7
HETATM    7  N   UNL     1      39.207 -13.732   1.676  1.00  0.00    -0.152 N 
HETATM    8  C   UNL     1      39.955 -13.468   0.539  1.00  0.00     0.272 C 
HETATM    9  O   UNL     1      41.120 -13.108   0.481  1.00  0.00    -0.267 OA
HETATM   10  H   UNL     1      38.244 -14.016   1.580  1.00  0.00     0.187 HD
BRANCH   8  11
HETATM   11  C   UNL     1      39.196 -13.651  -0.725  1.00  0.00     0.066 A 
HETATM   12  C   UNL     1      38.239 -12.719  -1.149  1.00  0.00     0.084 A 
HETATM   13  C   UNL     1      37.594 -12.894  -2.377  1.00  0.00     0.038 A 
HETATM   14  C   UNL     1      37.872 -14.010  -3.167  1.00  0.00     0.003 A 
HETATM   15  C   UNL     1      38.815 -14.946  -2.747  1.00  0.00     0.001 A 
HETATM   16  C   UNL     1      39.484 -14.765  -1.533  1.00  0.00     0.020 A 
BRANCH  12  17
HETATM   17  O   UNL     1      37.924 -11.573  -0.469  1.00  0.00    -0.355 OA
HETATM   18  C   UNL     1      38.504 -10.416  -1.068  1.00  0.00     0.210 C 
ENDBRANCH  12  17
ENDBRANCH   8  11
ENDBRANCH   1   7
BRANCH   3  19
HETATM   19  C   UNL     1      41.556 -14.258   5.886  1.00  0.00     0.087 C 
BRANCH  19  20
HETATM   20  C   UNL     1      43.001 -14.533   5.470  1.00  0.00     0.048 C 
BRANCH  20  21
HETATM   21  C   UNL     1      43.325 -15.996   5.484  1.00  0.00    -0.030 A 
HETATM   22  C   UNL     1      43.354 -16.886   4.360  1.00  0.00    -0.002 A 
HETATM   23  C   UNL     1      43.736 -18.142   4.831  1.00  0.00     0.042 A 
HETATM   24  C   UNL     1      43.104 -16.735   2.980  1.00  0.00     0.014 A 
HETATM   25  C   UNL     1      43.886 -19.254   3.995  1.00  0.00     0.030 A 
HETATM   26  N   UNL     1      43.916 -18.027   6.190  1.00  0.00    -0.365 N 
HETATM   27  C   UNL     1      43.636 -19.076   2.631  1.00  0.00     0.002 A 
HETATM   28  C   UNL     1      43.250 -17.836   2.128  1.00  0.00     0.001 A 
HETATM   29  H   UNL     1      44.198 -18.784   6.797  1.00  0.00     0.165 HD
HETATM   30  C   UNL     1      43.672 -16.742   6.593  1.00  0.00     0.096 A 
ENDBRANCH  20  21
ENDBRANCH  19  20
ENDBRANCH   3  19
TORSDOF 6
ENDMDL
MODEL 9
REMARK VINA RESULT:      -8.3      2.600      9.960
REMARK  6 active torsions:
REMARK  status: ('A' for Active; 'I' for Inactive)
REMARK    1  A    between atoms: O_2  and  C_3 
REMARK    2  A    between atoms: C_4  and  C_5 
REMARK       I    between atoms: C_5  and  N_6 
REMARK    3  A    between atoms: N_6  and  C_7 
REMARK    4  A    between atoms: C_9  and  C_10 
REMARK    5  A    between atoms: C_10  and  C_11 
REMARK    6  A    between atoms: C_11  and  C_12 
ROOT
HETATM    1  C   UNL     1      43.861 -11.551   6.877  1.00  0.00     0.725 A 
HETATM    2  N   UNL     1      44.567 -11.619   7.978  1.00  0.00    -0.046 NA
HETATM    3  C   UNL     1      44.218 -10.493   8.675  1.00  0.00     0.166 A 
HETATM    4  N   UNL     1      43.306  -9.725   8.064  1.00  0.00    -0.144 NA
HETATM    5  N   UNL     1      43.107 -10.410   6.925  1.00  0.00    -0.106 N 
HETATM    6  H   UNL     1      42.451 -10.051   6.245  1.00  0.00     0.208 HD
ENDROOT
BRANCH   1   7
HETATM    7  N   UNL     1      43.824 -12.413   5.807  1.00  0.00    -0.152 N 
HETATM    8  C   UNL     1      42.670 -13.103   5.472  1.00  0.00     0.272 C 
HETATM    9  O   UNL     1      41.575 -13.029   6.009  1.00  0.00    -0.267 OA
HETATM   10  H   UNL     1      44.669 -12.577   5.281  1.00  0.00     0.187 HD
BRANCH   8  11
HETATM   11  C   UNL     1      42.846 -14.033   4.326  1.00  0.00     0.066 A 
HETATM   12  C   UNL     1      43.091 -13.561   3.030  1.00  0.00     0.084 A 
HETATM   13  C   UNL     1      43.316 -14.469   1.991  1.00  0.00     0.038 A 
HETATM   14  C   UNL     1      43.262 -15.843   2.230  1.00  0.00     0.003 A 
HETATM   15  C   UNL     1      43.008 -16.318   3.515  1.00  0.00     0.001 A 
HETATM   16  C   UNL     1      42.809 -15.418   4.565  1.00  0.00     0.020 A 
BRANCH  12  17
HETATM   17  O   UNL     1      43.204 -12.237   2.698  1.00  0.00    -0.355 OA
HETATM   18  C   UNL     1      41.956 -11.678   2.292  1.00  0.00     0.210 C 
ENDBRANCH  12  17
ENDBRANCH   8  11
ENDBRANCH   1   7
BRANCH   3  19
HETATM   19  C   UNL     1      44.806 -10.195  10.006  1.00  0.00     0.087 C 
BRANCH  19  20
HETATM   20  C   UNL     1      44.230  -8.942  10.666  1.00  0.00     0.048 C 
BRANCH  20  21
HETATM   21  C   UNL     1      43.202  -9.272  11.706  1.00  0.00    -0.030 A 
HETATM   22  C   UNL     1      42.922  -8.543  12.908  1.00  0.00    -0.002 A 
HETATM   23  C   UNL     1      41.870  -9.191  13.555  1.00  0.00     0.042 A 
HETATM   24  C   UNL     1      43.459  -7.380  13.499  1.00  0.00     0.014 A 
HETATM   25  C   UNL     1      41.322  -8.734  14.760  1.00  0.00     0.030 A 
HETATM   26  N   UNL     1      41.533 -10.281  12.787  1.00  0.00    -0.365 N 
HETATM   27  C   UNL     1      41.870  -7.578  15.322  1.00  0.00     0.002 A 
HETATM   28  C   UNL     1      42.923  -6.909  14.704  1.00  0.00     0.001 A 
HETATM   29  H   UNL     1      40.797 -10.935  13.013  1.00  0.00     0.165 HD
HETATM   30  C   UNL     1      42.327 -10.340  11.674  1.00  0.00     0.096 A 
ENDBRANCH  20  21
ENDBRANCH  19  20
ENDBRANCH   3  19
TORSDOF 6
ENDMDL
MODEL 10
REMARK VINA RESULT:      -8.1      1.823      2.719
REMARK  6 active torsions:
REMARK  status: ('A' for Active; 'I' for Inactive)
REMARK    1  A    between atoms: O_2  and  C_3 
REMARK    2  A    between atoms: C_4  and  C_5 
REMARK       I    between atoms: C_5  and  N_6 
REMARK    3  A    between atoms: N_6  and  C_7 
REMARK    4  A    between atoms: C_9  and  C_10 
REMARK    5  A    between atoms: C_10  and  C_11 
REMARK    6  A    between atoms: C_11  and  C_12 
ROOT
HETATM    1  C   UNL     1      43.643 -10.767   7.192  1.00  0.00     0.725 A 
HETATM    2  N   UNL     1      42.984 -11.302   6.194  1.00  0.00    -0.046 NA
HETATM    3  C   UNL     1      43.946 -11.573   5.258  1.00  0.00     0.166 A 
HETATM    4  N   UNL     1      45.190 -11.244   5.632  1.00  0.00    -0.144 NA
HETATM    5  N   UNL     1      44.968 -10.726   6.852  1.00  0.00    -0.106 N 
HETATM    6  H   UNL     1      45.752 -10.378   7.387  1.00  0.00     0.208 HD
ENDROOT
BRANCH   1   7
HETATM    7  N   UNL     1      43.176 -10.292   8.394  1.00  0.00    -0.152 N 
HETATM    8  C   UNL     1      43.515  -9.030   8.854  1.00  0.00     0.272 C 
HETATM    9  O   UNL     1      44.197  -8.188   8.290  1.00  0.00    -0.267 OA
HETATM   10  H   UNL     1      42.608 -10.893   8.971  1.00  0.00     0.187 HD
BRANCH   8  11
HETATM   11  C   UNL     1      42.966  -8.722  10.201  1.00  0.00     0.066 A 
HETATM   12  C   UNL     1      41.591  -8.551  10.410  1.00  0.00     0.084 A 
HETATM   13  C   UNL     1      41.108  -8.328  11.703  1.00  0.00     0.038 A 
HETATM   14  C   UNL     1      41.990  -8.239  12.781  1.00  0.00     0.003 A 
HETATM   15  C   UNL     1      43.359  -8.397  12.577  1.00  0.00     0.001 A 
HETATM   16  C   UNL     1      43.849  -8.647  11.292  1.00  0.00     0.020 A 
BRANCH  12  17
HETATM   17  O   UNL     1      40.641  -8.661   9.430  1.00  0.00    -0.355 OA
HETATM   18  C   UNL     1      39.581  -9.538   9.805  1.00  0.00     0.210 C 
ENDBRANCH  12  17
ENDBRANCH   8  11
ENDBRANCH   1   7
BRANCH   3  19
HETATM   19  C   UNL     1      43.603 -12.202   3.957  1.00  0.00     0.087 C 
BRANCH  19  20
HETATM   20  C   UNL     1      42.518 -13.273   4.058  1.00  0.00     0.048 C 
BRANCH  20  21
HETATM   21  C   UNL     1      42.759 -14.414   3.117  1.00  0.00    -0.030 A 
HETATM   22  C   UNL     1      43.124 -15.757   3.460  1.00  0.00    -0.002 A 
HETATM   23  C   UNL     1      43.209 -16.484   2.273  1.00  0.00     0.042 A 
HETATM   24  C   UNL     1      43.376 -16.426   4.676  1.00  0.00     0.014 A 
HETATM   25  C   UNL     1      43.529 -17.847   2.237  1.00  0.00     0.030 A 
HETATM   26  N   UNL     1      42.925 -15.616   1.245  1.00  0.00    -0.365 N 
HETATM   27  C   UNL     1      43.769 -18.487   3.457  1.00  0.00     0.002 A 
HETATM   28  C   UNL     1      43.696 -17.789   4.660  1.00  0.00     0.001 A 
HETATM   29  H   UNL     1      42.911 -15.870   0.268  1.00  0.00     0.165 HD
HETATM   30  C   UNL     1      42.653 -14.369   1.740  1.00  0.00     0.096 A 
ENDBRANCH  20  21
ENDBRANCH  19  20
ENDBRANCH   3  19
TORSDOF 6
ENDMDL
