MODEL 1
REMARK VINA RESULT:      -8.5      0.000      0.000
REMARK  5 active torsions:
REMARK  status: ('A' for Active; 'I' for Inactive)
REMARK    1  A    between atoms: C_2  and  O_3 
REMARK    2  A    between atoms: O_3  and  C_4 
REMARK    3  A    between atoms: C_5  and  N_6 
REMARK       I    between atoms: N_6  and  C_7 
REMARK    4  A    between atoms: C_7  and  C_8 
REMARK    5  A    between atoms: C_9  and  C_10 
ROOT
HETATM    1  N   UNL     1      43.112 -13.150   6.800  1.00  0.00    -0.321 N 
HETATM    2  C   UNL     1      44.062 -12.185   7.041  1.00  0.00     0.245 C 
HETATM    3  O   UNL     1      45.159 -12.074   6.509  1.00  0.00    -0.268 OA
HETATM    4  H   UNL     1      42.194 -13.038   7.214  1.00  0.00     0.169 HD
ENDROOT
BRANCH   1   5
HETATM    5  C   UNL     1      43.237 -14.292   5.978  1.00  0.00     0.071 A 
HETATM    6  C   UNL     1      42.621 -14.240   4.703  1.00  0.00     0.096 A 
HETATM    7  C   UNL     1      42.590 -15.348   3.853  1.00  0.00     0.049 A 
HETATM    8  C   UNL     1      43.242 -16.490   4.270  1.00  0.00    -0.020 A 
HETATM    9  C   UNL     1      43.882 -16.535   5.499  1.00  0.00     0.078 A 
HETATM   10  C   UNL     1      43.330 -17.819   3.621  1.00  0.00     0.073 C 
HETATM   11  C   UNL     1      43.891 -15.461   6.372  1.00  0.00     0.069 A 
HETATM   12  O   UNL     1      44.458 -17.750   5.770  1.00  0.00    -0.345 OA
HETATM   13  C   UNL     1      44.428 -18.444   4.495  1.00  0.00     0.129 C 
HETATM   14  C   UNL     1      44.201 -19.925   4.742  1.00  0.00     0.040 C 
BRANCH   6  15
HETATM   15  O   UNL     1      41.998 -13.087   4.283  1.00  0.00    -0.349 OA
BRANCH  15  16
HETATM   16  C   UNL     1      42.605 -12.590   3.078  1.00  0.00     0.171 C 
HETATM   17  C   UNL     1      43.624 -11.516   3.413  1.00  0.00     0.034 C 
ENDBRANCH  15  16
ENDBRANCH   6  15
ENDBRANCH   1   5
BRANCH   2  18
HETATM   18  C   UNL     1      43.583 -11.187   8.030  1.00  0.00     0.077 C 
HETATM   19  C   UNL     1      44.452 -10.641   8.891  1.00  0.00     0.043 C 
BRANCH  19  20
HETATM   20  C   UNL     1      44.016  -9.696   9.858  1.00  0.00     0.077 A 
HETATM   21  O   UNL     1      43.415  -8.495   9.543  1.00  0.00    -0.310 OA
HETATM   22  C   UNL     1      43.109  -7.851  10.698  1.00  0.00     0.086 A 
HETATM   23  C   UNL     1      43.517  -8.600  11.789  1.00  0.00     0.000 A 
HETATM   24  C   UNL     1      42.473  -6.615  10.792  1.00  0.00     0.038 A 
HETATM   25  C   UNL     1      44.091  -9.777  11.244  1.00  0.00     0.051 A 
HETATM   26  C   UNL     1      43.296  -8.089  13.080  1.00  0.00     0.014 A 
HETATM   27  C   UNL     1      42.659  -6.845  13.209  1.00  0.00     0.001 A 
HETATM   28  C   UNL     1      42.252  -6.124  12.082  1.00  0.00     0.003 A 
ENDBRANCH  19  20
ENDBRANCH   2  18
TORSDOF 5
ENDMDL
MODEL 2
REMARK VINA RESULT:      -8.4      1.445      1.855
REMARK  5 active torsions:
REMARK  status: ('A' for Active; 'I' for Inactive)
REMARK    1  A    between atoms: C_2  and  O_3 
REMARK    2  A    between atoms: O_3  and  C_4 
REMARK    3  A    between atoms: C_5  and  N_6 
REMARK       I    between atoms: N_6  and  C_7 
REMARK    4  A    between atoms: C_7  and  C_8 
REMARK    5  A    between atoms: C_9  and  C_10 
ROOT
HETATM    1  N   UNL     1      43.306 -12.515   7.435  1.00  0.00    -0.321 N 
HETATM    2  C   UNL     1      44.228 -11.501   7.552  1.00  0.00     0.245 C 
HETATM    3  O   UNL     1      45.204 -11.300   6.843  1.00  0.00    -0.268 OA
HETATM    4  H   UNL     1      42.471 -12.478   8.009  1.00  0.00     0.169 HD
ENDROOT
BRANCH   1   5
HETATM    5  C   UNL     1      43.347 -13.615   6.550  1.00  0.00     0.071 A 
HETATM    6  C   UNL     1      42.678 -13.469   5.309  1.00  0.00     0.096 A 
HETATM    7  C   UNL     1      42.564 -14.528   4.405  1.00  0.00     0.049 A 
HETATM    8  C   UNL     1      43.185 -15.716   4.731  1.00  0.00    -0.020 A 
HETATM    9  C   UNL     1      43.875 -15.853   5.926  1.00  0.00     0.078 A 
HETATM   10  C   UNL     1      43.188 -17.010   4.011  1.00  0.00     0.073 C 
HETATM   11  C   UNL     1      43.968 -14.829   6.852  1.00  0.00     0.069 A 
HETATM   12  O   UNL     1      44.411 -17.103   6.107  1.00  0.00    -0.345 OA
HETATM   13  C   UNL     1      44.296 -17.724   4.800  1.00  0.00     0.129 C 
HETATM   14  C   UNL     1      44.019 -19.207   4.979  1.00  0.00     0.040 C 
BRANCH   6  15
HETATM   15  O   UNL     1      42.087 -12.272   4.979  1.00  0.00    -0.349 OA
BRANCH  15  16
HETATM   16  C   UNL     1      40.692 -12.458   4.681  1.00  0.00     0.171 C 
HETATM   17  C   UNL     1      39.880 -12.443   5.962  1.00  0.00     0.034 C 
ENDBRANCH  15  16
ENDBRANCH   6  15
ENDBRANCH   1   5
BRANCH   2  18
HETATM   18  C   UNL     1      43.876 -10.574   8.657  1.00  0.00     0.077 C 
HETATM   19  C   UNL     1      43.874 -11.022   9.920  1.00  0.00     0.043 C 
BRANCH  19  20
HETATM   20  C   UNL     1      43.527 -10.159  10.993  1.00  0.00     0.077 A 
HETATM   21  O   UNL     1      42.539 -10.437  11.915  1.00  0.00    -0.310 OA
HETATM   22  C   UNL     1      42.486  -9.416  12.809  1.00  0.00     0.086 A 
HETATM   23  C   UNL     1      43.415  -8.443  12.484  1.00  0.00     0.000 A 
HETATM   24  C   UNL     1      41.627  -9.344  13.904  1.00  0.00     0.038 A 
HETATM   25  C   UNL     1      44.078  -8.927  11.327  1.00  0.00     0.051 A 
HETATM   26  C   UNL     1      43.502  -7.296  13.292  1.00  0.00     0.014 A 
HETATM   27  C   UNL     1      42.649  -7.190  14.401  1.00  0.00     0.001 A 
HETATM   28  C   UNL     1      41.731  -8.200  14.702  1.00  0.00     0.003 A 
ENDBRANCH  19  20
ENDBRANCH   2  18
TORSDOF 5
ENDMDL
MODEL 3
REMARK VINA RESULT:      -8.4      7.547     11.055
REMARK  5 active torsions:
REMARK  status: ('A' for Active; 'I' for Inactive)
REMARK    1  A    between atoms: C_2  and  O_3 
REMARK    2  A    between atoms: O_3  and  C_4 
REMARK    3  A    between atoms: C_5  and  N_6 
REMARK       I    between atoms: N_6  and  C_7 
REMARK    4  A    between atoms: C_7  and  C_8 
REMARK    5  A    between atoms: C_9  and  C_10 
ROOT
HETATM    1  N   UNL     1      41.217 -13.088  -0.467  1.00  0.00    -0.321 N 
HETATM    2  C   UNL     1      40.319 -13.508   0.486  1.00  0.00     0.245 C 
HETATM    3  O   UNL     1      39.225 -13.024   0.740  1.00  0.00    -0.268 OA
HETATM    4  H   UNL     1      42.025 -13.668  -0.659  1.00  0.00     0.169 HD
ENDROOT
BRANCH   1   5
HETATM    5  C   UNL     1      41.130 -11.935  -1.279  1.00  0.00     0.071 A 
HETATM    6  C   UNL     1      40.779 -12.130  -2.639  1.00  0.00     0.096 A 
HETATM    7  C   UNL     1      40.767 -11.076  -3.556  1.00  0.00     0.049 A 
HETATM    8  C   UNL     1      41.050  -9.812  -3.079  1.00  0.00    -0.020 A 
HETATM    9  C   UNL     1      41.354  -9.609  -1.741  1.00  0.00     0.078 A 
HETATM   10  C   UNL     1      41.169  -8.531  -3.810  1.00  0.00     0.073 C 
HETATM   11  C   UNL     1      41.408 -10.645  -0.825  1.00  0.00     0.069 A 
HETATM   12  O   UNL     1      41.633  -8.300  -1.438  1.00  0.00    -0.345 OA
HETATM   13  C   UNL     1      41.195  -7.569  -2.613  1.00  0.00     0.129 C 
HETATM   14  C   UNL     1      42.124  -6.387  -2.836  1.00  0.00     0.040 C 
BRANCH   6  15
HETATM   15  O   UNL     1      40.471 -13.390  -3.100  1.00  0.00    -0.349 OA
BRANCH  15  16
HETATM   16  C   UNL     1      39.048 -13.597  -3.103  1.00  0.00     0.171 C 
HETATM   17  C   UNL     1      38.730 -15.035  -2.738  1.00  0.00     0.034 C 
ENDBRANCH  15  16
ENDBRANCH   6  15
ENDBRANCH   1   5
BRANCH   2  18
HETATM   18  C   UNL     1      40.806 -14.722   1.191  1.00  0.00     0.077 C 
HETATM   19  C   UNL     1      42.095 -14.808   1.545  1.00  0.00     0.043 C 
BRANCH  19  20
HETATM   20  C   UNL     1      42.588 -15.964   2.206  1.00  0.00     0.077 A 
HETATM   21  O   UNL     1      42.573 -17.229   1.657  1.00  0.00    -0.310 OA
HETATM   22  C   UNL     1      43.136 -18.090   2.543  1.00  0.00     0.086 A 
HETATM   23  C   UNL     1      43.511 -17.418   3.694  1.00  0.00     0.000 A 
HETATM   24  C   UNL     1      43.320 -19.456   2.340  1.00  0.00     0.038 A 
HETATM   25  C   UNL     1      43.162 -16.061   3.469  1.00  0.00     0.051 A 
HETATM   26  C   UNL     1      44.104 -18.148   4.739  1.00  0.00     0.014 A 
HETATM   27  C   UNL     1      44.301 -19.526   4.567  1.00  0.00     0.001 A 
HETATM   28  C   UNL     1      43.918 -20.166   3.385  1.00  0.00     0.003 A 
ENDBRANCH  19  20
ENDBRANCH   2  18
TORSDOF 5
ENDMDL
MODEL 4
REMARK VINA RESULT:      -8.2      1.964      9.650
REMARK  5 active torsions:
REMARK  status: ('A' for Active; 'I' for Inactive)
REMARK    1  A    between atoms: C_2  and  O_3 
REMARK    2  A    between atoms: O_3  and  C_4 
REMARK    3  A    between atoms: C_5  and  N_6 
REMARK       I    between atoms: N_6  and  C_7 
REMARK    4  A    between atoms: C_7  and  C_8 
REMARK    5  A    between atoms: C_9  and  C_10 
ROOT
HETATM    1  N   UNL     1      42.902 -10.675   8.049  1.00  0.00    -0.321 N 
HETATM    2  C   UNL     1      42.487 -10.235   6.814  1.00  0.00     0.245 C 
HETATM    3  O   UNL     1      42.211  -9.089   6.489  1.00  0.00    -0.268 OA
HETATM    4  H   UNL     1      43.228 -11.631   8.138  1.00  0.00     0.169 HD
ENDROOT
BRANCH   1   5
HETATM    5  C   UNL     1      42.985  -9.927   9.244  1.00  0.00     0.071 A 
HETATM    6  C   UNL     1      44.214  -9.971   9.948  1.00  0.00     0.096 A 
HETATM    7  C   UNL     1      44.373  -9.357  11.193  1.00  0.00     0.049 A 
HETATM    8  C   UNL     1      43.304  -8.642  11.694  1.00  0.00    -0.020 A 
HETATM    9  C   UNL     1      42.111  -8.561  10.991  1.00  0.00     0.078 A 
HETATM   10  C   UNL     1      43.157  -7.945  12.992  1.00  0.00     0.073 C 
HETATM   11  C   UNL     1      41.921  -9.194   9.774  1.00  0.00     0.069 A 
HETATM   12  O   UNL     1      41.145  -7.834  11.638  1.00  0.00    -0.345 OA
HETATM   13  C   UNL     1      41.867  -7.163  12.703  1.00  0.00     0.129 C 
HETATM   14  C   UNL     1      40.967  -7.057  13.922  1.00  0.00     0.040 C 
BRANCH   6  15
HETATM   15  O   UNL     1      45.284 -10.662   9.428  1.00  0.00    -0.349 OA
BRANCH  15  16
HETATM   16  C   UNL     1      45.991  -9.859   8.468  1.00  0.00     0.171 C 
HETATM   17  C   UNL     1      46.330 -10.689   7.244  1.00  0.00     0.034 C 
ENDBRANCH  15  16
ENDBRANCH   6  15
ENDBRANCH   1   5
BRANCH   2  18
HETATM   18  C   UNL     1      42.457 -11.343   5.826  1.00  0.00     0.077 C 
HETATM   19  C   UNL     1      43.047 -12.509   6.123  1.00  0.00     0.043 C 
BRANCH  19  20
HETATM   20  C   UNL     1      43.046 -13.579   5.188  1.00  0.00     0.077 A 
HETATM   21  O   UNL     1      43.099 -13.406   3.821  1.00  0.00    -0.310 OA
HETATM   22  C   UNL     1      43.102 -14.630   3.233  1.00  0.00     0.086 A 
HETATM   23  C   UNL     1      43.030 -15.626   4.193  1.00  0.00     0.000 A 
HETATM   24  C   UNL     1      43.170 -14.869   1.862  1.00  0.00     0.038 A 
HETATM   25  C   UNL     1      42.999 -14.946   5.438  1.00  0.00     0.051 A 
HETATM   26  C   UNL     1      43.010 -16.967   3.774  1.00  0.00     0.014 A 
HETATM   27  C   UNL     1      43.074 -17.242   2.400  1.00  0.00     0.001 A 
HETATM   28  C   UNL     1      43.157 -16.209   1.462  1.00  0.00     0.003 A 
ENDBRANCH  19  20
ENDBRANCH   2  18
TORSDOF 5
ENDMDL
MODEL 5
REMARK VINA RESULT:      -8.2      1.704      9.462
REMARK  5 active torsions:
REMARK  status: ('A' for Active; 'I' for Inactive)
REMARK    1  A    between atoms: C_2  and  O_3 
REMARK    2  A    between atoms: O_3  and  C_4 
REMARK    3  A    between atoms: C_5  and  N_6 
REMARK       I    between atoms: N_6  and  C_7 
REMARK    4  A    between atoms: C_7  and  C_8 
REMARK    5  A    between atoms: C_9  and  C_10 
ROOT
HETATM    1  N   UNL     1      43.538 -11.125   8.302  1.00  0.00    -0.321 N 
HETATM    2  C   UNL     1      44.748 -11.330   7.681  1.00  0.00     0.245 C 
HETATM    3  O   UNL     1      45.787 -10.708   7.856  1.00  0.00    -0.268 OA
HETATM    4  H   UNL     1      42.800 -11.805   8.160  1.00  0.00     0.169 HD
ENDROOT
BRANCH   1   5
HETATM    5  C   UNL     1      43.193 -10.078   9.185  1.00  0.00     0.071 A 
HETATM    6  C   UNL     1      42.713  -8.877   8.605  1.00  0.00     0.096 A 
HETATM    7  C   UNL     1      42.443  -7.743   9.375  1.00  0.00     0.049 A 
HETATM    8  C   UNL     1      42.599  -7.848  10.742  1.00  0.00    -0.020 A 
HETATM    9  C   UNL     1      43.029  -9.033  11.320  1.00  0.00     0.078 A 
HETATM   10  C   UNL     1      42.448  -6.816  11.793  1.00  0.00     0.073 C 
HETATM   11  C   UNL     1      43.338 -10.155  10.572  1.00  0.00     0.069 A 
HETATM   12  O   UNL     1      43.154  -8.961  12.684  1.00  0.00    -0.345 OA
HETATM   13  C   UNL     1      42.480  -7.723  13.032  1.00  0.00     0.129 C 
HETATM   14  C   UNL     1      43.199  -7.080  14.206  1.00  0.00     0.040 C 
BRANCH   6  15
HETATM   15  O   UNL     1      42.534  -8.790   7.244  1.00  0.00    -0.349 OA
BRANCH  15  16
HETATM   16  C   UNL     1      41.139  -8.881   6.907  1.00  0.00     0.171 C 
HETATM   17  C   UNL     1      40.885 -10.124   6.073  1.00  0.00     0.034 C 
ENDBRANCH  15  16
ENDBRANCH   6  15
ENDBRANCH   1   5
BRANCH   2  18
HETATM   18  C   UNL     1      44.693 -12.492   6.758  1.00  0.00     0.077 C 
HETATM   19  C   UNL     1      43.682 -13.366   6.856  1.00  0.00     0.043 C 
BRANCH  19  20
HETATM   20  C   UNL     1      43.615 -14.494   5.995  1.00  0.00     0.077 A 
HETATM   21  O   UNL     1      43.083 -14.460   4.723  1.00  0.00    -0.310 OA
HETATM   22  C   UNL     1      43.197 -15.698   4.176  1.00  0.00     0.086 A 
HETATM   23  C   UNL     1      43.783 -16.570   5.078  1.00  0.00     0.000 A 
HETATM   24  C   UNL     1      42.791 -16.056   2.893  1.00  0.00     0.038 A 
HETATM   25  C   UNL     1      44.050 -15.793   6.234  1.00  0.00     0.051 A 
HETATM   26  C   UNL     1      43.975 -17.909   4.695  1.00  0.00     0.014 A 
HETATM   27  C   UNL     1      43.574 -18.303   3.409  1.00  0.00     0.001 A 
HETATM   28  C   UNL     1      42.996 -17.389   2.524  1.00  0.00     0.003 A 
ENDBRANCH  19  20
ENDBRANCH   2  18
TORSDOF 5
ENDMDL
MODEL 6
REMARK VINA RESULT:      -8.1      1.611      2.337
REMARK  5 active torsions:
REMARK  status: ('A' for Active; 'I' for Inactive)
REMARK    1  A    between atoms: C_2  and  O_3 
REMARK    2  A    between atoms: O_3  and  C_4 
REMARK    3  A    between atoms: C_5  and  N_6 
REMARK       I    between atoms: N_6  and  C_7 
REMARK    4  A    between atoms: C_7  and  C_8 
REMARK    5  A    between atoms: C_9  and  C_10 
ROOT
HETATM    1  N   UNL     1      42.684 -13.923   5.364  1.00  0.00    -0.321 N 
HETATM    2  C   UNL     1      43.322 -12.715   5.210  1.00  0.00     0.245 C 
HETATM    3  O   UNL     1      44.007 -12.353   4.263  1.00  0.00    -0.268 OA
HETATM    4  H   UNL     1      42.037 -14.033   6.137  1.00  0.00     0.169 HD
ENDROOT
BRANCH   1   5
HETATM    5  C   UNL     1      42.774 -15.056   4.525  1.00  0.00     0.071 A 
HETATM    6  C   UNL     1      42.032 -15.025   3.318  1.00  0.00     0.096 A 
HETATM    7  C   UNL     1      41.964 -16.130   2.466  1.00  0.00     0.049 A 
HETATM    8  C   UNL     1      42.701 -17.245   2.807  1.00  0.00    -0.020 A 
HETATM    9  C   UNL     1      43.462 -17.267   3.966  1.00  0.00     0.078 A 
HETATM   10  C   UNL     1      42.780 -18.566   2.142  1.00  0.00     0.073 C 
HETATM   11  C   UNL     1      43.513 -16.197   4.842  1.00  0.00     0.069 A 
HETATM   12  O   UNL     1      44.113 -18.458   4.169  1.00  0.00    -0.345 OA
HETATM   13  C   UNL     1      43.985 -19.147   2.898  1.00  0.00     0.129 C 
HETATM   14  C   UNL     1      43.848 -20.638   3.154  1.00  0.00     0.040 C 
BRANCH   6  15
HETATM   15  O   UNL     1      41.322 -13.898   2.971  1.00  0.00    -0.349 OA
BRANCH  15  16
HETATM   16  C   UNL     1      39.911 -14.174   2.942  1.00  0.00     0.171 C 
HETATM   17  C   UNL     1      39.134 -12.888   2.732  1.00  0.00     0.034 C 
ENDBRANCH  15  16
ENDBRANCH   6  15
ENDBRANCH   1   5
BRANCH   2  18
HETATM   18  C   UNL     1      43.040 -11.803   6.347  1.00  0.00     0.077 C 
HETATM   19  C   UNL     1      44.030 -11.465   7.184  1.00  0.00     0.043 C 
BRANCH  19  20
HETATM   20  C   UNL     1      43.782 -10.607   8.289  1.00  0.00     0.077 A 
HETATM   21  O   UNL     1      43.788 -11.024   9.603  1.00  0.00    -0.310 OA
HETATM   22  C   UNL     1      43.537  -9.950  10.396  1.00  0.00     0.086 A 
HETATM   23  C   UNL     1      43.341  -8.818   9.624  1.00  0.00     0.000 A 
HETATM   24  C   UNL     1      43.483  -9.968  11.788  1.00  0.00     0.038 A 
HETATM   25  C   UNL     1      43.503  -9.244   8.281  1.00  0.00     0.051 A 
HETATM   26  C   UNL     1      43.054  -7.602  10.270  1.00  0.00     0.014 A 
HETATM   27  C   UNL     1      42.990  -7.586  11.672  1.00  0.00     0.001 A 
HETATM   28  C   UNL     1      43.205  -8.750  12.416  1.00  0.00     0.003 A 
ENDBRANCH  19  20
ENDBRANCH   2  18
TORSDOF 5
ENDMDL
MODEL 7
REMARK VINA RESULT:      -7.8      2.367      3.101
REMARK  5 active torsions:
REMARK  status: ('A' for Active; 'I' for Inactive)
REMARK    1  A    between atoms: C_2  and  O_3 
REMARK    2  A    between atoms: O_3  and  C_4 
REMARK    3  A    between atoms: C_5  and  N_6 
REMARK       I    between atoms: N_6  and  C_7 
REMARK    4  A    between atoms: C_7  and  C_8 
REMARK    5  A    between atoms: C_9  and  C_10 
ROOT
HETATM    1  N   UNL     1      42.678 -14.138   4.874  1.00  0.00    -0.321 N 
HETATM    2  C   UNL     1      41.449 -13.668   5.272  1.00  0.00     0.245 C 
HETATM    3  O   UNL     1      40.376 -14.252   5.212  1.00  0.00    -0.268 OA
HETATM    4  H   UNL     1      43.502 -13.598   5.110  1.00  0.00     0.169 HD
ENDROOT
BRANCH   1   5
HETATM    5  C   UNL     1      42.958 -15.348   4.199  1.00  0.00     0.071 A 
HETATM    6  C   UNL     1      42.772 -15.359   2.794  1.00  0.00     0.096 A 
HETATM    7  C   UNL     1      42.917 -16.527   2.041  1.00  0.00     0.049 A 
HETATM    8  C   UNL     1      43.312 -17.670   2.706  1.00  0.00    -0.020 A 
HETATM    9  C   UNL     1      43.535 -17.656   4.075  1.00  0.00     0.078 A 
HETATM   10  C   UNL     1      43.488 -19.049   2.194  1.00  0.00     0.073 C 
HETATM   11  C   UNL     1      43.360 -16.519   4.844  1.00  0.00     0.069 A 
HETATM   12  O   UNL     1      43.898 -18.878   4.581  1.00  0.00    -0.345 OA
HETATM   13  C   UNL     1      44.207 -19.667   3.402  1.00  0.00     0.129 C 
HETATM   14  C   UNL     1      43.796 -21.108   3.649  1.00  0.00     0.040 C 
BRANCH   6  15
HETATM   15  O   UNL     1      42.406 -14.208   2.135  1.00  0.00    -0.349 OA
BRANCH  15  16
HETATM   16  C   UNL     1      41.386 -14.483   1.160  1.00  0.00     0.171 C 
HETATM   17  C   UNL     1      40.013 -14.254   1.764  1.00  0.00     0.034 C 
ENDBRANCH  15  16
ENDBRANCH   6  15
ENDBRANCH   1   5
BRANCH   2  18
HETATM   18  C   UNL     1      41.555 -12.315   5.875  1.00  0.00     0.077 C 
HETATM   19  C   UNL     1      42.725 -11.911   6.389  1.00  0.00     0.043 C 
BRANCH  19  20
HETATM   20  C   UNL     1      42.849 -10.628   6.985  1.00  0.00     0.077 A 
HETATM   21  O   UNL     1      41.964  -9.593   6.773  1.00  0.00    -0.310 OA
HETATM   22  C   UNL     1      42.367  -8.525   7.508  1.00  0.00     0.086 A 
HETATM   23  C   UNL     1      43.529  -8.827   8.198  1.00  0.00     0.000 A 
HETATM   24  C   UNL     1      41.716  -7.295   7.573  1.00  0.00     0.038 A 
HETATM   25  C   UNL     1      43.828 -10.172   7.862  1.00  0.00     0.051 A 
HETATM   26  C   UNL     1      44.109  -7.836   9.009  1.00  0.00     0.014 A 
HETATM   27  C   UNL     1      43.479  -6.585   9.095  1.00  0.00     0.001 A 
HETATM   28  C   UNL     1      42.301  -6.323   8.391  1.00  0.00     0.003 A 
ENDBRANCH  19  20
ENDBRANCH   2  18
TORSDOF 5
ENDMDL
MODEL 8
REMARK VINA RESULT:      -7.5      7.368     11.016
REMARK  5 active torsions:
REMARK  status: ('A' for Active; 'I' for Inactive)
REMARK    1  A    between atoms: C_2  and  O_3 
REMARK    2  A    between atoms: O_3  and  C_4 
REMARK    3  A    between atoms: C_5  and  N_6 
REMARK       I    between atoms: N_6  and  C_7 
REMARK    4  A    between atoms: C_7  and  C_8 
REMARK    5  A    between atoms: C_9  and  C_10 
ROOT
HETATM    1  N   UNL     1      39.531 -13.364   1.171  1.00  0.00    -0.321 N 
HETATM    2  C   UNL     1      40.855 -13.374   1.540  1.00  0.00     0.245 C 
HETATM    3  O   UNL     1      41.657 -12.455   1.453  1.00  0.00    -0.268 OA
HETATM    4  H   UNL     1      38.951 -14.155   1.428  1.00  0.00     0.169 HD
ENDROOT
BRANCH   1   5
HETATM    5  C   UNL     1      38.834 -12.334   0.500  1.00  0.00     0.071 A 
HETATM    6  C   UNL     1      38.722 -12.444  -0.908  1.00  0.00     0.096 A 
HETATM    7  C   UNL     1      38.148 -11.433  -1.683  1.00  0.00     0.049 A 
HETATM    8  C   UNL     1      37.629 -10.338  -1.021  1.00  0.00    -0.020 A 
HETATM    9  C   UNL     1      37.699 -10.244   0.361  1.00  0.00     0.078 A 
HETATM   10  C   UNL     1      37.022  -9.103  -1.567  1.00  0.00     0.073 C 
HETATM   11  C   UNL     1      38.297 -11.217   1.143  1.00  0.00     0.069 A 
HETATM   12  O   UNL     1      37.160  -9.085   0.857  1.00  0.00    -0.345 OA
HETATM   13  C   UNL     1      36.434  -8.526  -0.270  1.00  0.00     0.129 C 
HETATM   14  C   UNL     1      36.523  -7.011  -0.215  1.00  0.00     0.040 C 
BRANCH   6  15
HETATM   15  O   UNL     1      39.216 -13.552  -1.558  1.00  0.00    -0.349 OA
BRANCH  15  16
HETATM   16  C   UNL     1      38.880 -13.515  -2.955  1.00  0.00     0.171 C 
HETATM   17  C   UNL     1      38.290 -14.847  -3.383  1.00  0.00     0.034 C 
ENDBRANCH  15  16
ENDBRANCH   6  15
ENDBRANCH   1   5
BRANCH   2  18
HETATM   18  C   UNL     1      41.238 -14.674   2.149  1.00  0.00     0.077 C 
HETATM   19  C   UNL     1      42.467 -15.165   1.938  1.00  0.00     0.043 C 
BRANCH  19  20
HETATM   20  C   UNL     1      42.852 -16.413   2.497  1.00  0.00     0.077 A 
HETATM   21  O   UNL     1      42.785 -17.612   1.820  1.00  0.00    -0.310 OA
HETATM   22  C   UNL     1      43.247 -18.594   2.637  1.00  0.00     0.086 A 
HETATM   23  C   UNL     1      43.606 -18.067   3.866  1.00  0.00     0.000 A 
HETATM   24  C   UNL     1      43.355 -19.942   2.301  1.00  0.00     0.038 A 
HETATM   25  C   UNL     1      43.355 -16.675   3.767  1.00  0.00     0.051 A 
HETATM   26  C   UNL     1      44.098 -18.937   4.855  1.00  0.00     0.014 A 
HETATM   27  C   UNL     1      44.217 -20.301   4.550  1.00  0.00     0.001 A 
HETATM   28  C   UNL     1      43.854 -20.792   3.293  1.00  0.00     0.003 A 
ENDBRANCH  19  20
ENDBRANCH   2  18
TORSDOF 5
ENDMDL
MODEL 9
REMARK VINA RESULT:      -7.4      3.985      5.973
REMARK  5 active torsions:
REMARK  status: ('A' for Active; 'I' for Inactive)
REMARK    1  A    between atoms: C_2  and  O_3 
REMARK    2  A    between atoms: O_3  and  C_4 
REMARK    3  A    between atoms: C_5  and  N_6 
REMARK       I    between atoms: N_6  and  C_7 
REMARK    4  A    between atoms: C_7  and  C_8 
REMARK    5  A    between atoms: C_9  and  C_10 
ROOT
HETATM    1  N   UNL     1      41.822 -11.460   2.252  1.00  0.00    -0.321 N 
HETATM    2  C   UNL     1      42.810 -12.037   3.015  1.00  0.00     0.245 C 
HETATM    3  O   UNL     1      43.595 -12.911   2.675  1.00  0.00    -0.268 OA
HETATM    4  H   UNL     1      41.337 -10.650   2.620  1.00  0.00     0.169 HD
ENDROOT
BRANCH   1   5
HETATM    5  C   UNL     1      41.415 -11.830   0.950  1.00  0.00     0.071 A 
HETATM    6  C   UNL     1      41.579 -10.865  -0.075  1.00  0.00     0.096 A 
HETATM    7  C   UNL     1      41.114 -11.084  -1.374  1.00  0.00     0.049 A 
HETATM    8  C   UNL     1      40.541 -12.309  -1.649  1.00  0.00    -0.020 A 
HETATM    9  C   UNL     1      40.415 -13.273  -0.660  1.00  0.00     0.078 A 
HETATM   10  C   UNL     1      39.915 -12.801  -2.897  1.00  0.00     0.073 C 
HETATM   11  C   UNL     1      40.835 -13.061   0.642  1.00  0.00     0.069 A 
HETATM   12  O   UNL     1      39.804 -14.422  -1.093  1.00  0.00    -0.345 OA
HETATM   13  C   UNL     1      39.795 -14.290  -2.539  1.00  0.00     0.129 C 
HETATM   14  C   UNL     1      38.525 -14.919  -3.086  1.00  0.00     0.040 C 
BRANCH   6  15
HETATM   15  O   UNL     1      42.177  -9.657   0.201  1.00  0.00    -0.349 OA
BRANCH  15  16
HETATM   16  C   UNL     1      41.667  -8.627  -0.662  1.00  0.00     0.171 C 
HETATM   17  C   UNL     1      42.804  -7.748  -1.152  1.00  0.00     0.034 C 
ENDBRANCH  15  16
ENDBRANCH   6  15
ENDBRANCH   1   5
BRANCH   2  18
HETATM   18  C   UNL     1      42.881 -11.421   4.365  1.00  0.00     0.077 C 
HETATM   19  C   UNL     1      43.948 -11.653   5.141  1.00  0.00     0.043 C 
BRANCH  19  20
HETATM   20  C   UNL     1      44.033 -11.089   6.441  1.00  0.00     0.077 A 
HETATM   21  O   UNL     1      42.989 -10.445   7.070  1.00  0.00    -0.310 OA
HETATM   22  C   UNL     1      43.405 -10.050   8.301  1.00  0.00     0.086 A 
HETATM   23  C   UNL     1      44.729 -10.405   8.498  1.00  0.00     0.000 A 
HETATM   24  C   UNL     1      42.625  -9.385   9.244  1.00  0.00     0.038 A 
HETATM   25  C   UNL     1      45.121 -11.071   7.308  1.00  0.00     0.051 A 
HETATM   26  C   UNL     1      45.344 -10.068   9.716  1.00  0.00     0.014 A 
HETATM   27  C   UNL     1      44.587  -9.395  10.687  1.00  0.00     0.001 A 
HETATM   28  C   UNL     1      43.249  -9.064  10.454  1.00  0.00     0.003 A 
ENDBRANCH  19  20
ENDBRANCH   2  18
TORSDOF 5
ENDMDL
MODEL 10
REMARK VINA RESULT:      -7.4      3.443      5.581
REMARK  5 active torsions:
REMARK  status: ('A' for Active; 'I' for Inactive)
REMARK    1  A    between atoms: C_2  and  O_3 
REMARK    2  A    between atoms: O_3  and  C_4 
REMARK    3  A    between atoms: C_5  and  N_6 
REMARK       I    between atoms: N_6  and  C_7 
REMARK    4  A    between atoms: C_7  and  C_8 
REMARK    5  A    between atoms: C_9  and  C_10 
ROOT
HETATM    1  N   UNL     1      41.067 -12.164   3.196  1.00  0.00    -0.321 N 
HETATM    2  C   UNL     1      42.135 -11.301   3.265  1.00  0.00     0.245 C 
HETATM    3  O   UNL     1      42.827 -10.901   2.339  1.00  0.00    -0.268 OA
HETATM    4  H   UNL     1      40.500 -12.299   4.025  1.00  0.00     0.169 HD
ENDROOT
BRANCH   1   5
HETATM    5  C   UNL     1      40.608 -12.874   2.064  1.00  0.00     0.071 A 
HETATM    6  C   UNL     1      41.026 -14.223   1.937  1.00  0.00     0.096 A 
HETATM    7  C   UNL     1      40.720 -14.986   0.807  1.00  0.00     0.049 A 
HETATM    8  C   UNL     1      39.935 -14.400  -0.165  1.00  0.00    -0.020 A 
HETATM    9  C   UNL     1      39.488 -13.094  -0.027  1.00  0.00     0.078 A 
HETATM   10  C   UNL     1      39.502 -14.931  -1.478  1.00  0.00     0.073 C 
HETATM   11  C   UNL     1      39.812 -12.310   1.066  1.00  0.00     0.069 A 
HETATM   12  O   UNL     1      38.741 -12.658  -1.091  1.00  0.00    -0.345 OA
HETATM   13  C   UNL     1      38.449 -13.871  -1.834  1.00  0.00     0.129 C 
HETATM   14  C   UNL     1      38.427 -13.549  -3.319  1.00  0.00     0.040 C 
BRANCH   6  15
HETATM   15  O   UNL     1      41.785 -14.808   2.924  1.00  0.00    -0.349 OA
BRANCH  15  16
HETATM   16  C   UNL     1      41.343 -16.153   3.176  1.00  0.00     0.171 C 
HETATM   17  C   UNL     1      42.529 -17.100   3.172  1.00  0.00     0.034 C 
ENDBRANCH  15  16
ENDBRANCH   6  15
ENDBRANCH   1   5
BRANCH   2  18
HETATM   18  C   UNL     1      42.353 -10.818   4.652  1.00  0.00     0.077 C 
HETATM   19  C   UNL     1      43.438 -11.218   5.328  1.00  0.00     0.043 C 
BRANCH  19  20
HETATM   20  C   UNL     1      43.661 -10.783   6.661  1.00  0.00     0.077 A 
HETATM   21  O   UNL     1      42.701 -10.176   7.443  1.00  0.00    -0.310 OA
HETATM   22  C   UNL     1      43.242  -9.911   8.661  1.00  0.00     0.086 A 
HETATM   23  C   UNL     1      44.566 -10.315   8.697  1.00  0.00     0.000 A 
HETATM   24  C   UNL     1      42.575  -9.320   9.731  1.00  0.00     0.038 A 
HETATM   25  C   UNL     1      44.824 -10.874   7.419  1.00  0.00     0.051 A 
HETATM   26  C   UNL     1      45.302 -10.111   9.877  1.00  0.00     0.014 A 
HETATM   27  C   UNL     1      44.660  -9.516  10.974  1.00  0.00     0.001 A 
HETATM   28  C   UNL     1      43.318  -9.131  10.901  1.00  0.00     0.003 A 
ENDBRANCH  19  20
ENDBRANCH   2  18
TORSDOF 5
ENDMDL
