MODEL 1
REMARK VINA RESULT:      -9.5      0.000      0.000
REMARK  6 active torsions:
REMARK  status: ('A' for Active; 'I' for Inactive)
REMARK    1  A    between atoms: N_2  and  C_5 
REMARK    2  A    between atoms: C_10  and  N_11 
REMARK       I    between atoms: N_11  and  C_12 
REMARK    3  A    between atoms: C_12  and  C_14 
REMARK    4  A    between atoms: C_18  and  C_20 
REMARK       I    between atoms: N_24  and  C_25 
REMARK    5  A    between atoms: C_25  and  C_27 
REMARK    6  A    between atoms: C_32  and  O_33 
ROOT
HETATM    1  C   UNL     1      44.392 -10.913   8.076  1.00  0.00     0.033 A 
HETATM    2  C   UNL     1      45.431  -9.975   8.072  1.00  0.00     0.017 A 
HETATM    3  C   UNL     1      45.465  -8.954   9.021  1.00  0.00     0.002 A 
HETATM    4  C   UNL     1      44.460  -8.863   9.982  1.00  0.00     0.009 A 
HETATM    5  C   UNL     1      43.407  -9.792  10.009  1.00  0.00    -0.034 A 
HETATM    6  C   UNL     1      43.396 -10.830   9.060  1.00  0.00     0.026 A 
ENDROOT
BRANCH   5   7
HETATM    7  C   UNL     1      42.289  -9.689  11.026  1.00  0.00     0.120 C 
HETATM    8  C   UNL     1      42.817  -9.826  12.464  1.00  0.00     0.032 C 
HETATM    9  C   UNL     1      41.799  -9.044  13.283  1.00  0.00     0.022 C 
HETATM   10  C   UNL     1      41.466  -7.870  12.375  1.00  0.00     0.127 C 
HETATM   11  N   UNL     1      41.566  -8.412  11.029  1.00  0.00    -0.339 N 
HETATM   12  C   UNL     1      40.890  -7.796   9.991  1.00  0.00     0.254 C 
HETATM   13  O   UNL     1      40.268  -6.745  10.108  1.00  0.00    -0.267 OA
BRANCH  12  14
HETATM   14  C   UNL     1      40.943  -8.419   8.656  1.00  0.00     0.033 A 
HETATM   15  C   UNL     1      41.830  -7.899   7.713  1.00  0.00     0.018 A 
HETATM   16  C   UNL     1      41.960  -8.525   6.475  1.00  0.00     0.013 A 
HETATM   17  C   UNL     1      41.189  -9.655   6.162  1.00  0.00    -0.023 A 
HETATM   18  C   UNL     1      41.331 -10.306   4.926  1.00  0.00     0.048 A 
HETATM   19  C   UNL     1      40.250 -10.145   7.104  1.00  0.00    -0.025 A 
HETATM   20  C   UNL     1      40.543 -11.413   4.627  1.00  0.00     0.066 A 
HETATM   21  C   UNL     1      39.604 -11.885   5.535  1.00  0.00     0.037 A 
HETATM   22  C   UNL     1      39.458 -11.256   6.771  1.00  0.00     0.015 A 
HETATM   23  C   UNL     1      40.131  -9.514   8.352  1.00  0.00     0.029 A 
BRANCH  20  24
HETATM   24  O   UNL     1      40.664 -12.070   3.438  1.00  0.00    -0.361 OA
HETATM   25  H   UNL     1      41.203 -11.523   2.840  1.00  0.00     0.217 HD
ENDBRANCH  20  24
ENDBRANCH  12  14
ENDBRANCH   5   7
BRANCH   1  26
HETATM   26  C   UNL     1      44.423 -12.004   7.054  1.00  0.00     0.257 C 
HETATM   27  N   UNL     1      43.273 -12.756   6.943  1.00  0.00    -0.301 N 
HETATM   28  H   UNL     1      42.423 -12.495   7.418  1.00  0.00     0.171 HD
HETATM   29  O   UNL     1      45.449 -12.143   6.396  1.00  0.00    -0.267 OA
BRANCH  27  30
HETATM   30  C   UNL     1      43.221 -13.870   6.152  1.00  0.00     0.174 A 
HETATM   31  N   UNL     1      42.982 -13.968   4.867  1.00  0.00    -0.228 NA
HETATM   32  C   UNL     1      43.060 -15.279   4.480  1.00  0.00     0.050 A 
HETATM   33  C   UNL     1      42.823 -15.675   3.064  1.00  0.00     0.062 C 
HETATM   34  C   UNL     1      43.406 -16.166   5.478  1.00  0.00     0.013 A 
HETATM   35  C   UNL     1      42.608 -17.196   2.948  1.00  0.00     0.039 C 
HETATM   36  C   UNL     1      43.656 -17.966   3.782  1.00  0.00     0.192 C 
HETATM   37  C   UNL     1      43.565 -17.637   5.302  1.00  0.00     0.081 C 
HETATM   38  S   UNL     1      43.579 -15.340   6.959  1.00  0.00    -0.055 SA
BRANCH  36  39
HETATM   39  N   UNL     1      43.574 -19.480   3.547  1.00  0.00    -0.074 N 
HETATM   40  C   UNL     1      43.933 -19.953   2.161  1.00  0.00     0.269 C 
HETATM   41  H   UNL     1      42.585 -19.735   3.684  1.00  0.00     0.279 HD
HETATM   42  C   UNL     1      44.324 -20.272   4.593  1.00  0.00     0.269 C 
ENDBRANCH  36  39
ENDBRANCH  27  30
ENDBRANCH   1  26
TORSDOF 6
ENDMDL
MODEL 2
REMARK VINA RESULT:      -8.9      1.590      2.471
REMARK  6 active torsions:
REMARK  status: ('A' for Active; 'I' for Inactive)
REMARK    1  A    between atoms: N_2  and  C_5 
REMARK    2  A    between atoms: C_10  and  N_11 
REMARK       I    between atoms: N_11  and  C_12 
REMARK    3  A    between atoms: C_12  and  C_14 
REMARK    4  A    between atoms: C_18  and  C_20 
REMARK       I    between atoms: N_24  and  C_25 
REMARK    5  A    between atoms: C_25  and  C_27 
REMARK    6  A    between atoms: C_32  and  O_33 
ROOT
HETATM    1  C   UNL     1      43.715  -9.515   8.958  1.00  0.00     0.033 A 
HETATM    2  C   UNL     1      44.054  -8.292   8.366  1.00  0.00     0.017 A 
HETATM    3  C   UNL     1      43.778  -7.091   9.018  1.00  0.00     0.002 A 
HETATM    4  C   UNL     1      43.162  -7.102  10.268  1.00  0.00     0.009 A 
HETATM    5  C   UNL     1      42.814  -8.315  10.885  1.00  0.00    -0.034 A 
HETATM    6  C   UNL     1      43.117  -9.521  10.226  1.00  0.00     0.026 A 
ENDROOT
BRANCH   5   7
HETATM    7  C   UNL     1      42.114  -8.346  12.228  1.00  0.00     0.120 C 
HETATM    8  C   UNL     1      43.061  -7.939  13.370  1.00  0.00     0.032 C 
HETATM    9  C   UNL     1      42.116  -7.367  14.417  1.00  0.00     0.022 C 
HETATM   10  C   UNL     1      41.083  -6.636  13.575  1.00  0.00     0.127 C 
HETATM   11  N   UNL     1      40.978  -7.426  12.360  1.00  0.00    -0.339 N 
HETATM   12  C   UNL     1      39.832  -7.349  11.588  1.00  0.00     0.254 C 
HETATM   13  O   UNL     1      38.909  -6.572  11.812  1.00  0.00    -0.267 OA
BRANCH  12  14
HETATM   14  C   UNL     1      39.723  -8.225  10.409  1.00  0.00     0.033 A 
HETATM   15  C   UNL     1      39.241  -9.522  10.585  1.00  0.00     0.018 A 
HETATM   16  C   UNL     1      39.048 -10.339   9.472  1.00  0.00     0.013 A 
HETATM   17  C   UNL     1      39.359  -9.877   8.184  1.00  0.00    -0.023 A 
HETATM   18  C   UNL     1      39.146 -10.685   7.056  1.00  0.00     0.048 A 
HETATM   19  C   UNL     1      39.901  -8.577   8.019  1.00  0.00    -0.025 A 
HETATM   20  C   UNL     1      39.479 -10.214   5.790  1.00  0.00     0.066 A 
HETATM   21  C   UNL     1      40.032  -8.952   5.621  1.00  0.00     0.037 A 
HETATM   22  C   UNL     1      40.240  -8.133   6.730  1.00  0.00     0.015 A 
HETATM   23  C   UNL     1      40.084  -7.758   9.143  1.00  0.00     0.029 A 
BRANCH  20  24
HETATM   24  O   UNL     1      39.276 -10.974   4.674  1.00  0.00    -0.361 OA
HETATM   25  H   UNL     1      39.799 -11.790   4.761  1.00  0.00     0.217 HD
ENDBRANCH  20  24
ENDBRANCH  12  14
ENDBRANCH   5   7
BRANCH   1  26
HETATM   26  C   UNL     1      44.063 -10.772   8.227  1.00  0.00     0.257 C 
HETATM   27  N   UNL     1      43.047 -11.334   7.484  1.00  0.00    -0.301 N 
HETATM   28  H   UNL     1      42.174 -10.853   7.331  1.00  0.00     0.171 HD
HETATM   29  O   UNL     1      45.208 -11.199   8.334  1.00  0.00    -0.267 OA
BRANCH  27  30
HETATM   30  C   UNL     1      43.190 -12.556   6.886  1.00  0.00     0.174 A 
HETATM   31  N   UNL     1      43.632 -13.682   7.389  1.00  0.00    -0.228 NA
HETATM   32  C   UNL     1      43.574 -14.667   6.440  1.00  0.00     0.050 A 
HETATM   33  C   UNL     1      44.025 -16.053   6.747  1.00  0.00     0.062 C 
HETATM   34  C   UNL     1      43.041 -14.284   5.227  1.00  0.00     0.013 A 
HETATM   35  C   UNL     1      44.205 -16.871   5.455  1.00  0.00     0.039 C 
HETATM   36  C   UNL     1      43.011 -16.660   4.497  1.00  0.00     0.192 C 
HETATM   37  C   UNL     1      42.864 -15.176   4.047  1.00  0.00     0.081 C 
HETATM   38  S   UNL     1      42.657 -12.623   5.258  1.00  0.00    -0.055 SA
BRANCH  36  39
HETATM   39  N   UNL     1      43.079 -17.594   3.281  1.00  0.00    -0.074 N 
HETATM   40  C   UNL     1      43.225 -16.920   1.940  1.00  0.00     0.269 C 
HETATM   41  H   UNL     1      42.175 -18.086   3.252  1.00  0.00     0.279 HD
HETATM   42  C   UNL     1      44.109 -18.687   3.445  1.00  0.00     0.269 C 
ENDBRANCH  36  39
ENDBRANCH  27  30
ENDBRANCH   1  26
TORSDOF 6
ENDMDL
MODEL 3
REMARK VINA RESULT:      -8.8      2.398      5.179
REMARK  6 active torsions:
REMARK  status: ('A' for Active; 'I' for Inactive)
REMARK    1  A    between atoms: N_2  and  C_5 
REMARK    2  A    between atoms: C_10  and  N_11 
REMARK       I    between atoms: N_11  and  C_12 
REMARK    3  A    between atoms: C_12  and  C_14 
REMARK    4  A    between atoms: C_18  and  C_20 
REMARK       I    between atoms: N_24  and  C_25 
REMARK    5  A    between atoms: C_25  and  C_27 
REMARK    6  A    between atoms: C_32  and  O_33 
ROOT
HETATM    1  C   UNL     1      43.758  -9.763   8.983  1.00  0.00     0.033 A 
HETATM    2  C   UNL     1      44.309  -9.623  10.263  1.00  0.00     0.017 A 
HETATM    3  C   UNL     1      43.992  -8.518  11.051  1.00  0.00     0.002 A 
HETATM    4  C   UNL     1      43.121  -7.543  10.567  1.00  0.00     0.009 A 
HETATM    5  C   UNL     1      42.554  -7.660   9.288  1.00  0.00    -0.034 A 
HETATM    6  C   UNL     1      42.865  -8.791   8.510  1.00  0.00     0.026 A 
ENDROOT
BRANCH   5   7
HETATM    7  C   UNL     1      41.632  -6.594   8.732  1.00  0.00     0.120 C 
HETATM    8  C   UNL     1      42.179  -5.999   7.424  1.00  0.00     0.032 C 
HETATM    9  C   UNL     1      40.921  -5.540   6.699  1.00  0.00     0.022 C 
HETATM   10  C   UNL     1      39.920  -6.634   7.038  1.00  0.00     0.127 C 
HETATM   11  N   UNL     1      40.285  -7.058   8.380  1.00  0.00    -0.339 N 
HETATM   12  C   UNL     1      39.343  -7.676   9.184  1.00  0.00     0.254 C 
HETATM   13  O   UNL     1      38.217  -7.981   8.806  1.00  0.00    -0.267 OA
BRANCH  12  14
HETATM   14  C   UNL     1      39.721  -8.017  10.567  1.00  0.00     0.033 A 
HETATM   15  C   UNL     1      40.081  -9.333  10.854  1.00  0.00     0.018 A 
HETATM   16  C   UNL     1      40.525  -9.660  12.134  1.00  0.00     0.013 A 
HETATM   17  C   UNL     1      40.587  -8.683  13.139  1.00  0.00    -0.023 A 
HETATM   18  C   UNL     1      41.055  -8.998  14.425  1.00  0.00     0.048 A 
HETATM   19  C   UNL     1      40.167  -7.358  12.855  1.00  0.00    -0.025 A 
HETATM   20  C   UNL     1      41.091  -8.019  15.412  1.00  0.00     0.066 A 
HETATM   21  C   UNL     1      40.659  -6.726  15.150  1.00  0.00     0.037 A 
HETATM   22  C   UNL     1      40.201  -6.394  13.875  1.00  0.00     0.015 A 
HETATM   23  C   UNL     1      39.730  -7.036  11.562  1.00  0.00     0.029 A 
BRANCH  20  24
HETATM   24  O   UNL     1      41.548  -8.294  16.668  1.00  0.00    -0.361 OA
HETATM   25  H   UNL     1      42.196  -7.611  16.914  1.00  0.00     0.217 HD
ENDBRANCH  20  24
ENDBRANCH  12  14
ENDBRANCH   5   7
BRANCH   1  26
HETATM   26  C   UNL     1      44.109 -10.984   8.194  1.00  0.00     0.257 C 
HETATM   27  N   UNL     1      43.057 -11.615   7.566  1.00  0.00    -0.301 N 
HETATM   28  H   UNL     1      42.139 -11.199   7.525  1.00  0.00     0.171 HD
HETATM   29  O   UNL     1      45.287 -11.324   8.159  1.00  0.00    -0.267 OA
BRANCH  27  30
HETATM   30  C   UNL     1      43.219 -12.817   6.934  1.00  0.00     0.174 A 
HETATM   31  N   UNL     1      43.700 -13.943   7.398  1.00  0.00    -0.228 NA
HETATM   32  C   UNL     1      43.647 -14.906   6.426  1.00  0.00     0.050 A 
HETATM   33  C   UNL     1      44.140 -16.286   6.688  1.00  0.00     0.062 C 
HETATM   34  C   UNL     1      43.078 -14.506   5.235  1.00  0.00     0.013 A 
HETATM   35  C   UNL     1      44.313 -17.067   5.371  1.00  0.00     0.039 C 
HETATM   36  C   UNL     1      43.093 -16.863   4.445  1.00  0.00     0.192 C 
HETATM   37  C   UNL     1      42.898 -15.373   4.037  1.00  0.00     0.081 C 
HETATM   38  S   UNL     1      42.652 -12.857   5.316  1.00  0.00    -0.055 SA
BRANCH  36  39
HETATM   39  N   UNL     1      43.159 -17.764   3.205  1.00  0.00    -0.074 N 
HETATM   40  C   UNL     1      43.184 -17.053   1.875  1.00  0.00     0.269 C 
HETATM   41  H   UNL     1      42.290 -18.318   3.211  1.00  0.00     0.279 HD
HETATM   42  C   UNL     1      44.268 -18.786   3.286  1.00  0.00     0.269 C 
ENDBRANCH  36  39
ENDBRANCH  27  30
ENDBRANCH   1  26
TORSDOF 6
ENDMDL
MODEL 4
REMARK VINA RESULT:      -8.7      2.855      9.004
REMARK  6 active torsions:
REMARK  status: ('A' for Active; 'I' for Inactive)
REMARK    1  A    between atoms: N_2  and  C_5 
REMARK    2  A    between atoms: C_10  and  N_11 
REMARK       I    between atoms: N_11  and  C_12 
REMARK    3  A    between atoms: C_12  and  C_14 
REMARK    4  A    between atoms: C_18  and  C_20 
REMARK       I    between atoms: N_24  and  C_25 
REMARK    5  A    between atoms: C_25  and  C_27 
REMARK    6  A    between atoms: C_32  and  O_33 
ROOT
HETATM    1  C   UNL     1      43.684 -11.729   5.860  1.00  0.00     0.033 A 
HETATM    2  C   UNL     1      43.662 -11.259   4.541  1.00  0.00     0.017 A 
HETATM    3  C   UNL     1      43.513 -12.148   3.477  1.00  0.00     0.002 A 
HETATM    4  C   UNL     1      43.385 -13.514   3.723  1.00  0.00     0.009 A 
HETATM    5  C   UNL     1      43.402 -14.011   5.036  1.00  0.00    -0.034 A 
HETATM    6  C   UNL     1      43.531 -13.101   6.102  1.00  0.00     0.026 A 
ENDROOT
BRANCH   5   7
HETATM    7  C   UNL     1      43.298 -15.495   5.321  1.00  0.00     0.120 C 
HETATM    8  C   UNL     1      44.514 -16.008   6.110  1.00  0.00     0.032 C 
HETATM    9  C   UNL     1      43.957 -17.205   6.867  1.00  0.00     0.022 C 
HETATM   10  C   UNL     1      42.558 -16.743   7.244  1.00  0.00     0.127 C 
HETATM   11  N   UNL     1      42.146 -15.892   6.140  1.00  0.00    -0.339 N 
HETATM   12  C   UNL     1      40.799 -15.684   5.900  1.00  0.00     0.254 C 
HETATM   13  O   UNL     1      39.903 -16.103   6.626  1.00  0.00    -0.267 OA
BRANCH  12  14
HETATM   14  C   UNL     1      40.415 -14.885   4.723  1.00  0.00     0.033 A 
HETATM   15  C   UNL     1      40.043 -13.554   4.914  1.00  0.00     0.018 A 
HETATM   16  C   UNL     1      39.759 -12.756   3.807  1.00  0.00     0.013 A 
HETATM   17  C   UNL     1      39.819 -13.286   2.509  1.00  0.00    -0.023 A 
HETATM   18  C   UNL     1      39.558 -12.483   1.388  1.00  0.00     0.048 A 
HETATM   19  C   UNL     1      40.144 -14.655   2.327  1.00  0.00    -0.025 A 
HETATM   20  C   UNL     1      39.604 -13.034   0.111  1.00  0.00     0.066 A 
HETATM   21  C   UNL     1      39.897 -14.378  -0.075  1.00  0.00     0.037 A 
HETATM   22  C   UNL     1      40.170 -15.187   1.027  1.00  0.00     0.015 A 
HETATM   23  C   UNL     1      40.437 -15.449   3.445  1.00  0.00     0.029 A 
BRANCH  20  24
HETATM   24  O   UNL     1      39.362 -12.276  -0.998  1.00  0.00    -0.361 OA
HETATM   25  H   UNL     1      38.561 -11.747  -0.837  1.00  0.00     0.217 HD
ENDBRANCH  20  24
ENDBRANCH  12  14
ENDBRANCH   5   7
BRANCH   1  26
HETATM   26  C   UNL     1      43.814 -10.727   6.962  1.00  0.00     0.257 C 
HETATM   27  N   UNL     1      42.659 -10.454   7.664  1.00  0.00    -0.301 N 
HETATM   28  H   UNL     1      41.820 -10.997   7.534  1.00  0.00     0.171 HD
HETATM   29  O   UNL     1      44.920 -10.236   7.162  1.00  0.00    -0.267 OA
BRANCH  27  30
HETATM   30  C   UNL     1      42.610  -9.456   8.598  1.00  0.00     0.174 A 
HETATM   31  N   UNL     1      42.218  -8.212   8.468  1.00  0.00    -0.228 NA
HETATM   32  C   UNL     1      42.305  -7.571   9.674  1.00  0.00     0.050 A 
HETATM   33  C   UNL     1      41.925  -6.137   9.808  1.00  0.00     0.062 C 
HETATM   34  C   UNL     1      42.723  -8.356  10.728  1.00  0.00     0.013 A 
HETATM   35  C   UNL     1      42.440  -5.554  11.137  1.00  0.00     0.039 C 
HETATM   36  C   UNL     1      42.162  -6.521  12.309  1.00  0.00     0.192 C 
HETATM   37  C   UNL     1      42.883  -7.891  12.135  1.00  0.00     0.081 C 
HETATM   38  S   UNL     1      43.077  -9.931  10.178  1.00  0.00    -0.055 SA
BRANCH  36  39
HETATM   39  N   UNL     1      42.507  -5.893  13.665  1.00  0.00    -0.074 N 
HETATM   40  C   UNL     1      41.443  -5.017  14.276  1.00  0.00     0.269 C 
HETATM   41  H   UNL     1      43.315  -5.276  13.494  1.00  0.00     0.279 HD
HETATM   42  C   UNL     1      43.004  -6.909  14.668  1.00  0.00     0.269 C 
ENDBRANCH  36  39
ENDBRANCH  27  30
ENDBRANCH   1  26
TORSDOF 6
ENDMDL
MODEL 5
REMARK VINA RESULT:      -8.5      3.692      5.891
REMARK  6 active torsions:
REMARK  status: ('A' for Active; 'I' for Inactive)
REMARK    1  A    between atoms: N_2  and  C_5 
REMARK    2  A    between atoms: C_10  and  N_11 
REMARK       I    between atoms: N_11  and  C_12 
REMARK    3  A    between atoms: C_12  and  C_14 
REMARK    4  A    between atoms: C_18  and  C_20 
REMARK       I    between atoms: N_24  and  C_25 
REMARK    5  A    between atoms: C_25  and  C_27 
REMARK    6  A    between atoms: C_32  and  O_33 
ROOT
HETATM    1  C   UNL     1      39.719  -9.208  10.143  1.00  0.00     0.033 A 
HETATM    2  C   UNL     1      39.724 -10.170  11.161  1.00  0.00     0.017 A 
HETATM    3  C   UNL     1      39.445  -9.806  12.478  1.00  0.00     0.002 A 
HETATM    4  C   UNL     1      39.158  -8.478  12.788  1.00  0.00     0.009 A 
HETATM    5  C   UNL     1      39.144  -7.494  11.786  1.00  0.00    -0.034 A 
HETATM    6  C   UNL     1      39.406  -7.877  10.458  1.00  0.00     0.026 A 
ENDROOT
BRANCH   5   7
HETATM    7  C   UNL     1      38.866  -6.041  12.110  1.00  0.00     0.120 C 
HETATM    8  C   UNL     1      37.461  -5.852  12.707  1.00  0.00     0.032 C 
HETATM    9  C   UNL     1      37.614  -4.602  13.563  1.00  0.00     0.022 C 
HETATM   10  C   UNL     1      39.009  -4.762  14.146  1.00  0.00     0.127 C 
HETATM   11  N   UNL     1      39.763  -5.442  13.106  1.00  0.00    -0.339 N 
HETATM   12  C   UNL     1      41.142  -5.334  13.076  1.00  0.00     0.254 C 
HETATM   13  O   UNL     1      41.802  -4.766  13.941  1.00  0.00    -0.267 OA
BRANCH  12  14
HETATM   14  C   UNL     1      41.868  -5.966  11.960  1.00  0.00     0.033 A 
HETATM   15  C   UNL     1      41.966  -5.275  10.753  1.00  0.00     0.018 A 
HETATM   16  C   UNL     1      42.721  -5.815   9.713  1.00  0.00     0.013 A 
HETATM   17  C   UNL     1      43.360  -7.056   9.863  1.00  0.00    -0.023 A 
HETATM   18  C   UNL     1      44.142  -7.595   8.829  1.00  0.00     0.048 A 
HETATM   19  C   UNL     1      43.210  -7.778  11.074  1.00  0.00    -0.025 A 
HETATM   20  C   UNL     1      44.750  -8.836   8.991  1.00  0.00     0.066 A 
HETATM   21  C   UNL     1      44.589  -9.561  10.164  1.00  0.00     0.037 A 
HETATM   22  C   UNL     1      43.825  -9.034  11.205  1.00  0.00     0.015 A 
HETATM   23  C   UNL     1      42.456  -7.224  12.119  1.00  0.00     0.029 A 
BRANCH  20  24
HETATM   24  O   UNL     1      45.522  -9.382   8.007  1.00  0.00    -0.361 OA
HETATM   25  H   UNL     1      46.060  -8.674   7.613  1.00  0.00     0.217 HD
ENDBRANCH  20  24
ENDBRANCH  12  14
ENDBRANCH   5   7
BRANCH   1  26
HETATM   26  C   UNL     1      39.994  -9.660   8.745  1.00  0.00     0.257 C 
HETATM   27  N   UNL     1      39.038 -10.477   8.179  1.00  0.00    -0.301 N 
HETATM   28  H   UNL     1      38.149 -10.639   8.626  1.00  0.00     0.171 HD
HETATM   29  O   UNL     1      41.028  -9.273   8.211  1.00  0.00    -0.267 OA
BRANCH  27  30
HETATM   30  C   UNL     1      39.236 -11.073   6.964  1.00  0.00     0.174 A 
HETATM   31  N   UNL     1      39.765 -12.239   6.686  1.00  0.00    -0.228 NA
HETATM   32  C   UNL     1      39.735 -12.450   5.334  1.00  0.00     0.050 A 
HETATM   33  C   UNL     1      40.282 -13.703   4.742  1.00  0.00     0.062 C 
HETATM   34  C   UNL     1      39.135 -11.451   4.597  1.00  0.00     0.013 A 
HETATM   35  C   UNL     1      40.466 -13.556   3.220  1.00  0.00     0.039 C 
HETATM   36  C   UNL     1      39.227 -12.896   2.576  1.00  0.00     0.192 C 
HETATM   37  C   UNL     1      38.970 -11.458   3.116  1.00  0.00     0.081 C 
HETATM   38  S   UNL     1      38.649 -10.180   5.624  1.00  0.00    -0.055 SA
BRANCH  36  39
HETATM   39  N   UNL     1      39.309 -12.896   1.044  1.00  0.00    -0.074 N 
HETATM   40  C   UNL     1      39.812 -11.623   0.410  1.00  0.00     0.269 C 
HETATM   41  H   UNL     1      38.341 -13.013   0.708  1.00  0.00     0.279 HD
HETATM   42  C   UNL     1      40.053 -14.094   0.501  1.00  0.00     0.269 C 
ENDBRANCH  36  39
ENDBRANCH  27  30
ENDBRANCH   1  26
TORSDOF 6
ENDMDL
MODEL 6
REMARK VINA RESULT:      -8.5      2.981      9.514
REMARK  6 active torsions:
REMARK  status: ('A' for Active; 'I' for Inactive)
REMARK    1  A    between atoms: N_2  and  C_5 
REMARK    2  A    between atoms: C_10  and  N_11 
REMARK       I    between atoms: N_11  and  C_12 
REMARK    3  A    between atoms: C_12  and  C_14 
REMARK    4  A    between atoms: C_18  and  C_20 
REMARK       I    between atoms: N_24  and  C_25 
REMARK    5  A    between atoms: C_25  and  C_27 
REMARK    6  A    between atoms: C_32  and  O_33 
ROOT
HETATM    1  C   UNL     1      42.823 -11.490   5.492  1.00  0.00     0.033 A 
HETATM    2  C   UNL     1      44.022 -11.517   4.769  1.00  0.00     0.017 A 
HETATM    3  C   UNL     1      44.016 -11.790   3.402  1.00  0.00     0.002 A 
HETATM    4  C   UNL     1      42.812 -12.039   2.745  1.00  0.00     0.009 A 
HETATM    5  C   UNL     1      41.596 -12.017   3.447  1.00  0.00    -0.034 A 
HETATM    6  C   UNL     1      41.612 -11.719   4.822  1.00  0.00     0.026 A 
ENDROOT
BRANCH   5   7
HETATM    7  C   UNL     1      40.281 -12.317   2.758  1.00  0.00     0.120 C 
HETATM    8  C   UNL     1      39.849 -11.166   1.834  1.00  0.00     0.032 C 
HETATM    9  C   UNL     1      39.001 -11.865   0.781  1.00  0.00     0.022 C 
HETATM   10  C   UNL     1      39.737 -13.180   0.575  1.00  0.00     0.127 C 
HETATM   11  N   UNL     1      40.291 -13.495   1.882  1.00  0.00    -0.339 N 
HETATM   12  C   UNL     1      40.606 -14.805   2.195  1.00  0.00     0.254 C 
HETATM   13  O   UNL     1      40.535 -15.735   1.397  1.00  0.00    -0.267 OA
BRANCH  12  14
HETATM   14  C   UNL     1      41.087 -15.102   3.556  1.00  0.00     0.033 A 
HETATM   15  C   UNL     1      40.175 -15.055   4.610  1.00  0.00     0.018 A 
HETATM   16  C   UNL     1      40.587 -15.415   5.891  1.00  0.00     0.013 A 
HETATM   17  C   UNL     1      41.916 -15.800   6.133  1.00  0.00    -0.023 A 
HETATM   18  C   UNL     1      42.334 -16.187   7.415  1.00  0.00     0.048 A 
HETATM   19  C   UNL     1      42.851 -15.792   5.066  1.00  0.00    -0.025 A 
HETATM   20  C   UNL     1      43.660 -16.545   7.637  1.00  0.00     0.066 A 
HETATM   21  C   UNL     1      44.588 -16.517   6.605  1.00  0.00     0.037 A 
HETATM   22  C   UNL     1      44.186 -16.145   5.322  1.00  0.00     0.015 A 
HETATM   23  C   UNL     1      42.425 -15.436   3.778  1.00  0.00     0.029 A 
BRANCH  20  24
HETATM   24  O   UNL     1      44.094 -16.933   8.871  1.00  0.00    -0.361 OA
HETATM   25  H   UNL     1      43.907 -16.215   9.500  1.00  0.00     0.217 HD
ENDBRANCH  20  24
ENDBRANCH  12  14
ENDBRANCH   5   7
BRANCH   1  26
HETATM   26  C   UNL     1      42.886 -11.161   6.949  1.00  0.00     0.257 C 
HETATM   27  N   UNL     1      42.041 -10.159   7.375  1.00  0.00    -0.301 N 
HETATM   28  H   UNL     1      41.329  -9.775   6.772  1.00  0.00     0.171 HD
HETATM   29  O   UNL     1      43.667 -11.800   7.647  1.00  0.00    -0.267 OA
BRANCH  27  30
HETATM   30  C   UNL     1      42.102  -9.665   8.649  1.00  0.00     0.174 A 
HETATM   31  N   UNL     1      43.148  -9.448   9.408  1.00  0.00    -0.228 NA
HETATM   32  C   UNL     1      42.749  -8.913  10.604  1.00  0.00     0.050 A 
HETATM   33  C   UNL     1      43.743  -8.575  11.660  1.00  0.00     0.062 C 
HETATM   34  C   UNL     1      41.394  -8.687  10.723  1.00  0.00     0.013 A 
HETATM   35  C   UNL     1      43.046  -8.339  13.014  1.00  0.00     0.039 C 
HETATM   36  C   UNL     1      41.794  -7.451  12.842  1.00  0.00     0.192 C 
HETATM   37  C   UNL     1      40.723  -8.104  11.919  1.00  0.00     0.081 C 
HETATM   38  S   UNL     1      40.588  -9.216   9.317  1.00  0.00    -0.055 SA
BRANCH  36  39
HETATM   39  N   UNL     1      41.181  -7.058  14.193  1.00  0.00    -0.074 N 
HETATM   40  C   UNL     1      39.755  -6.569  14.153  1.00  0.00     0.269 C 
HETATM   41  H   UNL     1      41.740  -6.264  14.537  1.00  0.00     0.279 HD
HETATM   42  C   UNL     1      41.349  -8.131  15.242  1.00  0.00     0.269 C 
ENDBRANCH  36  39
ENDBRANCH  27  30
ENDBRANCH   1  26
TORSDOF 6
ENDMDL
MODEL 7
REMARK VINA RESULT:      -8.4      3.772      6.941
REMARK  6 active torsions:
REMARK  status: ('A' for Active; 'I' for Inactive)
REMARK    1  A    between atoms: N_2  and  C_5 
REMARK    2  A    between atoms: C_10  and  N_11 
REMARK       I    between atoms: N_11  and  C_12 
REMARK    3  A    between atoms: C_12  and  C_14 
REMARK    4  A    between atoms: C_18  and  C_20 
REMARK       I    between atoms: N_24  and  C_25 
REMARK    5  A    between atoms: C_25  and  C_27 
REMARK    6  A    between atoms: C_32  and  O_33 
ROOT
HETATM    1  C   UNL     1      39.531  -6.875  11.184  1.00  0.00     0.033 A 
HETATM    2  C   UNL     1      38.297  -7.212  11.753  1.00  0.00     0.017 A 
HETATM    3  C   UNL     1      37.943  -6.725  13.010  1.00  0.00     0.002 A 
HETATM    4  C   UNL     1      38.819  -5.897  13.710  1.00  0.00     0.009 A 
HETATM    5  C   UNL     1      40.062  -5.543  13.161  1.00  0.00    -0.034 A 
HETATM    6  C   UNL     1      40.399  -6.023  11.882  1.00  0.00     0.026 A 
ENDROOT
BRANCH   5   7
HETATM    7  C   UNL     1      41.041  -4.671  13.920  1.00  0.00     0.120 C 
HETATM    8  C   UNL     1      40.526  -3.228  14.058  1.00  0.00     0.032 C 
HETATM    9  C   UNL     1      41.197  -2.740  15.335  1.00  0.00     0.022 C 
HETATM   10  C   UNL     1      41.166  -3.974  16.223  1.00  0.00     0.127 C 
HETATM   11  N   UNL     1      41.306  -5.090  15.302  1.00  0.00    -0.339 N 
HETATM   12  C   UNL     1      41.788  -6.303  15.762  1.00  0.00     0.254 C 
HETATM   13  O   UNL     1      42.026  -6.540  16.943  1.00  0.00    -0.267 OA
BRANCH  12  14
HETATM   14  C   UNL     1      41.997  -7.387  14.787  1.00  0.00     0.033 A 
HETATM   15  C   UNL     1      41.120  -8.471  14.796  1.00  0.00     0.018 A 
HETATM   16  C   UNL     1      41.246  -9.464  13.827  1.00  0.00     0.013 A 
HETATM   17  C   UNL     1      42.263  -9.396  12.861  1.00  0.00    -0.023 A 
HETATM   18  C   UNL     1      42.383 -10.380  11.868  1.00  0.00     0.048 A 
HETATM   19  C   UNL     1      43.186  -8.319  12.893  1.00  0.00    -0.025 A 
HETATM   20  C   UNL     1      43.410 -10.303  10.933  1.00  0.00     0.066 A 
HETATM   21  C   UNL     1      44.332  -9.266  10.970  1.00  0.00     0.037 A 
HETATM   22  C   UNL     1      44.220  -8.274  11.944  1.00  0.00     0.015 A 
HETATM   23  C   UNL     1      43.046  -7.319  13.865  1.00  0.00     0.029 A 
BRANCH  20  24
HETATM   24  O   UNL     1      43.547 -11.241   9.951  1.00  0.00    -0.361 OA
HETATM   25  H   UNL     1      42.691 -11.337   9.498  1.00  0.00     0.217 HD
ENDBRANCH  20  24
ENDBRANCH  12  14
ENDBRANCH   5   7
BRANCH   1  26
HETATM   26  C   UNL     1      39.845  -7.400   9.820  1.00  0.00     0.257 C 
HETATM   27  N   UNL     1      40.076  -8.757   9.738  1.00  0.00    -0.301 N 
HETATM   28  H   UNL     1      39.904  -9.371  10.519  1.00  0.00     0.171 HD
HETATM   29  O   UNL     1      39.868  -6.601   8.889  1.00  0.00    -0.267 OA
BRANCH  27  30
HETATM   30  C   UNL     1      40.513  -9.339   8.580  1.00  0.00     0.174 A 
HETATM   31  N   UNL     1      41.734  -9.472   8.123  1.00  0.00    -0.228 NA
HETATM   32  C   UNL     1      41.713 -10.151   6.935  1.00  0.00     0.050 A 
HETATM   33  C   UNL     1      42.972 -10.435   6.193  1.00  0.00     0.062 C 
HETATM   34  C   UNL     1      40.466 -10.570   6.520  1.00  0.00     0.013 A 
HETATM   35  C   UNL     1      42.672 -10.873   4.747  1.00  0.00     0.039 C 
HETATM   36  C   UNL     1      41.525 -11.907   4.711  1.00  0.00     0.192 C 
HETATM   37  C   UNL     1      40.189 -11.334   5.271  1.00  0.00     0.081 C 
HETATM   38  S   UNL     1      39.277 -10.044   7.623  1.00  0.00    -0.055 SA
BRANCH  36  39
HETATM   39  N   UNL     1      41.321 -12.488   3.306  1.00  0.00    -0.074 N 
HETATM   40  C   UNL     1      39.926 -12.964   2.985  1.00  0.00     0.269 C 
HETATM   41  H   UNL     1      41.922 -13.324   3.256  1.00  0.00     0.279 HD
HETATM   42  C   UNL     1      41.839 -11.576   2.219  1.00  0.00     0.269 C 
ENDBRANCH  36  39
ENDBRANCH  27  30
ENDBRANCH   1  26
TORSDOF 6
ENDMDL
MODEL 8
REMARK VINA RESULT:      -8.3      2.297      4.836
REMARK  6 active torsions:
REMARK  status: ('A' for Active; 'I' for Inactive)
REMARK    1  A    between atoms: N_2  and  C_5 
REMARK    2  A    between atoms: C_10  and  N_11 
REMARK       I    between atoms: N_11  and  C_12 
REMARK    3  A    between atoms: C_12  and  C_14 
REMARK    4  A    between atoms: C_18  and  C_20 
REMARK       I    between atoms: N_24  and  C_25 
REMARK    5  A    between atoms: C_25  and  C_27 
REMARK    6  A    between atoms: C_32  and  O_33 
ROOT
HETATM    1  C   UNL     1      41.297  -9.709   6.510  1.00  0.00     0.033 A 
HETATM    2  C   UNL     1      39.902  -9.746   6.631  1.00  0.00     0.017 A 
HETATM    3  C   UNL     1      39.166  -8.563   6.679  1.00  0.00     0.002 A 
HETATM    4  C   UNL     1      39.817  -7.333   6.607  1.00  0.00     0.009 A 
HETATM    5  C   UNL     1      41.215  -7.268   6.485  1.00  0.00    -0.034 A 
HETATM    6  C   UNL     1      41.945  -8.469   6.415  1.00  0.00     0.026 A 
ENDROOT
BRANCH   5   7
HETATM    7  C   UNL     1      41.942  -5.941   6.438  1.00  0.00     0.120 C 
HETATM    8  C   UNL     1      41.837  -5.285   5.051  1.00  0.00     0.032 C 
HETATM    9  C   UNL     1      41.965  -3.799   5.359  1.00  0.00     0.022 C 
HETATM   10  C   UNL     1      41.202  -3.660   6.667  1.00  0.00     0.127 C 
HETATM   11  N   UNL     1      41.431  -4.918   7.359  1.00  0.00    -0.339 N 
HETATM   12  C   UNL     1      41.303  -4.977   8.735  1.00  0.00     0.254 C 
HETATM   13  O   UNL     1      40.909  -4.042   9.426  1.00  0.00    -0.267 OA
BRANCH  12  14
HETATM   14  C   UNL     1      41.625  -6.245   9.413  1.00  0.00     0.033 A 
HETATM   15  C   UNL     1      40.601  -6.930  10.067  1.00  0.00     0.018 A 
HETATM   16  C   UNL     1      40.863  -8.173  10.641  1.00  0.00     0.013 A 
HETATM   17  C   UNL     1      42.152  -8.727  10.586  1.00  0.00    -0.023 A 
HETATM   18  C   UNL     1      42.420  -9.988  11.140  1.00  0.00     0.048 A 
HETATM   19  C   UNL     1      43.201  -7.999   9.967  1.00  0.00    -0.025 A 
HETATM   20  C   UNL     1      43.708 -10.510  11.093  1.00  0.00     0.066 A 
HETATM   21  C   UNL     1      44.746  -9.795  10.510  1.00  0.00     0.037 A 
HETATM   22  C   UNL     1      44.495  -8.545   9.946  1.00  0.00     0.015 A 
HETATM   23  C   UNL     1      42.926  -6.753   9.385  1.00  0.00     0.029 A 
BRANCH  20  24
HETATM   24  O   UNL     1      43.997 -11.737  11.616  1.00  0.00    -0.361 OA
HETATM   25  H   UNL     1      44.958 -11.878  11.552  1.00  0.00     0.217 HD
ENDBRANCH  20  24
ENDBRANCH  12  14
ENDBRANCH   5   7
BRANCH   1  26
HETATM   26  C   UNL     1      42.032 -11.008   6.432  1.00  0.00     0.257 C 
HETATM   27  N   UNL     1      41.403 -12.012   5.726  1.00  0.00    -0.301 N 
HETATM   28  H   UNL     1      40.573 -11.836   5.182  1.00  0.00     0.171 HD
HETATM   29  O   UNL     1      43.124 -11.083   6.985  1.00  0.00    -0.267 OA
BRANCH  27  30
HETATM   30  C   UNL     1      41.899 -13.287   5.700  1.00  0.00     0.174 A 
HETATM   31  N   UNL     1      41.861 -14.214   6.625  1.00  0.00    -0.228 NA
HETATM   32  C   UNL     1      42.454 -15.357   6.159  1.00  0.00     0.050 A 
HETATM   33  C   UNL     1      42.553 -16.571   7.016  1.00  0.00     0.062 C 
HETATM   34  C   UNL     1      42.900 -15.298   4.856  1.00  0.00     0.013 A 
HETATM   35  C   UNL     1      43.557 -17.579   6.425  1.00  0.00     0.039 C 
HETATM   36  C   UNL     1      43.343 -17.744   4.904  1.00  0.00     0.192 C 
HETATM   37  C   UNL     1      43.565 -16.413   4.124  1.00  0.00     0.081 C 
HETATM   38  S   UNL     1      42.623 -13.743   4.214  1.00  0.00    -0.055 SA
BRANCH  36  39
HETATM   39  N   UNL     1      44.211 -18.867   4.321  1.00  0.00    -0.074 N 
HETATM   40  C   UNL     1      44.200 -20.170   5.080  1.00  0.00     0.269 C 
HETATM   41  H   UNL     1      45.182 -18.525   4.363  1.00  0.00     0.279 HD
HETATM   42  C   UNL     1      43.949 -19.101   2.852  1.00  0.00     0.269 C 
ENDBRANCH  36  39
ENDBRANCH  27  30
ENDBRANCH   1  26
TORSDOF 6
ENDMDL
MODEL 9
REMARK VINA RESULT:      -7.9      2.184      4.644
REMARK  6 active torsions:
REMARK  status: ('A' for Active; 'I' for Inactive)
REMARK    1  A    between atoms: N_2  and  C_5 
REMARK    2  A    between atoms: C_10  and  N_11 
REMARK       I    between atoms: N_11  and  C_12 
REMARK    3  A    between atoms: C_12  and  C_14 
REMARK    4  A    between atoms: C_18  and  C_20 
REMARK       I    between atoms: N_24  and  C_25 
REMARK    5  A    between atoms: C_25  and  C_27 
REMARK    6  A    between atoms: C_32  and  O_33 
ROOT
HETATM    1  C   UNL     1      42.212 -10.249   6.663  1.00  0.00     0.033 A 
HETATM    2  C   UNL     1      43.044 -10.100   7.779  1.00  0.00     0.017 A 
HETATM    3  C   UNL     1      43.242  -8.843   8.350  1.00  0.00     0.002 A 
HETATM    4  C   UNL     1      42.609  -7.724   7.810  1.00  0.00     0.009 A 
HETATM    5  C   UNL     1      41.769  -7.847   6.692  1.00  0.00    -0.034 A 
HETATM    6  C   UNL     1      41.560  -9.124   6.138  1.00  0.00     0.026 A 
ENDROOT
BRANCH   5   7
HETATM    7  C   UNL     1      41.099  -6.639   6.071  1.00  0.00     0.120 C 
HETATM    8  C   UNL     1      41.554  -6.423   4.618  1.00  0.00     0.032 C 
HETATM    9  C   UNL     1      40.368  -5.708   3.985  1.00  0.00     0.022 C 
HETATM   10  C   UNL     1      39.176  -6.388   4.641  1.00  0.00     0.127 C 
HETATM   11  N   UNL     1      39.636  -6.715   5.981  1.00  0.00    -0.339 N 
HETATM   12  C   UNL     1      38.713  -6.900   6.996  1.00  0.00     0.254 C 
HETATM   13  O   UNL     1      37.498  -6.898   6.824  1.00  0.00    -0.267 OA
BRANCH  12  14
HETATM   14  C   UNL     1      39.215  -7.147   8.360  1.00  0.00     0.033 A 
HETATM   15  C   UNL     1      39.669  -6.062   9.109  1.00  0.00     0.018 A 
HETATM   16  C   UNL     1      40.067  -6.259  10.430  1.00  0.00     0.013 A 
HETATM   17  C   UNL     1      40.039  -7.541  11.001  1.00  0.00    -0.023 A 
HETATM   18  C   UNL     1      40.415  -7.745  12.338  1.00  0.00     0.048 A 
HETATM   19  C   UNL     1      39.629  -8.649  10.215  1.00  0.00    -0.025 A 
HETATM   20  C   UNL     1      40.399  -9.027  12.878  1.00  0.00     0.066 A 
HETATM   21  C   UNL     1      40.022 -10.120  12.109  1.00  0.00     0.037 A 
HETATM   22  C   UNL     1      39.635  -9.933  10.783  1.00  0.00     0.015 A 
HETATM   23  C   UNL     1      39.222  -8.440   8.889  1.00  0.00     0.029 A 
BRANCH  20  24
HETATM   24  O   UNL     1      40.753  -9.255  14.177  1.00  0.00    -0.361 OA
HETATM   25  H   UNL     1      40.642  -8.425  14.673  1.00  0.00     0.217 HD
ENDBRANCH  20  24
ENDBRANCH  12  14
ENDBRANCH   5   7
BRANCH   1  26
HETATM   26  C   UNL     1      42.012 -11.624   6.112  1.00  0.00     0.257 C 
HETATM   27  N   UNL     1      43.154 -12.384   5.966  1.00  0.00    -0.301 N 
HETATM   28  H   UNL     1      44.041 -12.083   6.340  1.00  0.00     0.171 HD
HETATM   29  O   UNL     1      40.868 -11.972   5.841  1.00  0.00    -0.267 OA
BRANCH  27  30
HETATM   30  C   UNL     1      43.127 -13.601   5.343  1.00  0.00     0.174 A 
HETATM   31  N   UNL     1      42.945 -13.883   4.076  1.00  0.00    -0.228 NA
HETATM   32  C   UNL     1      43.029 -15.237   3.887  1.00  0.00     0.050 A 
HETATM   33  C   UNL     1      42.852 -15.832   2.534  1.00  0.00     0.062 C 
HETATM   34  C   UNL     1      43.324 -15.970   5.017  1.00  0.00     0.013 A 
HETATM   35  C   UNL     1      42.631 -17.354   2.628  1.00  0.00     0.039 C 
HETATM   36  C   UNL     1      43.634 -17.997   3.611  1.00  0.00     0.192 C 
HETATM   37  C   UNL     1      43.479 -17.451   5.062  1.00  0.00     0.081 C 
HETATM   38  S   UNL     1      43.437 -14.939   6.369  1.00  0.00    -0.055 SA
BRANCH  36  39
HETATM   39  N   UNL     1      43.551 -19.529   3.594  1.00  0.00    -0.074 N 
HETATM   40  C   UNL     1      43.794 -20.188   2.259  1.00  0.00     0.269 C 
HETATM   41  H   UNL     1      42.581 -19.763   3.851  1.00  0.00     0.279 HD
HETATM   42  C   UNL     1      44.399 -20.170   4.669  1.00  0.00     0.269 C 
ENDBRANCH  36  39
ENDBRANCH  27  30
ENDBRANCH   1  26
TORSDOF 6
ENDMDL
MODEL 10
REMARK VINA RESULT:      -7.8     18.631     22.231
REMARK  6 active torsions:
REMARK  status: ('A' for Active; 'I' for Inactive)
REMARK    1  A    between atoms: N_2  and  C_5 
REMARK    2  A    between atoms: C_10  and  N_11 
REMARK       I    between atoms: N_11  and  C_12 
REMARK    3  A    between atoms: C_12  and  C_14 
REMARK    4  A    between atoms: C_18  and  C_20 
REMARK       I    between atoms: N_24  and  C_25 
REMARK    5  A    between atoms: C_25  and  C_27 
REMARK    6  A    between atoms: C_32  and  O_33 
ROOT
HETATM    1  C   UNL     1      45.956 -31.640  -2.136  1.00  0.00     0.033 A 
HETATM    2  C   UNL     1      45.748 -31.380  -3.496  1.00  0.00     0.017 A 
HETATM    3  C   UNL     1      46.741 -31.669  -4.431  1.00  0.00     0.002 A 
HETATM    4  C   UNL     1      47.951 -32.221  -4.014  1.00  0.00     0.009 A 
HETATM    5  C   UNL     1      48.185 -32.493  -2.656  1.00  0.00    -0.034 A 
HETATM    6  C   UNL     1      47.167 -32.217  -1.725  1.00  0.00     0.026 A 
ENDROOT
BRANCH   5   7
HETATM    7  C   UNL     1      49.506 -33.062  -2.181  1.00  0.00     0.120 C 
HETATM    8  C   UNL     1      49.845 -34.381  -2.897  1.00  0.00     0.032 C 
HETATM    9  C   UNL     1      51.367 -34.417  -2.853  1.00  0.00     0.022 C 
HETATM   10  C   UNL     1      51.745 -32.960  -3.065  1.00  0.00     0.127 C 
HETATM   11  N   UNL     1      50.676 -32.210  -2.426  1.00  0.00    -0.339 N 
HETATM   12  C   UNL     1      50.905 -30.912  -2.005  1.00  0.00     0.254 C 
HETATM   13  O   UNL     1      51.945 -30.298  -2.220  1.00  0.00    -0.267 OA
BRANCH  12  14
HETATM   14  C   UNL     1      49.827 -30.210  -1.286  1.00  0.00     0.033 A 
HETATM   15  C   UNL     1      49.038 -29.300  -1.990  1.00  0.00     0.018 A 
HETATM   16  C   UNL     1      47.960 -28.690  -1.353  1.00  0.00     0.013 A 
HETATM   17  C   UNL     1      47.678 -28.964  -0.005  1.00  0.00    -0.023 A 
HETATM   18  C   UNL     1      46.580 -28.371   0.638  1.00  0.00     0.048 A 
HETATM   19  C   UNL     1      48.518 -29.847   0.720  1.00  0.00    -0.025 A 
HETATM   20  C   UNL     1      46.331 -28.641   1.980  1.00  0.00     0.066 A 
HETATM   21  C   UNL     1      47.161 -29.486   2.704  1.00  0.00     0.037 A 
HETATM   22  C   UNL     1      48.250 -30.090   2.077  1.00  0.00     0.015 A 
HETATM   23  C   UNL     1      49.596 -30.464   0.068  1.00  0.00     0.029 A 
BRANCH  20  24
HETATM   24  O   UNL     1      45.266 -28.086   2.630  1.00  0.00    -0.361 OA
HETATM   25  H   UNL     1      44.736 -28.805   3.016  1.00  0.00     0.217 HD
ENDBRANCH  20  24
ENDBRANCH  12  14
ENDBRANCH   5   7
BRANCH   1  26
HETATM   26  C   UNL     1      44.845 -31.338  -1.183  1.00  0.00     0.257 C 
HETATM   27  N   UNL     1      45.032 -31.771   0.113  1.00  0.00    -0.301 N 
HETATM   28  H   UNL     1      45.918 -32.137   0.426  1.00  0.00     0.171 HD
HETATM   29  O   UNL     1      43.869 -30.734  -1.613  1.00  0.00    -0.267 OA
BRANCH  27  30
HETATM   30  C   UNL     1      44.036 -31.686   1.046  1.00  0.00     0.174 A 
HETATM   31  N   UNL     1      43.682 -30.672   1.797  1.00  0.00    -0.228 NA
HETATM   32  C   UNL     1      42.607 -31.021   2.569  1.00  0.00     0.050 A 
HETATM   33  C   UNL     1      42.004 -30.050   3.525  1.00  0.00     0.062 C 
HETATM   34  C   UNL     1      42.121 -32.295   2.360  1.00  0.00     0.013 A 
HETATM   35  C   UNL     1      41.068 -30.766   4.516  1.00  0.00     0.039 C 
HETATM   36  C   UNL     1      40.152 -31.771   3.783  1.00  0.00     0.192 C 
HETATM   37  C   UNL     1      40.956 -32.896   3.067  1.00  0.00     0.081 C 
HETATM   38  S   UNL     1      43.081 -33.101   1.204  1.00  0.00    -0.055 SA
BRANCH  36  39
HETATM   39  N   UNL     1      39.093 -32.369   4.718  1.00  0.00    -0.074 N 
HETATM   40  C   UNL     1      38.331 -33.554   4.180  1.00  0.00     0.269 C 
HETATM   41  H   UNL     1      38.393 -31.628   4.864  1.00  0.00     0.279 HD
HETATM   42  C   UNL     1      39.635 -32.664   6.097  1.00  0.00     0.269 C 
ENDBRANCH  36  39
ENDBRANCH  27  30
ENDBRANCH   1  26
TORSDOF 6
ENDMDL
