MODEL 1
REMARK VINA RESULT:      -7.1      0.000      0.000
REMARK  11 active torsions:
REMARK  status: ('A' for Active; 'I' for Inactive)
REMARK    1  A    between atoms: C_5  and  C_6 
REMARK    2  A    between atoms: C_6  and  N_7 
REMARK    3  A    between atoms: N_7  and  C_10 
REMARK    4  A    between atoms: C_10  and  C_11 
REMARK    5  A    between atoms: C_13  and  O_14 
REMARK    6  A    between atoms: C_16  and  O_17 
REMARK    7  A    between atoms: O_17  and  C_18 
REMARK    8  A    between atoms: C_18  and  C_19 
REMARK    9  A    between atoms: C_19  and  O_20 
REMARK   10  A    between atoms: C_19  and  C_21 
REMARK   11  A    between atoms: C_21  and  N_22 
ROOT
HETATM    1  C   UNL     1      42.838 -13.395   3.489  1.00  0.00    -0.030 A 
HETATM    2  C   UNL     1      42.716 -13.974   4.764  1.00  0.00     0.048 A 
HETATM    3  C   UNL     1      43.258 -13.343   5.892  1.00  0.00     0.102 A 
HETATM    4  C   UNL     1      43.943 -12.119   5.750  1.00  0.00     0.102 A 
HETATM    5  C   UNL     1      44.096 -11.559   4.481  1.00  0.00     0.040 A 
HETATM    6  C   UNL     1      43.545 -12.192   3.359  1.00  0.00     0.012 A 
ENDROOT
BRANCH   4   7
HETATM    7  O   UNL     1      44.391 -11.557   6.915  1.00  0.00    -0.346 OA
BRANCH   7   8
HETATM    8  C   UNL     1      45.738 -11.111   7.003  1.00  0.00     0.209 C 
BRANCH   8   9
HETATM    9  C   UNL     1      45.729  -9.746   7.706  1.00  0.00     0.168 C 
BRANCH   9  10
HETATM   10  O   UNL     1      46.963  -9.035   7.522  1.00  0.00    -0.392 OA
HETATM   11  H   UNL     1      47.373  -9.349   6.690  1.00  0.00     0.210 HD
ENDBRANCH   9  10
BRANCH   9  12
HETATM   12  C   UNL     1      45.497  -9.890   9.225  1.00  0.00     0.268 C 
BRANCH  12  13
HETATM   13  N   UNL     1      43.998  -9.763   9.509  1.00  0.00    -0.067 N 
HETATM   14  H   UNL     1      43.606 -10.640   9.117  1.00  0.00     0.280 HD
HETATM   15  C   UNL     1      43.688  -9.740  10.998  1.00  0.00     0.245 C 
HETATM   16  C   UNL     1      42.189  -9.858  11.268  1.00  0.00     0.101 C 
HETATM   17  S   UNL     1      41.263  -8.467  10.557  1.00  0.00    -0.166 SA
HETATM   18  C   UNL     1      41.856  -8.601   8.845  1.00  0.00     0.101 C 
HETATM   19  C   UNL     1      43.382  -8.593   8.761  1.00  0.00     0.245 C 
ENDBRANCH  12  13
ENDBRANCH   9  12
ENDBRANCH   8   9
ENDBRANCH   7   8
ENDBRANCH   4   7
BRANCH   3  20
HETATM   20  O   UNL     1      43.180 -13.831   7.174  1.00  0.00    -0.353 OA
HETATM   21  C   UNL     1      43.135 -15.241   7.351  1.00  0.00     0.210 C 
ENDBRANCH   3  20
BRANCH   1  22
HETATM   22  C   UNL     1      42.227 -14.057   2.283  1.00  0.00     0.271 C 
BRANCH  22  23
HETATM   23  N   UNL     1      42.065 -15.512   2.477  1.00  0.00    -0.066 N 
HETATM   24  H   UNL     1      41.149 -15.837   2.141  1.00  0.00     0.277 HD
HETATM   25  H   UNL     1      42.044 -15.762   3.479  1.00  0.00     0.277 HD
BRANCH  23  26
HETATM   26  C   UNL     1      43.129 -16.382   1.869  1.00  0.00     0.293 C 
BRANCH  26  27
HETATM   27  C   UNL     1      43.420 -17.553   2.763  1.00  0.00     0.077 A 
HETATM   28  C   UNL     1      43.384 -18.854   2.284  1.00  0.00     0.145 A 
HETATM   29  N   UNL     1      43.670 -19.912   3.069  1.00  0.00    -0.262 NA
HETATM   30  C   UNL     1      44.003 -19.648   4.356  1.00  0.00     0.048 A 
HETATM   31  C   UNL     1      44.327 -20.804   5.252  1.00  0.00     0.072 C 
HETATM   32  C   UNL     1      44.042 -18.343   4.832  1.00  0.00     0.143 A 
HETATM   33  N   UNL     1      43.757 -17.264   4.053  1.00  0.00    -0.260 NA
ENDBRANCH  26  27
ENDBRANCH  23  26
ENDBRANCH  22  23
ENDBRANCH   1  22
TORSDOF 11
ENDMDL
MODEL 2
REMARK VINA RESULT:      -6.8      1.946      2.672
REMARK  11 active torsions:
REMARK  status: ('A' for Active; 'I' for Inactive)
REMARK    1  A    between atoms: C_5  and  C_6 
REMARK    2  A    between atoms: C_6  and  N_7 
REMARK    3  A    between atoms: N_7  and  C_10 
REMARK    4  A    between atoms: C_10  and  C_11 
REMARK    5  A    between atoms: C_13  and  O_14 
REMARK    6  A    between atoms: C_16  and  O_17 
REMARK    7  A    between atoms: O_17  and  C_18 
REMARK    8  A    between atoms: C_18  and  C_19 
REMARK    9  A    between atoms: C_19  and  O_20 
REMARK   10  A    between atoms: C_19  and  C_21 
REMARK   11  A    between atoms: C_21  and  N_22 
ROOT
HETATM    1  C   UNL     1      41.094 -12.576   2.891  1.00  0.00    -0.030 A 
HETATM    2  C   UNL     1      40.751 -11.924   4.088  1.00  0.00     0.048 A 
HETATM    3  C   UNL     1      41.739 -11.355   4.903  1.00  0.00     0.102 A 
HETATM    4  C   UNL     1      43.095 -11.443   4.526  1.00  0.00     0.102 A 
HETATM    5  C   UNL     1      43.442 -12.119   3.356  1.00  0.00     0.040 A 
HETATM    6  C   UNL     1      42.448 -12.679   2.543  1.00  0.00     0.012 A 
ENDROOT
BRANCH   4   7
HETATM    7  O   UNL     1      43.979 -10.812   5.360  1.00  0.00    -0.346 OA
BRANCH   7   8
HETATM    8  C   UNL     1      44.963 -11.577   6.043  1.00  0.00     0.209 C 
BRANCH   8   9
HETATM    9  C   UNL     1      44.610 -11.558   7.537  1.00  0.00     0.168 C 
BRANCH   9  10
HETATM   10  O   UNL     1      43.536 -12.458   7.850  1.00  0.00    -0.392 OA
HETATM   11  H   UNL     1      43.451 -13.098   7.113  1.00  0.00     0.210 HD
ENDBRANCH   9  10
BRANCH   9  12
HETATM   12  C   UNL     1      44.189 -10.149   8.004  1.00  0.00     0.268 C 
BRANCH  12  13
HETATM   13  N   UNL     1      43.384 -10.278   9.299  1.00  0.00    -0.067 N 
HETATM   14  H   UNL     1      42.924 -11.203   9.203  1.00  0.00     0.280 HD
HETATM   15  C   UNL     1      44.272 -10.327  10.533  1.00  0.00     0.245 C 
HETATM   16  C   UNL     1      43.480 -10.697  11.787  1.00  0.00     0.101 C 
HETATM   17  S   UNL     1      42.195  -9.470  12.161  1.00  0.00    -0.166 SA
HETATM   18  C   UNL     1      41.343  -9.481  10.556  1.00  0.00     0.101 C 
HETATM   19  C   UNL     1      42.301  -9.217   9.394  1.00  0.00     0.245 C 
ENDBRANCH  12  13
ENDBRANCH   9  12
ENDBRANCH   8   9
ENDBRANCH   7   8
ENDBRANCH   4   7
BRANCH   3  20
HETATM   20  O   UNL     1      41.496 -10.695   6.082  1.00  0.00    -0.353 OA
HETATM   21  C   UNL     1      40.200 -10.809   6.657  1.00  0.00     0.210 C 
ENDBRANCH   3  20
BRANCH   1  22
HETATM   22  C   UNL     1      40.030 -13.158   2.001  1.00  0.00     0.271 C 
BRANCH  22  23
HETATM   23  N   UNL     1      39.354 -14.309   2.632  1.00  0.00    -0.066 N 
HETATM   24  H   UNL     1      38.332 -14.247   2.534  1.00  0.00     0.277 HD
HETATM   25  H   UNL     1      39.487 -14.314   3.656  1.00  0.00     0.277 HD
BRANCH  23  26
HETATM   26  C   UNL     1      39.792 -15.669   2.166  1.00  0.00     0.293 C 
BRANCH  26  27
HETATM   27  C   UNL     1      40.973 -16.141   2.966  1.00  0.00     0.077 A 
HETATM   28  C   UNL     1      42.091 -16.686   2.353  1.00  0.00     0.145 A 
HETATM   29  N   UNL     1      43.168 -17.086   3.057  1.00  0.00    -0.262 NA
HETATM   30  C   UNL     1      43.114 -16.927   4.403  1.00  0.00     0.048 A 
HETATM   31  C   UNL     1      44.296 -17.363   5.211  1.00  0.00     0.072 C 
HETATM   32  C   UNL     1      41.993 -16.377   5.014  1.00  0.00     0.143 A 
HETATM   33  N   UNL     1      40.899 -15.967   4.318  1.00  0.00    -0.260 NA
ENDBRANCH  26  27
ENDBRANCH  23  26
ENDBRANCH  22  23
ENDBRANCH   1  22
TORSDOF 11
ENDMDL
MODEL 3
REMARK VINA RESULT:      -6.8      5.563      8.708
REMARK  11 active torsions:
REMARK  status: ('A' for Active; 'I' for Inactive)
REMARK    1  A    between atoms: C_5  and  C_6 
REMARK    2  A    between atoms: C_6  and  N_7 
REMARK    3  A    between atoms: N_7  and  C_10 
REMARK    4  A    between atoms: C_10  and  C_11 
REMARK    5  A    between atoms: C_13  and  O_14 
REMARK    6  A    between atoms: C_16  and  O_17 
REMARK    7  A    between atoms: O_17  and  C_18 
REMARK    8  A    between atoms: C_18  and  C_19 
REMARK    9  A    between atoms: C_19  and  O_20 
REMARK   10  A    between atoms: C_19  and  C_21 
REMARK   11  A    between atoms: C_21  and  N_22 
ROOT
HETATM    1  C   UNL     1      40.438 -14.077   2.944  1.00  0.00    -0.030 A 
HETATM    2  C   UNL     1      40.755 -12.967   2.143  1.00  0.00     0.048 A 
HETATM    3  C   UNL     1      40.683 -13.048   0.745  1.00  0.00     0.102 A 
HETATM    4  C   UNL     1      40.297 -14.258   0.132  1.00  0.00     0.102 A 
HETATM    5  C   UNL     1      40.014 -15.372   0.923  1.00  0.00     0.040 A 
HETATM    6  C   UNL     1      40.082 -15.281   2.319  1.00  0.00     0.012 A 
ENDROOT
BRANCH   4   7
HETATM    7  O   UNL     1      40.206 -14.221  -1.234  1.00  0.00    -0.346 OA
BRANCH   7   8
HETATM    8  C   UNL     1      39.127 -14.885  -1.880  1.00  0.00     0.209 C 
BRANCH   8   9
HETATM    9  C   UNL     1      38.515 -13.901  -2.888  1.00  0.00     0.168 C 
BRANCH   9  10
HETATM   10  O   UNL     1      38.236 -14.525  -4.150  1.00  0.00    -0.392 OA
HETATM   11  H   UNL     1      38.987 -15.112  -4.372  1.00  0.00     0.210 HD
ENDBRANCH   9  10
BRANCH   9  12
HETATM   12  C   UNL     1      39.453 -12.705  -3.156  1.00  0.00     0.268 C 
BRANCH  12  13
HETATM   13  N   UNL     1      39.011 -11.526  -2.286  1.00  0.00    -0.067 N 
HETATM   14  H   UNL     1      39.726 -11.501  -1.536  1.00  0.00     0.280 HD
HETATM   15  C   UNL     1      39.071 -10.200  -3.031  1.00  0.00     0.245 C 
HETATM   16  C   UNL     1      38.863  -9.013  -2.092  1.00  0.00     0.101 C 
HETATM   17  S   UNL     1      37.228  -9.054  -1.303  1.00  0.00    -0.166 SA
HETATM   18  C   UNL     1      37.318 -10.723  -0.592  1.00  0.00     0.101 C 
HETATM   19  C   UNL     1      37.658 -11.779  -1.644  1.00  0.00     0.245 C 
ENDBRANCH  12  13
ENDBRANCH   9  12
ENDBRANCH   8   9
ENDBRANCH   7   8
ENDBRANCH   4   7
BRANCH   3  20
HETATM   20  O   UNL     1      40.966 -12.015  -0.114  1.00  0.00    -0.353 OA
HETATM   21  C   UNL     1      41.228 -10.733   0.445  1.00  0.00     0.210 C 
ENDBRANCH   3  20
BRANCH   1  22
HETATM   22  C   UNL     1      40.485 -13.980   4.445  1.00  0.00     0.271 C 
BRANCH  22  23
HETATM   23  N   UNL     1      41.073 -15.188   5.057  1.00  0.00    -0.066 N 
HETATM   24  H   UNL     1      40.725 -16.045   4.609  1.00  0.00     0.277 HD
HETATM   25  H   UNL     1      40.770 -15.302   6.038  1.00  0.00     0.277 HD
BRANCH  23  26
HETATM   26  C   UNL     1      42.574 -15.247   5.092  1.00  0.00     0.293 C 
BRANCH  26  27
HETATM   27  C   UNL     1      43.040 -16.675   5.089  1.00  0.00     0.077 A 
HETATM   28  C   UNL     1      43.529 -17.274   3.938  1.00  0.00     0.145 A 
HETATM   29  N   UNL     1      43.977 -18.545   3.928  1.00  0.00    -0.262 NA
HETATM   30  C   UNL     1      43.935 -19.218   5.104  1.00  0.00     0.048 A 
HETATM   31  C   UNL     1      44.426 -20.632   5.125  1.00  0.00     0.072 C 
HETATM   32  C   UNL     1      43.448 -18.614   6.258  1.00  0.00     0.143 A 
HETATM   33  N   UNL     1      42.993 -17.332   6.284  1.00  0.00    -0.260 NA
ENDBRANCH  26  27
ENDBRANCH  23  26
ENDBRANCH  22  23
ENDBRANCH   1  22
TORSDOF 11
ENDMDL
MODEL 4
REMARK VINA RESULT:      -6.7      5.065      7.269
REMARK  11 active torsions:
REMARK  status: ('A' for Active; 'I' for Inactive)
REMARK    1  A    between atoms: C_5  and  C_6 
REMARK    2  A    between atoms: C_6  and  N_7 
REMARK    3  A    between atoms: N_7  and  C_10 
REMARK    4  A    between atoms: C_10  and  C_11 
REMARK    5  A    between atoms: C_13  and  O_14 
REMARK    6  A    between atoms: C_16  and  O_17 
REMARK    7  A    between atoms: O_17  and  C_18 
REMARK    8  A    between atoms: C_18  and  C_19 
REMARK    9  A    between atoms: C_19  and  O_20 
REMARK   10  A    between atoms: C_19  and  C_21 
REMARK   11  A    between atoms: C_21  and  N_22 
ROOT
HETATM    1  C   UNL     1      41.189 -14.731   5.707  1.00  0.00    -0.030 A 
HETATM    2  C   UNL     1      41.052 -15.154   4.374  1.00  0.00     0.048 A 
HETATM    3  C   UNL     1      40.466 -14.317   3.414  1.00  0.00     0.102 A 
HETATM    4  C   UNL     1      39.999 -13.040   3.788  1.00  0.00     0.102 A 
HETATM    5  C   UNL     1      40.103 -12.631   5.118  1.00  0.00     0.040 A 
HETATM    6  C   UNL     1      40.697 -13.470   6.070  1.00  0.00     0.012 A 
ENDROOT
BRANCH   4   7
HETATM    7  O   UNL     1      39.491 -12.279   2.770  1.00  0.00    -0.346 OA
BRANCH   7   8
HETATM    8  C   UNL     1      40.048 -10.996   2.512  1.00  0.00     0.209 C 
BRANCH   8   9
HETATM    9  C   UNL     1      41.235 -11.191   1.558  1.00  0.00     0.168 C 
BRANCH   9  10
HETATM   10  O   UNL     1      42.371 -10.401   1.940  1.00  0.00    -0.392 OA
HETATM   11  H   UNL     1      43.047 -10.479   1.236  1.00  0.00     0.210 HD
ENDBRANCH   9  10
BRANCH   9  12
HETATM   12  C   UNL     1      40.868 -10.810   0.109  1.00  0.00     0.268 C 
BRANCH  12  13
HETATM   13  N   UNL     1      39.783 -11.766  -0.394  1.00  0.00    -0.067 N 
HETATM   14  H   UNL     1      39.291 -12.046   0.475  1.00  0.00     0.280 HD
HETATM   15  C   UNL     1      38.774 -11.075  -1.298  1.00  0.00     0.245 C 
HETATM   16  C   UNL     1      37.572 -11.971  -1.594  1.00  0.00     0.101 C 
HETATM   17  S   UNL     1      38.058 -13.484  -2.474  1.00  0.00    -0.166 SA
HETATM   18  C   UNL     1      39.321 -14.074  -1.310  1.00  0.00     0.101 C 
HETATM   19  C   UNL     1      40.382 -13.012  -1.025  1.00  0.00     0.245 C 
ENDBRANCH  12  13
ENDBRANCH   9  12
ENDBRANCH   8   9
ENDBRANCH   7   8
ENDBRANCH   4   7
BRANCH   3  20
HETATM   20  O   UNL     1      40.298 -14.643   2.091  1.00  0.00    -0.353 OA
HETATM   21  C   UNL     1      40.190 -16.019   1.749  1.00  0.00     0.210 C 
ENDBRANCH   3  20
BRANCH   1  22
HETATM   22  C   UNL     1      41.848 -15.618   6.730  1.00  0.00     0.271 C 
BRANCH  22  23
HETATM   23  N   UNL     1      43.208 -16.017   6.317  1.00  0.00    -0.066 N 
HETATM   24  H   UNL     1      43.922 -15.394   6.716  1.00  0.00     0.277 HD
HETATM   25  H   UNL     1      43.346 -15.903   5.300  1.00  0.00     0.277 HD
BRANCH  23  26
HETATM   26  C   UNL     1      43.599 -17.437   6.617  1.00  0.00     0.293 C 
BRANCH  26  27
HETATM   27  C   UNL     1      43.655 -18.242   5.350  1.00  0.00     0.077 A 
HETATM   28  C   UNL     1      43.511 -17.645   4.107  1.00  0.00     0.145 A 
HETATM   29  N   UNL     1      43.588 -18.352   2.962  1.00  0.00    -0.262 NA
HETATM   30  C   UNL     1      43.820 -19.683   3.077  1.00  0.00     0.048 A 
HETATM   31  C   UNL     1      43.911 -20.494   1.822  1.00  0.00     0.072 C 
HETATM   32  C   UNL     1      43.968 -20.278   4.325  1.00  0.00     0.143 A 
HETATM   33  N   UNL     1      43.894 -19.578   5.489  1.00  0.00    -0.260 NA
ENDBRANCH  26  27
ENDBRANCH  23  26
ENDBRANCH  22  23
ENDBRANCH   1  22
TORSDOF 11
ENDMDL
MODEL 5
REMARK VINA RESULT:      -6.7      4.335      7.343
REMARK  11 active torsions:
REMARK  status: ('A' for Active; 'I' for Inactive)
REMARK    1  A    between atoms: C_5  and  C_6 
REMARK    2  A    between atoms: C_6  and  N_7 
REMARK    3  A    between atoms: N_7  and  C_10 
REMARK    4  A    between atoms: C_10  and  C_11 
REMARK    5  A    between atoms: C_13  and  O_14 
REMARK    6  A    between atoms: C_16  and  O_17 
REMARK    7  A    between atoms: O_17  and  C_18 
REMARK    8  A    between atoms: C_18  and  C_19 
REMARK    9  A    between atoms: C_19  and  O_20 
REMARK   10  A    between atoms: C_19  and  C_21 
REMARK   11  A    between atoms: C_21  and  N_22 
ROOT
HETATM    1  C   UNL     1      42.532 -14.959   6.781  1.00  0.00    -0.030 A 
HETATM    2  C   UNL     1      43.278 -14.044   6.020  1.00  0.00     0.048 A 
HETATM    3  C   UNL     1      42.649 -13.210   5.085  1.00  0.00     0.102 A 
HETATM    4  C   UNL     1      41.254 -13.295   4.896  1.00  0.00     0.102 A 
HETATM    5  C   UNL     1      40.516 -14.227   5.626  1.00  0.00     0.040 A 
HETATM    6  C   UNL     1      41.150 -15.051   6.564  1.00  0.00     0.012 A 
ENDROOT
BRANCH   4   7
HETATM    7  O   UNL     1      40.727 -12.404   3.999  1.00  0.00    -0.346 OA
BRANCH   7   8
HETATM    8  C   UNL     1      39.337 -12.448   3.707  1.00  0.00     0.209 C 
BRANCH   8   9
HETATM    9  C   UNL     1      39.168 -13.182   2.369  1.00  0.00     0.168 C 
BRANCH   9  10
HETATM   10  O   UNL     1      38.970 -14.593   2.549  1.00  0.00    -0.392 OA
HETATM   11  H   UNL     1      38.209 -14.720   3.151  1.00  0.00     0.210 HD
ENDBRANCH   9  10
BRANCH   9  12
HETATM   12  C   UNL     1      40.399 -12.996   1.459  1.00  0.00     0.268 C 
BRANCH  12  13
HETATM   13  N   UNL     1      39.926 -12.859   0.010  1.00  0.00    -0.067 N 
HETATM   14  H   UNL     1      40.658 -12.267  -0.426  1.00  0.00     0.280 HD
HETATM   15  C   UNL     1      39.907 -14.191  -0.724  1.00  0.00     0.245 C 
HETATM   16  C   UNL     1      39.669 -14.009  -2.223  1.00  0.00     0.101 C 
HETATM   17  S   UNL     1      38.058 -13.244  -2.563  1.00  0.00    -0.166 SA
HETATM   18  C   UNL     1      38.241 -11.766  -1.523  1.00  0.00     0.101 C 
HETATM   19  C   UNL     1      38.602 -12.118  -0.081  1.00  0.00     0.245 C 
ENDBRANCH  12  13
ENDBRANCH   9  12
ENDBRANCH   8   9
ENDBRANCH   7   8
ENDBRANCH   4   7
BRANCH   3  20
HETATM   20  O   UNL     1      43.295 -12.283   4.304  1.00  0.00    -0.353 OA
HETATM   21  C   UNL     1      44.282 -11.463   4.918  1.00  0.00     0.210 C 
ENDBRANCH   3  20
BRANCH   1  22
HETATM   22  C   UNL     1      43.204 -15.831   7.808  1.00  0.00     0.271 C 
BRANCH  22  23
HETATM   23  N   UNL     1      44.081 -16.841   7.184  1.00  0.00    -0.066 N 
HETATM   24  H   UNL     1      45.009 -16.862   7.627  1.00  0.00     0.277 HD
HETATM   25  H   UNL     1      44.300 -16.601   6.203  1.00  0.00     0.277 HD
BRANCH  23  26
HETATM   26  C   UNL     1      43.545 -18.245   7.142  1.00  0.00     0.293 C 
BRANCH  26  27
HETATM   27  C   UNL     1      43.625 -18.793   5.746  1.00  0.00     0.077 A 
HETATM   28  C   UNL     1      43.535 -17.965   4.637  1.00  0.00     0.145 A 
HETATM   29  N   UNL     1      43.634 -18.441   3.380  1.00  0.00    -0.262 NA
HETATM   30  C   UNL     1      43.832 -19.775   3.243  1.00  0.00     0.048 A 
HETATM   31  C   UNL     1      43.946 -20.333   1.859  1.00  0.00     0.072 C 
HETATM   32  C   UNL     1      43.926 -20.602   4.357  1.00  0.00     0.143 A 
HETATM   33  N   UNL     1      43.830 -20.138   5.632  1.00  0.00    -0.260 NA
ENDBRANCH  26  27
ENDBRANCH  23  26
ENDBRANCH  22  23
ENDBRANCH   1  22
TORSDOF 11
ENDMDL
MODEL 6
REMARK VINA RESULT:      -6.6      2.165      3.329
REMARK  11 active torsions:
REMARK  status: ('A' for Active; 'I' for Inactive)
REMARK    1  A    between atoms: C_5  and  C_6 
REMARK    2  A    between atoms: C_6  and  N_7 
REMARK    3  A    between atoms: N_7  and  C_10 
REMARK    4  A    between atoms: C_10  and  C_11 
REMARK    5  A    between atoms: C_13  and  O_14 
REMARK    6  A    between atoms: C_16  and  O_17 
REMARK    7  A    between atoms: O_17  and  C_18 
REMARK    8  A    between atoms: C_18  and  C_19 
REMARK    9  A    between atoms: C_19  and  O_20 
REMARK   10  A    between atoms: C_19  and  C_21 
REMARK   11  A    between atoms: C_21  and  N_22 
ROOT
HETATM    1  C   UNL     1      42.786 -12.578   5.632  1.00  0.00    -0.030 A 
HETATM    2  C   UNL     1      42.103 -11.366   5.833  1.00  0.00     0.048 A 
HETATM    3  C   UNL     1      42.590 -10.411   6.737  1.00  0.00     0.102 A 
HETATM    4  C   UNL     1      43.771 -10.670   7.462  1.00  0.00     0.102 A 
HETATM    5  C   UNL     1      44.433 -11.886   7.290  1.00  0.00     0.040 A 
HETATM    6  C   UNL     1      43.945 -12.832   6.379  1.00  0.00     0.012 A 
ENDROOT
BRANCH   4   7
HETATM    7  O   UNL     1      44.193  -9.655   8.280  1.00  0.00    -0.346 OA
BRANCH   7   8
HETATM    8  C   UNL     1      44.957  -9.965   9.438  1.00  0.00     0.209 C 
BRANCH   8   9
HETATM    9  C   UNL     1      43.978 -10.112  10.613  1.00  0.00     0.168 C 
BRANCH   9  10
HETATM   10  O   UNL     1      43.638 -11.485  10.863  1.00  0.00    -0.392 OA
HETATM   11  H   UNL     1      43.937 -11.711  11.768  1.00  0.00     0.210 HD
ENDBRANCH   9  10
BRANCH   9  12
HETATM   12  C   UNL     1      42.664  -9.345  10.357  1.00  0.00     0.268 C 
BRANCH  12  13
HETATM   13  N   UNL     1      42.165  -8.764  11.682  1.00  0.00    -0.067 N 
HETATM   14  H   UNL     1      41.624  -7.929  11.388  1.00  0.00     0.280 HD
HETATM   15  C   UNL     1      41.213  -9.703  12.407  1.00  0.00     0.245 C 
HETATM   16  C   UNL     1      40.539  -9.020  13.596  1.00  0.00     0.101 C 
HETATM   17  S   UNL     1      41.746  -8.492  14.845  1.00  0.00    -0.166 SA
HETATM   18  C   UNL     1      42.826  -7.505  13.770  1.00  0.00     0.101 C 
HETATM   19  C   UNL     1      43.316  -8.300  12.559  1.00  0.00     0.245 C 
ENDBRANCH  12  13
ENDBRANCH   9  12
ENDBRANCH   8   9
ENDBRANCH   7   8
ENDBRANCH   4   7
BRANCH   3  20
HETATM   20  O   UNL     1      41.994  -9.200   6.991  1.00  0.00    -0.353 OA
HETATM   21  C   UNL     1      40.578  -9.118   6.894  1.00  0.00     0.210 C 
ENDBRANCH   3  20
BRANCH   1  22
HETATM   22  C   UNL     1      42.281 -13.588   4.638  1.00  0.00     0.271 C 
BRANCH  22  23
HETATM   23  N   UNL     1      43.206 -14.729   4.494  1.00  0.00    -0.066 N 
HETATM   24  H   UNL     1      44.151 -14.493   4.826  1.00  0.00     0.277 HD
HETATM   25  H   UNL     1      43.365 -14.966   3.501  1.00  0.00     0.277 HD
BRANCH  23  26
HETATM   26  C   UNL     1      42.780 -16.012   5.149  1.00  0.00     0.293 C 
BRANCH  26  27
HETATM   27  C   UNL     1      43.074 -17.180   4.251  1.00  0.00     0.077 A 
HETATM   28  C   UNL     1      43.899 -18.217   4.660  1.00  0.00     0.145 A 
HETATM   29  N   UNL     1      44.148 -19.284   3.875  1.00  0.00    -0.262 NA
HETATM   30  C   UNL     1      43.547 -19.304   2.659  1.00  0.00     0.048 A 
HETATM   31  C   UNL     1      43.804 -20.477   1.765  1.00  0.00     0.072 C 
HETATM   32  C   UNL     1      42.717 -18.265   2.254  1.00  0.00     0.143 A 
HETATM   33  N   UNL     1      42.455 -17.182   3.035  1.00  0.00    -0.260 NA
ENDBRANCH  26  27
ENDBRANCH  23  26
ENDBRANCH  22  23
ENDBRANCH   1  22
TORSDOF 11
ENDMDL
MODEL 7
REMARK VINA RESULT:      -6.5      4.308      9.329
REMARK  11 active torsions:
REMARK  status: ('A' for Active; 'I' for Inactive)
REMARK    1  A    between atoms: C_5  and  C_6 
REMARK    2  A    between atoms: C_6  and  N_7 
REMARK    3  A    between atoms: N_7  and  C_10 
REMARK    4  A    between atoms: C_10  and  C_11 
REMARK    5  A    between atoms: C_13  and  O_14 
REMARK    6  A    between atoms: C_16  and  O_17 
REMARK    7  A    between atoms: O_17  and  C_18 
REMARK    8  A    between atoms: C_18  and  C_19 
REMARK    9  A    between atoms: C_19  and  O_20 
REMARK   10  A    between atoms: C_19  and  C_21 
REMARK   11  A    between atoms: C_21  and  N_22 
ROOT
HETATM    1  C   UNL     1      44.364 -11.988   5.921  1.00  0.00    -0.030 A 
HETATM    2  C   UNL     1      43.877 -13.169   6.509  1.00  0.00     0.048 A 
HETATM    3  C   UNL     1      42.824 -13.881   5.920  1.00  0.00     0.102 A 
HETATM    4  C   UNL     1      42.236 -13.407   4.729  1.00  0.00     0.102 A 
HETATM    5  C   UNL     1      42.694 -12.217   4.161  1.00  0.00     0.040 A 
HETATM    6  C   UNL     1      43.752 -11.515   4.752  1.00  0.00     0.012 A 
ENDROOT
BRANCH   4   7
HETATM    7  O   UNL     1      41.250 -14.199   4.204  1.00  0.00    -0.346 OA
BRANCH   7   8
HETATM    8  C   UNL     1      41.428 -14.774   2.916  1.00  0.00     0.209 C 
BRANCH   8   9
HETATM    9  C   UNL     1      40.135 -14.539   2.122  1.00  0.00     0.168 C 
BRANCH   9  10
HETATM   10  O   UNL     1      39.049 -15.344   2.608  1.00  0.00    -0.392 OA
HETATM   11  H   UNL     1      38.375 -14.745   2.991  1.00  0.00     0.210 HD
ENDBRANCH   9  10
BRANCH   9  12
HETATM   12  C   UNL     1      40.321 -14.863   0.625  1.00  0.00     0.268 C 
BRANCH  12  13
HETATM   13  N   UNL     1      39.398 -13.957  -0.194  1.00  0.00    -0.067 N 
HETATM   14  H   UNL     1      38.485 -14.046   0.291  1.00  0.00     0.280 HD
HETATM   15  C   UNL     1      39.816 -12.496  -0.136  1.00  0.00     0.245 C 
HETATM   16  C   UNL     1      38.759 -11.579  -0.750  1.00  0.00     0.101 C 
HETATM   17  S   UNL     1      38.493 -11.939  -2.510  1.00  0.00    -0.166 SA
HETATM   18  C   UNL     1      38.131 -13.713  -2.366  1.00  0.00     0.101 C 
HETATM   19  C   UNL     1      39.230 -14.465  -1.616  1.00  0.00     0.245 C 
ENDBRANCH  12  13
ENDBRANCH   9  12
ENDBRANCH   8   9
ENDBRANCH   7   8
ENDBRANCH   4   7
BRANCH   3  20
HETATM   20  O   UNL     1      42.291 -15.044   6.418  1.00  0.00    -0.353 OA
HETATM   21  C   UNL     1      42.809 -15.545   7.644  1.00  0.00     0.210 C 
ENDBRANCH   3  20
BRANCH   1  22
HETATM   22  C   UNL     1      45.517 -11.242   6.537  1.00  0.00     0.271 C 
BRANCH  22  23
HETATM   23  N   UNL     1      45.059 -10.206   7.483  1.00  0.00    -0.066 N 
HETATM   24  H   UNL     1      44.035 -10.103   7.465  1.00  0.00     0.277 HD
HETATM   25  H   UNL     1      45.388  -9.266   7.206  1.00  0.00     0.277 HD
BRANCH  23  26
HETATM   26  C   UNL     1      45.492 -10.378   8.911  1.00  0.00     0.293 C 
BRANCH  26  27
HETATM   27  C   UNL     1      44.321 -10.206   9.837  1.00  0.00     0.077 A 
HETATM   28  C   UNL     1      43.184  -9.516   9.444  1.00  0.00     0.145 A 
HETATM   29  N   UNL     1      42.116  -9.379  10.255  1.00  0.00    -0.262 NA
HETATM   30  C   UNL     1      42.198  -9.955  11.479  1.00  0.00     0.048 A 
HETATM   31  C   UNL     1      41.026  -9.820  12.402  1.00  0.00     0.072 C 
HETATM   32  C   UNL     1      43.337 -10.650  11.869  1.00  0.00     0.143 A 
HETATM   33  N   UNL     1      44.423 -10.797  11.062  1.00  0.00    -0.260 NA
ENDBRANCH  26  27
ENDBRANCH  23  26
ENDBRANCH  22  23
ENDBRANCH   1  22
TORSDOF 11
ENDMDL
MODEL 8
REMARK VINA RESULT:      -6.5      6.662     12.340
REMARK  11 active torsions:
REMARK  status: ('A' for Active; 'I' for Inactive)
REMARK    1  A    between atoms: C_5  and  C_6 
REMARK    2  A    between atoms: C_6  and  N_7 
REMARK    3  A    between atoms: N_7  and  C_10 
REMARK    4  A    between atoms: C_10  and  C_11 
REMARK    5  A    between atoms: C_13  and  O_14 
REMARK    6  A    between atoms: C_16  and  O_17 
REMARK    7  A    between atoms: O_17  and  C_18 
REMARK    8  A    between atoms: C_18  and  C_19 
REMARK    9  A    between atoms: C_19  and  O_20 
REMARK   10  A    between atoms: C_19  and  C_21 
REMARK   11  A    between atoms: C_21  and  N_22 
ROOT
HETATM    1  C   UNL     1      41.999  -7.758  14.532  1.00  0.00    -0.030 A 
HETATM    2  C   UNL     1      41.020  -8.603  13.982  1.00  0.00     0.048 A 
HETATM    3  C   UNL     1      41.243  -9.260  12.764  1.00  0.00     0.102 A 
HETATM    4  C   UNL     1      42.458  -9.068  12.075  1.00  0.00     0.102 A 
HETATM    5  C   UNL     1      43.418  -8.203  12.602  1.00  0.00     0.040 A 
HETATM    6  C   UNL     1      43.192  -7.556  13.823  1.00  0.00     0.012 A 
ENDROOT
BRANCH   4   7
HETATM    7  O   UNL     1      42.601  -9.793  10.923  1.00  0.00    -0.346 OA
BRANCH   7   8
HETATM    8  C   UNL     1      43.830 -10.461  10.666  1.00  0.00     0.209 C 
BRANCH   8   9
HETATM    9  C   UNL     1      44.181 -10.233   9.189  1.00  0.00     0.168 C 
BRANCH   9  10
HETATM   10  O   UNL     1      45.213 -11.123   8.736  1.00  0.00    -0.392 OA
HETATM   11  H   UNL     1      45.270 -11.869   9.367  1.00  0.00     0.210 HD
ENDBRANCH   9  10
BRANCH   9  12
HETATM   12  C   UNL     1      44.665  -8.790   8.936  1.00  0.00     0.268 C 
BRANCH  12  13
HETATM   13  N   UNL     1      43.581  -8.035   8.163  1.00  0.00    -0.067 N 
HETATM   14  H   UNL     1      44.110  -7.571   7.401  1.00  0.00     0.280 HD
HETATM   15  C   UNL     1      42.565  -8.969   7.522  1.00  0.00     0.245 C 
HETATM   16  C   UNL     1      41.638  -8.225   6.561  1.00  0.00     0.101 C 
HETATM   17  S   UNL     1      40.660  -6.956   7.415  1.00  0.00    -0.166 SA
HETATM   18  C   UNL     1      42.026  -6.044   8.190  1.00  0.00     0.101 C 
HETATM   19  C   UNL     1      42.932  -6.957   9.015  1.00  0.00     0.245 C 
ENDBRANCH  12  13
ENDBRANCH   9  12
ENDBRANCH   8   9
ENDBRANCH   7   8
ENDBRANCH   4   7
BRANCH   3  20
HETATM   20  O   UNL     1      40.348 -10.107  12.158  1.00  0.00    -0.353 OA
HETATM   21  C   UNL     1      39.435 -10.819  12.984  1.00  0.00     0.210 C 
ENDBRANCH   3  20
BRANCH   1  22
HETATM   22  C   UNL     1      41.772  -7.078  15.855  1.00  0.00     0.271 C 
BRANCH  22  23
HETATM   23  N   UNL     1      41.248  -8.013  16.871  1.00  0.00    -0.066 N 
HETATM   24  H   UNL     1      42.006  -8.527  17.338  1.00  0.00     0.277 HD
HETATM   25  H   UNL     1      40.690  -8.768  16.441  1.00  0.00     0.277 HD
BRANCH  23  26
HETATM   26  C   UNL     1      40.363  -7.412  17.927  1.00  0.00     0.293 C 
BRANCH  26  27
HETATM   27  C   UNL     1      40.456  -8.205  19.199  1.00  0.00     0.077 A 
HETATM   28  C   UNL     1      39.321  -8.628  19.873  1.00  0.00     0.145 A 
HETATM   29  N   UNL     1      39.390  -9.364  21.000  1.00  0.00    -0.262 NA
HETATM   30  C   UNL     1      40.630  -9.681  21.449  1.00  0.00     0.048 A 
HETATM   31  C   UNL     1      40.739 -10.497  22.699  1.00  0.00     0.072 C 
HETATM   32  C   UNL     1      41.767  -9.258  20.769  1.00  0.00     0.143 A 
HETATM   33  N   UNL     1      41.713  -8.516  19.631  1.00  0.00    -0.260 NA
ENDBRANCH  26  27
ENDBRANCH  23  26
ENDBRANCH  22  23
ENDBRANCH   1  22
TORSDOF 11
ENDMDL
MODEL 9
REMARK VINA RESULT:      -6.5      3.744      5.259
REMARK  11 active torsions:
REMARK  status: ('A' for Active; 'I' for Inactive)
REMARK    1  A    between atoms: C_5  and  C_6 
REMARK    2  A    between atoms: C_6  and  N_7 
REMARK    3  A    between atoms: N_7  and  C_10 
REMARK    4  A    between atoms: C_10  and  C_11 
REMARK    5  A    between atoms: C_13  and  O_14 
REMARK    6  A    between atoms: C_16  and  O_17 
REMARK    7  A    between atoms: O_17  and  C_18 
REMARK    8  A    between atoms: C_18  and  C_19 
REMARK    9  A    between atoms: C_19  and  O_20 
REMARK   10  A    between atoms: C_19  and  C_21 
REMARK   11  A    between atoms: C_21  and  N_22 
ROOT
HETATM    1  C   UNL     1      41.456 -14.703   6.009  1.00  0.00    -0.030 A 
HETATM    2  C   UNL     1      41.586 -15.019   4.646  1.00  0.00     0.048 A 
HETATM    3  C   UNL     1      40.825 -14.348   3.679  1.00  0.00     0.102 A 
HETATM    4  C   UNL     1      39.910 -13.350   4.075  1.00  0.00     0.102 A 
HETATM    5  C   UNL     1      39.755 -13.058   5.430  1.00  0.00     0.040 A 
HETATM    6  C   UNL     1      40.524 -13.727   6.390  1.00  0.00     0.012 A 
ENDROOT
BRANCH   4   7
HETATM    7  O   UNL     1      39.253 -12.717   3.054  1.00  0.00    -0.346 OA
BRANCH   7   8
HETATM    8  C   UNL     1      39.199 -11.296   3.034  1.00  0.00     0.209 C 
BRANCH   8   9
HETATM    9  C   UNL     1      40.029 -10.819   1.834  1.00  0.00     0.168 C 
BRANCH   9  10
HETATM   10  O   UNL     1      40.496 -11.914   1.029  1.00  0.00    -0.392 OA
HETATM   11  H   UNL     1      39.733 -12.271   0.530  1.00  0.00     0.210 HD
ENDBRANCH   9  10
BRANCH   9  12
HETATM   12  C   UNL     1      41.264 -10.011   2.282  1.00  0.00     0.268 C 
BRANCH  12  13
HETATM   13  N   UNL     1      41.805 -10.616   3.580  1.00  0.00    -0.067 N 
HETATM   14  H   UNL     1      41.120 -11.363   3.799  1.00  0.00     0.280 HD
HETATM   15  C   UNL     1      43.165 -11.272   3.394  1.00  0.00     0.245 C 
HETATM   16  C   UNL     1      43.580 -12.077   4.624  1.00  0.00     0.101 C 
HETATM   17  S   UNL     1      43.746 -11.024   6.095  1.00  0.00    -0.166 SA
HETATM   18  C   UNL     1      42.097 -10.264   6.065  1.00  0.00     0.101 C 
HETATM   19  C   UNL     1      41.789  -9.609   4.718  1.00  0.00     0.245 C 
ENDBRANCH  12  13
ENDBRANCH   9  12
ENDBRANCH   8   9
ENDBRANCH   7   8
ENDBRANCH   4   7
BRANCH   3  20
HETATM   20  O   UNL     1      40.891 -14.585   2.328  1.00  0.00    -0.353 OA
HETATM   21  C   UNL     1      40.529 -15.878   1.857  1.00  0.00     0.210 C 
ENDBRANCH   3  20
BRANCH   1  22
HETATM   22  C   UNL     1      42.297 -15.402   7.043  1.00  0.00     0.271 C 
BRANCH  22  23
HETATM   23  N   UNL     1      42.447 -16.841   6.750  1.00  0.00    -0.066 N 
HETATM   24  H   UNL     1      41.801 -17.144   6.010  1.00  0.00     0.277 HD
HETATM   25  H   UNL     1      42.164 -17.424   7.555  1.00  0.00     0.277 HD
BRANCH  23  26
HETATM   26  C   UNL     1      43.830 -17.301   6.389  1.00  0.00     0.293 C 
BRANCH  26  27
HETATM   27  C   UNL     1      43.791 -18.156   5.154  1.00  0.00     0.077 A 
HETATM   28  C   UNL     1      43.585 -17.605   3.899  1.00  0.00     0.145 A 
HETATM   29  N   UNL     1      43.576 -18.357   2.780  1.00  0.00    -0.262 NA
HETATM   30  C   UNL     1      43.784 -19.688   2.935  1.00  0.00     0.048 A 
HETATM   31  C   UNL     1      43.779 -20.549   1.711  1.00  0.00     0.072 C 
HETATM   32  C   UNL     1      43.994 -20.237   4.195  1.00  0.00     0.143 A 
HETATM   33  N   UNL     1      44.007 -19.492   5.333  1.00  0.00    -0.260 NA
ENDBRANCH  26  27
ENDBRANCH  23  26
ENDBRANCH  22  23
ENDBRANCH   1  22
TORSDOF 11
ENDMDL
MODEL 10
REMARK VINA RESULT:      -6.5      6.301     12.562
REMARK  11 active torsions:
REMARK  status: ('A' for Active; 'I' for Inactive)
REMARK    1  A    between atoms: C_5  and  C_6 
REMARK    2  A    between atoms: C_6  and  N_7 
REMARK    3  A    between atoms: N_7  and  C_10 
REMARK    4  A    between atoms: C_10  and  C_11 
REMARK    5  A    between atoms: C_13  and  O_14 
REMARK    6  A    between atoms: C_16  and  O_17 
REMARK    7  A    between atoms: O_17  and  C_18 
REMARK    8  A    between atoms: C_18  and  C_19 
REMARK    9  A    between atoms: C_19  and  O_20 
REMARK   10  A    between atoms: C_19  and  C_21 
REMARK   11  A    between atoms: C_21  and  N_22 
ROOT
HETATM    1  C   UNL     1      42.082  -7.710  14.956  1.00  0.00    -0.030 A 
HETATM    2  C   UNL     1      41.352  -8.764  14.379  1.00  0.00     0.048 A 
HETATM    3  C   UNL     1      41.729  -9.302  13.141  1.00  0.00     0.102 A 
HETATM    4  C   UNL     1      42.846  -8.779  12.459  1.00  0.00     0.102 A 
HETATM    5  C   UNL     1      43.552  -7.710  13.013  1.00  0.00     0.040 A 
HETATM    6  C   UNL     1      43.175  -7.182  14.254  1.00  0.00     0.012 A 
ENDROOT
BRANCH   4   7
HETATM    7  O   UNL     1      43.164  -9.406  11.284  1.00  0.00    -0.346 OA
BRANCH   7   8
HETATM    8  C   UNL     1      44.418  -9.141  10.669  1.00  0.00     0.209 C 
BRANCH   8   9
HETATM    9  C   UNL     1      44.190  -9.104   9.151  1.00  0.00     0.168 C 
BRANCH   9  10
HETATM   10  O   UNL     1      44.535  -7.830   8.583  1.00  0.00    -0.392 OA
HETATM   11  H   UNL     1      44.127  -7.772   7.695  1.00  0.00     0.210 HD
ENDBRANCH   9  10
BRANCH   9  12
HETATM   12  C   UNL     1      42.718  -9.392   8.790  1.00  0.00     0.268 C 
BRANCH  12  13
HETATM   13  N   UNL     1      42.665 -10.615   7.872  1.00  0.00    -0.067 N 
HETATM   14  H   UNL     1      42.052 -11.274   8.387  1.00  0.00     0.280 HD
HETATM   15  C   UNL     1      42.003 -10.312   6.536  1.00  0.00     0.245 C 
HETATM   16  C   UNL     1      41.739 -11.585   5.732  1.00  0.00     0.101 C 
HETATM   17  S   UNL     1      43.279 -12.457   5.324  1.00  0.00    -0.166 SA
HETATM   18  C   UNL     1      43.950 -12.610   7.005  1.00  0.00     0.101 C 
HETATM   19  C   UNL     1      44.032 -11.261   7.717  1.00  0.00     0.245 C 
ENDBRANCH  12  13
ENDBRANCH   9  12
ENDBRANCH   8   9
ENDBRANCH   7   8
ENDBRANCH   4   7
BRANCH   3  20
HETATM   20  O   UNL     1      41.081 -10.334  12.508  1.00  0.00    -0.353 OA
HETATM   21  C   UNL     1      39.778 -10.090  11.993  1.00  0.00     0.210 C 
ENDBRANCH   3  20
BRANCH   1  22
HETATM   22  C   UNL     1      41.696  -7.154  16.300  1.00  0.00     0.271 C 
BRANCH  22  23
HETATM   23  N   UNL     1      40.966  -8.144  17.116  1.00  0.00    -0.066 N 
HETATM   24  H   UNL     1      41.583  -8.906  17.426  1.00  0.00     0.277 HD
HETATM   25  H   UNL     1      40.249  -8.639  16.562  1.00  0.00     0.277 HD
BRANCH  23  26
HETATM   26  C   UNL     1      40.242  -7.605  18.317  1.00  0.00     0.293 C 
BRANCH  26  27
HETATM   27  C   UNL     1      40.546  -8.439  19.529  1.00  0.00     0.077 A 
HETATM   28  C   UNL     1      39.534  -8.978  20.309  1.00  0.00     0.145 A 
HETATM   29  N   UNL     1      39.793  -9.751  21.382  1.00  0.00    -0.262 NA
HETATM   30  C   UNL     1      41.097  -9.986  21.667  1.00  0.00     0.048 A 
HETATM   31  C   UNL     1      41.417 -10.842  22.853  1.00  0.00     0.072 C 
HETATM   32  C   UNL     1      42.110  -9.448  20.881  1.00  0.00     0.143 A 
HETATM   33  N   UNL     1      41.865  -8.666  19.795  1.00  0.00    -0.260 NA
ENDBRANCH  26  27
ENDBRANCH  23  26
ENDBRANCH  22  23
ENDBRANCH   1  22
TORSDOF 11
ENDMDL
