MODEL 1
REMARK VINA RESULT:      -7.4      0.000      0.000
REMARK  4 active torsions:
REMARK  status: ('A' for Active; 'I' for Inactive)
REMARK    1  A    between atoms: C_4  and  N_5 
REMARK       I    between atoms: N_5  and  C_6 
REMARK    2  A    between atoms: C_6  and  C_7 
REMARK    3  A    between atoms: C_7  and  O_8 
REMARK    4  A    between atoms: O_8  and  C_9 
ROOT
HETATM    1  N   UNL     1      40.287 -14.905   5.077  1.00  0.00    -0.309 N 
HETATM    2  C   UNL     1      41.082 -15.463   6.035  1.00  0.00     0.252 C 
HETATM    3  O   UNL     1      40.495 -15.996   6.985  1.00  0.00    -0.270 OA
HETATM    4  H   UNL     1      39.308 -14.965   5.320  1.00  0.00     0.170 HD
ENDROOT
BRANCH   2   5
HETATM    5  C   UNL     1      42.625 -15.404   5.961  1.00  0.00     0.217 C 
HETATM    6  C   UNL     1      43.143 -14.576   7.138  1.00  0.00     0.050 C 
BRANCH   5   7
HETATM    7  O   UNL     1      43.247 -16.688   6.109  1.00  0.00    -0.335 OA
BRANCH   7   8
HETATM    8  C   UNL     1      43.385 -17.495   5.012  1.00  0.00     0.091 A 
HETATM    9  C   UNL     1      43.563 -18.869   5.258  1.00  0.00     0.069 A 
HETATM   10 CL   UNL     1      43.590 -19.498   6.870  1.00  0.00    -0.081 Cl
HETATM   11  C   UNL     1      43.718 -19.773   4.205  1.00  0.00     0.050 A 
HETATM   12  C   UNL     1      43.707 -19.305   2.896  1.00  0.00     0.035 A 
HETATM   13 CL   UNL     1      43.902 -20.409   1.591  1.00  0.00    -0.084 Cl
HETATM   14  C   UNL     1      43.546 -17.946   2.634  1.00  0.00     0.026 A 
HETATM   15  C   UNL     1      43.387 -17.042   3.690  1.00  0.00     0.040 A 
ENDBRANCH   7   8
ENDBRANCH   5   7
ENDBRANCH   2   5
BRANCH   1  16
HETATM   16  C   UNL     1      40.613 -14.319   3.856  1.00  0.00     0.130 A 
HETATM   17  C   UNL     1      40.176 -14.967   2.703  1.00  0.00     0.057 A 
HETATM   18  C   UNL     1      40.468 -14.416   1.453  1.00  0.00    -0.057 A 
HETATM   19  C   UNL     1      39.993 -15.063   0.187  1.00  0.00     0.048 C 
HETATM   20  C   UNL     1      41.201 -13.232   1.407  1.00  0.00     0.033 A 
HETATM   21  C   UNL     1      41.614 -12.650   2.599  1.00  0.00     0.033 A 
HETATM   22  N   UNL     1      41.327 -13.182   3.811  1.00  0.00    -0.236 NA
HETATM   23  C   UNL     1      42.405 -11.375   2.579  1.00  0.00     0.070 C 
ENDBRANCH   1  16
TORSDOF 4
ENDMDL
MODEL 2
REMARK VINA RESULT:      -7.4      2.045      2.742
REMARK  4 active torsions:
REMARK  status: ('A' for Active; 'I' for Inactive)
REMARK    1  A    between atoms: C_4  and  N_5 
REMARK       I    between atoms: N_5  and  C_6 
REMARK    2  A    between atoms: C_6  and  C_7 
REMARK    3  A    between atoms: C_7  and  O_8 
REMARK    4  A    between atoms: O_8  and  C_9 
ROOT
HETATM    1  N   UNL     1      40.109 -13.656   2.451  1.00  0.00    -0.309 N 
HETATM    2  C   UNL     1      41.046 -14.127   3.323  1.00  0.00     0.252 C 
HETATM    3  O   UNL     1      40.653 -14.344   4.477  1.00  0.00    -0.270 OA
HETATM    4  H   UNL     1      39.219 -13.500   2.904  1.00  0.00     0.170 HD
ENDROOT
BRANCH   2   5
HETATM    5  C   UNL     1      42.520 -14.342   2.912  1.00  0.00     0.217 C 
HETATM    6  C   UNL     1      43.240 -12.993   2.933  1.00  0.00     0.050 C 
BRANCH   5   7
HETATM    7  O   UNL     1      43.249 -15.167   3.832  1.00  0.00    -0.335 OA
BRANCH   7   8
HETATM    8  C   UNL     1      43.361 -16.508   3.584  1.00  0.00     0.091 A 
HETATM    9  C   UNL     1      43.988 -17.282   4.578  1.00  0.00     0.069 A 
HETATM   10 CL   UNL     1      44.571 -16.566   6.041  1.00  0.00    -0.081 Cl
HETATM   11  C   UNL     1      44.154 -18.660   4.417  1.00  0.00     0.050 A 
HETATM   12  C   UNL     1      43.704 -19.271   3.252  1.00  0.00     0.035 A 
HETATM   13 CL   UNL     1      43.908 -20.966   3.041  1.00  0.00    -0.084 Cl
HETATM   14  C   UNL     1      43.093 -18.517   2.252  1.00  0.00     0.026 A 
HETATM   15  C   UNL     1      42.923 -17.138   2.416  1.00  0.00     0.040 A 
ENDBRANCH   7   8
ENDBRANCH   5   7
ENDBRANCH   2   5
BRANCH   1  16
HETATM   16  C   UNL     1      40.190 -13.400   1.084  1.00  0.00     0.130 A 
HETATM   17  C   UNL     1      39.697 -14.379   0.224  1.00  0.00     0.057 A 
HETATM   18  C   UNL     1      39.745 -14.168  -1.156  1.00  0.00    -0.057 A 
HETATM   19  C   UNL     1      39.201 -15.180  -2.118  1.00  0.00     0.048 C 
HETATM   20  C   UNL     1      40.300 -12.978  -1.625  1.00  0.00     0.033 A 
HETATM   21  C   UNL     1      40.783 -12.054  -0.706  1.00  0.00     0.033 A 
HETATM   22  N   UNL     1      40.731 -12.257   0.632  1.00  0.00    -0.236 NA
HETATM   23  C   UNL     1      41.384 -10.765  -1.182  1.00  0.00     0.070 C 
ENDBRANCH   1  16
TORSDOF 4
ENDMDL
MODEL 3
REMARK VINA RESULT:      -7.2      2.920      5.514
REMARK  4 active torsions:
REMARK  status: ('A' for Active; 'I' for Inactive)
REMARK    1  A    between atoms: C_4  and  N_5 
REMARK       I    between atoms: N_5  and  C_6 
REMARK    2  A    between atoms: C_6  and  C_7 
REMARK    3  A    between atoms: C_7  and  O_8 
REMARK    4  A    between atoms: O_8  and  C_9 
ROOT
HETATM    1  N   UNL     1      43.418 -16.912   6.528  1.00  0.00    -0.309 N 
HETATM    2  C   UNL     1      42.465 -15.997   6.866  1.00  0.00     0.252 C 
HETATM    3  O   UNL     1      42.658 -15.376   7.920  1.00  0.00    -0.270 OA
HETATM    4  H   UNL     1      44.136 -16.988   7.236  1.00  0.00     0.170 HD
ENDROOT
BRANCH   2   5
HETATM    5  C   UNL     1      41.199 -15.771   6.009  1.00  0.00     0.217 C 
HETATM    6  C   UNL     1      40.006 -15.552   6.940  1.00  0.00     0.050 C 
BRANCH   5   7
HETATM    7  O   UNL     1      41.266 -14.584   5.205  1.00  0.00    -0.335 OA
BRANCH   7   8
HETATM    8  C   UNL     1      40.949 -14.658   3.876  1.00  0.00     0.091 A 
HETATM    9  C   UNL     1      41.310 -13.555   3.080  1.00  0.00     0.069 A 
HETATM   10 CL   UNL     1      42.125 -12.186   3.755  1.00  0.00    -0.081 Cl
HETATM   11  C   UNL     1      41.025 -13.533   1.712  1.00  0.00     0.050 A 
HETATM   12  C   UNL     1      40.366 -14.611   1.134  1.00  0.00     0.035 A 
HETATM   13 CL   UNL     1      40.006 -14.593  -0.548  1.00  0.00    -0.084 Cl
HETATM   14  C   UNL     1      39.989 -15.706   1.910  1.00  0.00     0.026 A 
HETATM   15  C   UNL     1      40.279 -15.729   3.279  1.00  0.00     0.040 A 
ENDBRANCH   7   8
ENDBRANCH   5   7
ENDBRANCH   2   5
BRANCH   1  16
HETATM   16  C   UNL     1      43.555 -17.700   5.387  1.00  0.00     0.130 A 
HETATM   17  C   UNL     1      43.422 -17.063   4.155  1.00  0.00     0.057 A 
HETATM   18  C   UNL     1      43.560 -17.805   2.980  1.00  0.00    -0.057 A 
HETATM   19  C   UNL     1      43.453 -17.157   1.633  1.00  0.00     0.048 C 
HETATM   20  C   UNL     1      43.818 -19.170   3.085  1.00  0.00     0.033 A 
HETATM   21  C   UNL     1      43.925 -19.738   4.349  1.00  0.00     0.033 A 
HETATM   22  N   UNL     1      43.796 -19.017   5.489  1.00  0.00    -0.236 NA
HETATM   23  C   UNL     1      44.203 -21.205   4.493  1.00  0.00     0.070 C 
ENDBRANCH   1  16
TORSDOF 4
ENDMDL
MODEL 4
REMARK VINA RESULT:      -7.2      1.252      2.154
REMARK  4 active torsions:
REMARK  status: ('A' for Active; 'I' for Inactive)
REMARK    1  A    between atoms: C_4  and  N_5 
REMARK       I    between atoms: N_5  and  C_6 
REMARK    2  A    between atoms: C_6  and  C_7 
REMARK    3  A    between atoms: C_7  and  O_8 
REMARK    4  A    between atoms: O_8  and  C_9 
ROOT
HETATM    1  N   UNL     1      39.810 -13.748   4.447  1.00  0.00    -0.309 N 
HETATM    2  C   UNL     1      40.604 -14.254   5.434  1.00  0.00     0.252 C 
HETATM    3  O   UNL     1      40.031 -14.562   6.488  1.00  0.00    -0.270 OA
HETATM    4  H   UNL     1      38.851 -13.647   4.750  1.00  0.00     0.170 HD
ENDROOT
BRANCH   2   5
HETATM    5  C   UNL     1      42.133 -14.402   5.266  1.00  0.00     0.217 C 
HETATM    6  C   UNL     1      42.829 -13.366   6.150  1.00  0.00     0.050 C 
BRANCH   5   7
HETATM    7  O   UNL     1      42.630 -15.670   5.717  1.00  0.00    -0.335 OA
BRANCH   7   8
HETATM    8  C   UNL     1      42.923 -16.640   4.796  1.00  0.00     0.091 A 
HETATM    9  C   UNL     1      43.379 -17.871   5.301  1.00  0.00     0.069 A 
HETATM   10 CL   UNL     1      43.544 -18.140   7.003  1.00  0.00    -0.081 Cl
HETATM   11  C   UNL     1      43.707 -18.923   4.442  1.00  0.00     0.050 A 
HETATM   12  C   UNL     1      43.593 -18.743   3.068  1.00  0.00     0.035 A 
HETATM   13 CL   UNL     1      44.000 -20.029   2.000  1.00  0.00    -0.084 Cl
HETATM   14  C   UNL     1      43.157 -17.526   2.550  1.00  0.00     0.026 A 
HETATM   15  C   UNL     1      42.823 -16.475   3.411  1.00  0.00     0.040 A 
ENDBRANCH   7   8
ENDBRANCH   5   7
ENDBRANCH   2   5
BRANCH   1  16
HETATM   16  C   UNL     1      40.110 -13.395   3.133  1.00  0.00     0.130 A 
HETATM   17  C   UNL     1      40.653 -12.130   2.922  1.00  0.00     0.057 A 
HETATM   18  C   UNL     1      40.981 -11.731   1.625  1.00  0.00    -0.057 A 
HETATM   19  C   UNL     1      41.595 -10.390   1.354  1.00  0.00     0.048 C 
HETATM   20  C   UNL     1      40.740 -12.618   0.578  1.00  0.00     0.033 A 
HETATM   21  C   UNL     1      40.183 -13.859   0.864  1.00  0.00     0.033 A 
HETATM   22  N   UNL     1      39.870 -14.248   2.123  1.00  0.00    -0.236 NA
HETATM   23  C   UNL     1      39.913 -14.835  -0.243  1.00  0.00     0.070 C 
ENDBRANCH   1  16
TORSDOF 4
ENDMDL
MODEL 5
REMARK VINA RESULT:      -7.1      3.724      6.350
REMARK  4 active torsions:
REMARK  status: ('A' for Active; 'I' for Inactive)
REMARK    1  A    between atoms: C_4  and  N_5 
REMARK       I    between atoms: N_5  and  C_6 
REMARK    2  A    between atoms: C_6  and  C_7 
REMARK    3  A    between atoms: C_7  and  O_8 
REMARK    4  A    between atoms: O_8  and  C_9 
ROOT
HETATM    1  N   UNL     1      40.976 -15.988   2.793  1.00  0.00    -0.309 N 
HETATM    2  C   UNL     1      40.766 -14.645   2.893  1.00  0.00     0.252 C 
HETATM    3  O   UNL     1      39.661 -14.237   2.509  1.00  0.00    -0.270 OA
HETATM    4  H   UNL     1      40.194 -16.460   2.358  1.00  0.00     0.170 HD
ENDROOT
BRANCH   2   5
HETATM    5  C   UNL     1      41.851 -13.678   3.419  1.00  0.00     0.217 C 
HETATM    6  C   UNL     1      42.127 -12.619   2.351  1.00  0.00     0.050 C 
BRANCH   5   7
HETATM    7  O   UNL     1      41.437 -12.940   4.577  1.00  0.00    -0.335 OA
BRANCH   7   8
HETATM    8  C   UNL     1      42.384 -12.483   5.454  1.00  0.00     0.091 A 
HETATM    9  C   UNL     1      42.257 -11.149   5.880  1.00  0.00     0.069 A 
HETATM   10 CL   UNL     1      40.957 -10.148   5.328  1.00  0.00    -0.081 Cl
HETATM   11  C   UNL     1      43.176 -10.588   6.770  1.00  0.00     0.050 A 
HETATM   12  C   UNL     1      44.237 -11.358   7.231  1.00  0.00     0.035 A 
HETATM   13 CL   UNL     1      45.378 -10.677   8.324  1.00  0.00    -0.084 Cl
HETATM   14  C   UNL     1      44.387 -12.678   6.809  1.00  0.00     0.026 A 
HETATM   15  C   UNL     1      43.463 -13.240   5.921  1.00  0.00     0.040 A 
ENDBRANCH   7   8
ENDBRANCH   5   7
ENDBRANCH   2   5
BRANCH   1  16
HETATM   16  C   UNL     1      42.048 -16.773   3.212  1.00  0.00     0.130 A 
HETATM   17  C   UNL     1      42.349 -17.898   2.448  1.00  0.00     0.057 A 
HETATM   18  C   UNL     1      43.421 -18.713   2.819  1.00  0.00    -0.057 A 
HETATM   19  C   UNL     1      43.800 -19.918   2.012  1.00  0.00     0.048 C 
HETATM   20  C   UNL     1      44.150 -18.371   3.957  1.00  0.00     0.033 A 
HETATM   21  C   UNL     1      43.782 -17.241   4.676  1.00  0.00     0.033 A 
HETATM   22  N   UNL     1      42.745 -16.448   4.313  1.00  0.00    -0.236 NA
HETATM   23  C   UNL     1      44.548 -16.848   5.905  1.00  0.00     0.070 C 
ENDBRANCH   1  16
TORSDOF 4
ENDMDL
MODEL 6
REMARK VINA RESULT:      -7.0      2.713      4.738
REMARK  4 active torsions:
REMARK  status: ('A' for Active; 'I' for Inactive)
REMARK    1  A    between atoms: C_4  and  N_5 
REMARK       I    between atoms: N_5  and  C_6 
REMARK    2  A    between atoms: C_6  and  C_7 
REMARK    3  A    between atoms: C_7  and  O_8 
REMARK    4  A    between atoms: O_8  and  C_9 
ROOT
HETATM    1  N   UNL     1      42.362 -14.337   6.969  1.00  0.00    -0.309 N 
HETATM    2  C   UNL     1      42.162 -15.644   6.636  1.00  0.00     0.252 C 
HETATM    3  O   UNL     1      41.423 -16.290   7.391  1.00  0.00    -0.270 OA
HETATM    4  H   UNL     1      41.906 -14.095   7.838  1.00  0.00     0.170 HD
ENDROOT
BRANCH   2   5
HETATM    5  C   UNL     1      42.844 -16.297   5.412  1.00  0.00     0.217 C 
HETATM    6  C   UNL     1      43.671 -17.492   5.888  1.00  0.00     0.050 C 
BRANCH   5   7
HETATM    7  O   UNL     1      41.910 -16.842   4.470  1.00  0.00    -0.335 OA
BRANCH   7   8
HETATM    8  C   UNL     1      41.435 -16.047   3.462  1.00  0.00     0.091 A 
HETATM    9  C   UNL     1      42.111 -16.118   2.231  1.00  0.00     0.069 A 
HETATM   10 CL   UNL     1      43.467 -17.171   2.008  1.00  0.00    -0.081 Cl
HETATM   11  C   UNL     1      41.705 -15.343   1.142  1.00  0.00     0.050 A 
HETATM   12  C   UNL     1      40.624 -14.481   1.283  1.00  0.00     0.035 A 
HETATM   13 CL   UNL     1      40.118 -13.517  -0.049  1.00  0.00    -0.084 Cl
HETATM   14  C   UNL     1      39.951 -14.387   2.500  1.00  0.00     0.026 A 
HETATM   15  C   UNL     1      40.355 -15.168   3.588  1.00  0.00     0.040 A 
ENDBRANCH   7   8
ENDBRANCH   5   7
ENDBRANCH   2   5
BRANCH   1  16
HETATM   16  C   UNL     1      43.047 -13.325   6.299  1.00  0.00     0.130 A 
HETATM   17  C   UNL     1      44.097 -12.711   6.978  1.00  0.00     0.057 A 
HETATM   18  C   UNL     1      44.823 -11.697   6.348  1.00  0.00    -0.057 A 
HETATM   19  C   UNL     1      45.978 -11.028   7.029  1.00  0.00     0.048 C 
HETATM   20  C   UNL     1      44.459 -11.329   5.054  1.00  0.00     0.033 A 
HETATM   21  C   UNL     1      43.392 -11.978   4.445  1.00  0.00     0.033 A 
HETATM   22  N   UNL     1      42.692 -12.965   5.055  1.00  0.00    -0.236 NA
HETATM   23  C   UNL     1      42.979 -11.603   3.053  1.00  0.00     0.070 C 
ENDBRANCH   1  16
TORSDOF 4
ENDMDL
MODEL 7
REMARK VINA RESULT:      -7.0      3.734      6.148
REMARK  4 active torsions:
REMARK  status: ('A' for Active; 'I' for Inactive)
REMARK    1  A    between atoms: C_4  and  N_5 
REMARK       I    between atoms: N_5  and  C_6 
REMARK    2  A    between atoms: C_6  and  C_7 
REMARK    3  A    between atoms: C_7  and  O_8 
REMARK    4  A    between atoms: O_8  and  C_9 
ROOT
HETATM    1  N   UNL     1      40.000 -14.515   3.472  1.00  0.00    -0.309 N 
HETATM    2  C   UNL     1      39.827 -13.339   2.804  1.00  0.00     0.252 C 
HETATM    3  O   UNL     1      38.663 -12.922   2.732  1.00  0.00    -0.270 OA
HETATM    4  H   UNL     1      39.120 -14.911   3.773  1.00  0.00     0.170 HD
ENDROOT
BRANCH   2   5
HETATM    5  C   UNL     1      41.003 -12.586   2.143  1.00  0.00     0.217 C 
HETATM    6  C   UNL     1      40.587 -12.164   0.733  1.00  0.00     0.050 C 
BRANCH   5   7
HETATM    7  O   UNL     1      41.339 -11.363   2.813  1.00  0.00    -0.335 OA
BRANCH   7   8
HETATM    8  C   UNL     1      42.216 -11.394   3.864  1.00  0.00     0.091 A 
HETATM    9  C   UNL     1      41.680 -11.140   5.139  1.00  0.00     0.069 A 
HETATM   10 CL   UNL     1      39.994 -10.817   5.359  1.00  0.00    -0.081 Cl
HETATM   11  C   UNL     1      42.494 -11.145   6.275  1.00  0.00     0.050 A 
HETATM   12  C   UNL     1      43.855 -11.394   6.138  1.00  0.00     0.035 A 
HETATM   13 CL   UNL     1      44.868 -11.398   7.528  1.00  0.00    -0.084 Cl
HETATM   14  C   UNL     1      44.405 -11.634   4.880  1.00  0.00     0.026 A 
HETATM   15  C   UNL     1      43.588 -11.634   3.744  1.00  0.00     0.040 A 
ENDBRANCH   7   8
ENDBRANCH   5   7
ENDBRANCH   2   5
BRANCH   1  16
HETATM   16  C   UNL     1      41.164 -15.202   3.812  1.00  0.00     0.130 A 
HETATM   17  C   UNL     1      41.524 -16.279   3.005  1.00  0.00     0.057 A 
HETATM   18  C   UNL     1      42.687 -16.996   3.295  1.00  0.00    -0.057 A 
HETATM   19  C   UNL     1      43.129 -18.143   2.438  1.00  0.00     0.048 C 
HETATM   20  C   UNL     1      43.445 -16.609   4.399  1.00  0.00     0.033 A 
HETATM   21  C   UNL     1      43.015 -15.532   5.165  1.00  0.00     0.033 A 
HETATM   22  N   UNL     1      41.890 -14.834   4.880  1.00  0.00    -0.236 NA
HETATM   23  C   UNL     1      43.811 -15.093   6.358  1.00  0.00     0.070 C 
ENDBRANCH   1  16
TORSDOF 4
ENDMDL
MODEL 8
REMARK VINA RESULT:      -7.0      3.703      6.050
REMARK  4 active torsions:
REMARK  status: ('A' for Active; 'I' for Inactive)
REMARK    1  A    between atoms: C_4  and  N_5 
REMARK       I    between atoms: N_5  and  C_6 
REMARK    2  A    between atoms: C_6  and  C_7 
REMARK    3  A    between atoms: C_7  and  O_8 
REMARK    4  A    between atoms: O_8  and  C_9 
ROOT
HETATM    1  N   UNL     1      42.696 -13.196   4.235  1.00  0.00    -0.309 N 
HETATM    2  C   UNL     1      41.507 -12.532   4.169  1.00  0.00     0.252 C 
HETATM    3  O   UNL     1      41.573 -11.327   3.889  1.00  0.00    -0.270 OA
HETATM    4  H   UNL     1      43.482 -12.576   4.094  1.00  0.00     0.170 HD
ENDROOT
BRANCH   2   5
HETATM    5  C   UNL     1      40.158 -13.226   4.461  1.00  0.00     0.217 C 
HETATM    6  C   UNL     1      39.569 -12.638   5.744  1.00  0.00     0.050 C 
BRANCH   5   7
HETATM    7  O   UNL     1      39.168 -12.984   3.453  1.00  0.00    -0.335 OA
BRANCH   7   8
HETATM    8  C   UNL     1      39.433 -13.335   2.156  1.00  0.00     0.091 A 
HETATM    9  C   UNL     1      39.251 -12.336   1.183  1.00  0.00     0.069 A 
HETATM   10 CL   UNL     1      38.730 -10.743   1.615  1.00  0.00    -0.081 Cl
HETATM   11  C   UNL     1      39.491 -12.598  -0.169  1.00  0.00     0.050 A 
HETATM   12  C   UNL     1      39.905 -13.867  -0.555  1.00  0.00     0.035 A 
HETATM   13 CL   UNL     1      40.199 -14.202  -2.217  1.00  0.00    -0.084 Cl
HETATM   14  C   UNL     1      40.077 -14.872   0.394  1.00  0.00     0.026 A 
HETATM   15  C   UNL     1      39.841 -14.608   1.747  1.00  0.00     0.040 A 
ENDBRANCH   7   8
ENDBRANCH   5   7
ENDBRANCH   2   5
BRANCH   1  16
HETATM   16  C   UNL     1      42.970 -14.548   4.431  1.00  0.00     0.130 A 
HETATM   17  C   UNL     1      42.922 -15.375   3.311  1.00  0.00     0.057 A 
HETATM   18  C   UNL     1      43.198 -16.737   3.451  1.00  0.00    -0.057 A 
HETATM   19  C   UNL     1      43.185 -17.660   2.269  1.00  0.00     0.048 C 
HETATM   20  C   UNL     1      43.505 -17.224   4.720  1.00  0.00     0.033 A 
HETATM   21  C   UNL     1      43.521 -16.340   5.792  1.00  0.00     0.033 A 
HETATM   22  N   UNL     1      43.258 -15.018   5.656  1.00  0.00    -0.236 NA
HETATM   23  C   UNL     1      43.849 -16.836   7.170  1.00  0.00     0.070 C 
ENDBRANCH   1  16
TORSDOF 4
ENDMDL
MODEL 9
REMARK VINA RESULT:      -6.9      8.811     11.492
REMARK  4 active torsions:
REMARK  status: ('A' for Active; 'I' for Inactive)
REMARK    1  A    between atoms: C_4  and  N_5 
REMARK       I    between atoms: N_5  and  C_6 
REMARK    2  A    between atoms: C_6  and  C_7 
REMARK    3  A    between atoms: C_7  and  O_8 
REMARK    4  A    between atoms: O_8  and  C_9 
ROOT
HETATM    1  N   UNL     1      43.287 -10.530  10.274  1.00  0.00    -0.309 N 
HETATM    2  C   UNL     1      44.215 -10.343   9.292  1.00  0.00     0.252 C 
HETATM    3  O   UNL     1      44.604 -11.365   8.710  1.00  0.00    -0.270 OA
HETATM    4  H   UNL     1      43.088 -11.510  10.422  1.00  0.00     0.170 HD
ENDROOT
BRANCH   2   5
HETATM    5  C   UNL     1      44.778  -8.947   8.945  1.00  0.00     0.217 C 
HETATM    6  C   UNL     1      46.120  -9.119   8.234  1.00  0.00     0.050 C 
BRANCH   5   7
HETATM    7  O   UNL     1      43.957  -8.220   8.020  1.00  0.00    -0.335 OA
BRANCH   7   8
HETATM    8  C   UNL     1      43.056  -7.307   8.498  1.00  0.00     0.091 A 
HETATM    9  C   UNL     1      41.780  -7.312   7.906  1.00  0.00     0.069 A 
HETATM   10 CL   UNL     1      41.376  -8.429   6.648  1.00  0.00    -0.081 Cl
HETATM   11  C   UNL     1      40.792  -6.415   8.321  1.00  0.00     0.050 A 
HETATM   12  C   UNL     1      41.081  -5.498   9.326  1.00  0.00     0.035 A 
HETATM   13 CL   UNL     1      39.875  -4.386   9.842  1.00  0.00    -0.084 Cl
HETATM   14  C   UNL     1      42.344  -5.470   9.913  1.00  0.00     0.026 A 
HETATM   15  C   UNL     1      43.331  -6.372   9.500  1.00  0.00     0.040 A 
ENDBRANCH   7   8
ENDBRANCH   5   7
ENDBRANCH   2   5
BRANCH   1  16
HETATM   16  C   UNL     1      42.585  -9.607  11.046  1.00  0.00     0.130 A 
HETATM   17  C   UNL     1      43.280  -8.982  12.079  1.00  0.00     0.057 A 
HETATM   18  C   UNL     1      42.626  -8.041  12.877  1.00  0.00    -0.057 A 
HETATM   19  C   UNL     1      43.341  -7.323  13.981  1.00  0.00     0.048 C 
HETATM   20  C   UNL     1      41.284  -7.768  12.613  1.00  0.00     0.033 A 
HETATM   21  C   UNL     1      40.654  -8.441  11.574  1.00  0.00     0.033 A 
HETATM   22  N   UNL     1      41.291  -9.350  10.797  1.00  0.00    -0.236 NA
HETATM   23  C   UNL     1      39.211  -8.167  11.267  1.00  0.00     0.070 C 
ENDBRANCH   1  16
TORSDOF 4
ENDMDL
MODEL 10
REMARK VINA RESULT:      -6.9      2.424      3.402
REMARK  4 active torsions:
REMARK  status: ('A' for Active; 'I' for Inactive)
REMARK    1  A    between atoms: C_4  and  N_5 
REMARK       I    between atoms: N_5  and  C_6 
REMARK    2  A    between atoms: C_6  and  C_7 
REMARK    3  A    between atoms: C_7  and  O_8 
REMARK    4  A    between atoms: O_8  and  C_9 
ROOT
HETATM    1  N   UNL     1      41.747 -14.223   6.729  1.00  0.00    -0.309 N 
HETATM    2  C   UNL     1      41.939 -15.566   6.865  1.00  0.00     0.252 C 
HETATM    3  O   UNL     1      40.954 -16.221   7.234  1.00  0.00    -0.270 OA
HETATM    4  H   UNL     1      40.816 -13.945   7.008  1.00  0.00     0.170 HD
ENDROOT
BRANCH   2   5
HETATM    5  C   UNL     1      43.310 -16.233   6.612  1.00  0.00     0.217 C 
HETATM    6  C   UNL     1      43.165 -17.744   6.797  1.00  0.00     0.050 C 
BRANCH   5   7
HETATM    7  O   UNL     1      43.780 -16.066   5.267  1.00  0.00    -0.335 OA
BRANCH   7   8
HETATM    8  C   UNL     1      43.746 -17.132   4.409  1.00  0.00     0.091 A 
HETATM    9  C   UNL     1      42.788 -17.082   3.381  1.00  0.00     0.069 A 
HETATM   10 CL   UNL     1      41.720 -15.731   3.210  1.00  0.00    -0.081 Cl
HETATM   11  C   UNL     1      42.671 -18.124   2.457  1.00  0.00     0.050 A 
HETATM   12  C   UNL     1      43.507 -19.229   2.565  1.00  0.00     0.035 A 
HETATM   13 CL   UNL     1      43.369 -20.520   1.436  1.00  0.00    -0.084 Cl
HETATM   14  C   UNL     1      44.452 -19.302   3.586  1.00  0.00     0.026 A 
HETATM   15  C   UNL     1      44.571 -18.256   4.508  1.00  0.00     0.040 A 
ENDBRANCH   7   8
ENDBRANCH   5   7
ENDBRANCH   2   5
BRANCH   1  16
HETATM   16  C   UNL     1      42.600 -13.229   6.253  1.00  0.00     0.130 A 
HETATM   17  C   UNL     1      42.374 -12.762   4.960  1.00  0.00     0.057 A 
HETATM   18  C   UNL     1      43.194 -11.759   4.440  1.00  0.00    -0.057 A 
HETATM   19  C   UNL     1      42.971 -11.206   3.064  1.00  0.00     0.048 C 
HETATM   20  C   UNL     1      44.225 -11.265   5.238  1.00  0.00     0.033 A 
HETATM   21  C   UNL     1      44.397 -11.789   6.513  1.00  0.00     0.033 A 
HETATM   22  N   UNL     1      43.598 -12.759   7.019  1.00  0.00    -0.236 NA
HETATM   23  C   UNL     1      45.497 -11.277   7.394  1.00  0.00     0.070 C 
ENDBRANCH   1  16
TORSDOF 4
ENDMDL
