MODEL 1
REMARK VINA RESULT:      -9.1      0.000      0.000
REMARK  3 active torsions:
REMARK  status: ('A' for Active; 'I' for Inactive)
REMARK    1  A    between atoms: C_8  and  C_9 
REMARK    2  A    between atoms: C_14  and  C_15 
REMARK    3  A    between atoms: C_17  and  O_18 
ROOT
HETATM    1  C   UNL     1      40.274 -13.655   0.014  1.00  0.00     0.143 A 
HETATM    2  N   UNL     1      41.220 -13.061   0.704  1.00  0.00    -0.223 NA
HETATM    3  C   UNL     1      41.362 -13.759   1.894  1.00  0.00     0.149 A 
HETATM    4  C   UNL     1      40.479 -14.830   1.904  1.00  0.00     0.046 A 
HETATM    5  C   UNL     1      40.136 -15.911   2.872  1.00  0.00     0.070 C 
HETATM    6  C   UNL     1      40.842 -15.884   4.240  1.00  0.00     0.042 C 
HETATM    7  C   UNL     1      41.058 -14.462   4.779  1.00  0.00     0.132 C 
HETATM    8  N   UNL     1      42.184 -13.766   4.198  1.00  0.00    -0.355 N 
HETATM    9  C   UNL     1      42.339 -13.339   2.905  1.00  0.00     0.272 C 
HETATM   10  O   UNL     1      43.298 -12.613   2.646  1.00  0.00    -0.266 OA
HETATM   11  N   UNL     1      39.823 -14.750   0.694  1.00  0.00    -0.341 N 
HETATM   12  H   UNL     1      39.104 -15.378   0.369  1.00  0.00     0.167 HD
HETATM   13  H   UNL     1      42.914 -13.421   4.808  1.00  0.00     0.162 HD
ENDROOT
BRANCH   1  14
HETATM   14  C   UNL     1      39.774 -13.173  -1.302  1.00  0.00     0.059 A 
HETATM   15  C   UNL     1      39.157 -13.905  -2.300  1.00  0.00     0.040 A 
HETATM   16  C   UNL     1      38.790 -15.330  -2.453  1.00  0.00     0.071 C 
HETATM   17  N   UNL     1      38.885 -12.996  -3.288  1.00  0.00    -0.281 N 
HETATM   18  H   UNL     1      38.434 -13.161  -4.183  1.00  0.00     0.189 HD
HETATM   19  N   UNL     1      39.272 -11.746  -3.009  1.00  0.00    -0.179 NA
HETATM   20  C   UNL     1      39.822 -11.841  -1.790  1.00  0.00     0.067 A 
HETATM   21  C   UNL     1      40.374 -10.634  -1.125  1.00  0.00     0.073 C 
ENDBRANCH   1  14
BRANCH   6  22
HETATM   22  C   UNL     1      42.092 -16.749   4.368  1.00  0.00    -0.049 A 
HETATM   23  C   UNL     1      42.524 -17.488   3.246  1.00  0.00     0.044 A 
HETATM   24  C   UNL     1      43.651 -18.310   3.310  1.00  0.00     0.068 A 
HETATM   25  C   UNL     1      44.358 -18.399   4.508  1.00  0.00     0.037 A 
HETATM   26  C   UNL     1      43.942 -17.684   5.631  1.00  0.00     0.003 A 
HETATM   27  C   UNL     1      42.814 -16.866   5.563  1.00  0.00     0.007 A 
BRANCH  24  28
HETATM   28  O   UNL     1      44.156 -19.067   2.289  1.00  0.00    -0.356 OA
HETATM   29  C   UNL     1      43.403 -20.207   1.896  1.00  0.00     0.210 C 
ENDBRANCH  24  28
ENDBRANCH   6  22
TORSDOF 3
ENDMDL
MODEL 2
REMARK VINA RESULT:      -8.9      3.928      5.073
REMARK  3 active torsions:
REMARK  status: ('A' for Active; 'I' for Inactive)
REMARK    1  A    between atoms: C_8  and  C_9 
REMARK    2  A    between atoms: C_14  and  C_15 
REMARK    3  A    between atoms: C_17  and  O_18 
ROOT
HETATM    1  C   UNL     1      40.145 -12.161   5.549  1.00  0.00     0.143 A 
HETATM    2  N   UNL     1      41.440 -12.080   5.754  1.00  0.00    -0.223 NA
HETATM    3  C   UNL     1      41.890 -13.358   6.051  1.00  0.00     0.149 A 
HETATM    4  C   UNL     1      40.822 -14.243   5.998  1.00  0.00     0.046 A 
HETATM    5  C   UNL     1      40.646 -15.705   6.232  1.00  0.00     0.070 C 
HETATM    6  C   UNL     1      41.879 -16.498   6.701  1.00  0.00     0.042 C 
HETATM    7  C   UNL     1      42.775 -15.707   7.666  1.00  0.00     0.132 C 
HETATM    8  N   UNL     1      43.649 -14.752   7.024  1.00  0.00    -0.355 N 
HETATM    9  C   UNL     1      43.304 -13.610   6.348  1.00  0.00     0.272 C 
HETATM   10  O   UNL     1      44.204 -12.838   6.020  1.00  0.00    -0.266 OA
HETATM   11  N   UNL     1      39.740 -13.461   5.656  1.00  0.00    -0.341 N 
HETATM   12  H   UNL     1      38.793 -13.784   5.533  1.00  0.00     0.167 HD
HETATM   13  H   UNL     1      44.648 -14.826   7.171  1.00  0.00     0.162 HD
ENDROOT
BRANCH   1  14
HETATM   14  C   UNL     1      39.271 -10.991   5.263  1.00  0.00     0.059 A 
HETATM   15  C   UNL     1      38.691 -10.635   4.060  1.00  0.00     0.040 A 
HETATM   16  C   UNL     1      38.711 -11.211   2.697  1.00  0.00     0.071 C 
HETATM   17  N   UNL     1      37.979  -9.496   4.335  1.00  0.00    -0.281 N 
HETATM   18  H   UNL     1      37.418  -8.940   3.697  1.00  0.00     0.189 HD
HETATM   19  N   UNL     1      38.052  -9.095   5.608  1.00  0.00    -0.179 NA
HETATM   20  C   UNL     1      38.845 -10.005   6.191  1.00  0.00     0.067 A 
HETATM   21  C   UNL     1      39.165  -9.900   7.637  1.00  0.00     0.073 C 
ENDBRANCH   1  14
BRANCH   6  22
HETATM   22  C   UNL     1      42.681 -17.201   5.609  1.00  0.00    -0.049 A 
HETATM   23  C   UNL     1      42.548 -16.756   4.277  1.00  0.00     0.044 A 
HETATM   24  C   UNL     1      43.244 -17.373   3.235  1.00  0.00     0.068 A 
HETATM   25  C   UNL     1      44.083 -18.448   3.522  1.00  0.00     0.037 A 
HETATM   26  C   UNL     1      44.221 -18.908   4.831  1.00  0.00     0.003 A 
HETATM   27  C   UNL     1      43.522 -18.291   5.869  1.00  0.00     0.007 A 
BRANCH  24  28
HETATM   28  O   UNL     1      43.190 -17.025   1.913  1.00  0.00    -0.356 OA
HETATM   29  C   UNL     1      43.381 -15.651   1.599  1.00  0.00     0.210 C 
ENDBRANCH  24  28
ENDBRANCH   6  22
TORSDOF 3
ENDMDL
MODEL 3
REMARK VINA RESULT:      -8.6      3.755      6.555
REMARK  3 active torsions:
REMARK  status: ('A' for Active; 'I' for Inactive)
REMARK    1  A    between atoms: C_8  and  C_9 
REMARK    2  A    between atoms: C_14  and  C_15 
REMARK    3  A    between atoms: C_17  and  O_18 
ROOT
HETATM    1  C   UNL     1      42.537 -11.172   6.147  1.00  0.00     0.143 A 
HETATM    2  N   UNL     1      41.568 -12.015   6.419  1.00  0.00    -0.223 NA
HETATM    3  C   UNL     1      41.582 -12.990   5.432  1.00  0.00     0.149 A 
HETATM    4  C   UNL     1      42.618 -12.729   4.546  1.00  0.00     0.046 A 
HETATM    5  C   UNL     1      43.132 -13.368   3.301  1.00  0.00     0.070 C 
HETATM    6  C   UNL     1      42.359 -14.584   2.760  1.00  0.00     0.042 C 
HETATM    7  C   UNL     1      40.839 -14.463   2.945  1.00  0.00     0.132 C 
HETATM    8  N   UNL     1      40.371 -14.774   4.277  1.00  0.00    -0.355 N 
HETATM    9  C   UNL     1      40.605 -14.084   5.438  1.00  0.00     0.272 C 
HETATM   10  O   UNL     1      39.978 -14.415   6.444  1.00  0.00    -0.266 OA
HETATM   11  N   UNL     1      43.217 -11.589   5.038  1.00  0.00    -0.341 N 
HETATM   12  H   UNL     1      44.009 -11.115   4.632  1.00  0.00     0.167 HD
HETATM   13  H   UNL     1      39.684 -15.508   4.396  1.00  0.00     0.162 HD
ENDROOT
BRANCH   1  14
HETATM   14  C   UNL     1      42.818  -9.942   6.936  1.00  0.00     0.059 A 
HETATM   15  C   UNL     1      42.079  -8.775   6.990  1.00  0.00     0.040 A 
HETATM   16  C   UNL     1      40.833  -8.316   6.337  1.00  0.00     0.071 C 
HETATM   17  N   UNL     1      42.755  -7.968   7.867  1.00  0.00    -0.281 N 
HETATM   18  H   UNL     1      42.516  -7.027   8.162  1.00  0.00     0.189 HD
HETATM   19  N   UNL     1      43.862  -8.517   8.380  1.00  0.00    -0.179 NA
HETATM   20  C   UNL     1      43.913  -9.732   7.815  1.00  0.00     0.067 A 
HETATM   21  C   UNL     1      45.022 -10.663   8.148  1.00  0.00     0.073 C 
ENDBRANCH   1  14
BRANCH   6  22
HETATM   22  C   UNL     1      42.887 -15.954   3.174  1.00  0.00    -0.049 A 
HETATM   23  C   UNL     1      42.688 -17.048   2.305  1.00  0.00     0.044 A 
HETATM   24  C   UNL     1      43.133 -18.329   2.640  1.00  0.00     0.068 A 
HETATM   25  C   UNL     1      43.787 -18.524   3.856  1.00  0.00     0.037 A 
HETATM   26  C   UNL     1      43.985 -17.457   4.732  1.00  0.00     0.003 A 
HETATM   27  C   UNL     1      43.536 -16.179   4.395  1.00  0.00     0.007 A 
BRANCH  24  28
HETATM   28  O   UNL     1      42.994 -19.456   1.877  1.00  0.00    -0.356 OA
HETATM   29  C   UNL     1      43.811 -20.569   2.215  1.00  0.00     0.210 C 
ENDBRANCH  24  28
ENDBRANCH   6  22
TORSDOF 3
ENDMDL
MODEL 4
REMARK VINA RESULT:      -8.4      3.873      6.899
REMARK  3 active torsions:
REMARK  status: ('A' for Active; 'I' for Inactive)
REMARK    1  A    between atoms: C_8  and  C_9 
REMARK    2  A    between atoms: C_14  and  C_15 
REMARK    3  A    between atoms: C_17  and  O_18 
ROOT
HETATM    1  C   UNL     1      42.758 -11.145   6.212  1.00  0.00     0.143 A 
HETATM    2  N   UNL     1      41.729 -11.930   6.435  1.00  0.00    -0.223 NA
HETATM    3  C   UNL     1      41.670 -12.837   5.387  1.00  0.00     0.149 A 
HETATM    4  C   UNL     1      42.722 -12.597   4.514  1.00  0.00     0.046 A 
HETATM    5  C   UNL     1      43.185 -13.190   3.227  1.00  0.00     0.070 C 
HETATM    6  C   UNL     1      42.324 -14.308   2.613  1.00  0.00     0.042 C 
HETATM    7  C   UNL     1      40.817 -14.088   2.814  1.00  0.00     0.132 C 
HETATM    8  N   UNL     1      40.329 -14.449   4.126  1.00  0.00    -0.355 N 
HETATM    9  C   UNL     1      40.615 -13.855   5.328  1.00  0.00     0.272 C 
HETATM   10  O   UNL     1      39.965 -14.202   6.314  1.00  0.00    -0.266 OA
HETATM   11  N   UNL     1      43.404 -11.539   5.075  1.00  0.00    -0.341 N 
HETATM   12  H   UNL     1      44.229 -11.100   4.695  1.00  0.00     0.167 HD
HETATM   13  H   UNL     1      39.589 -15.136   4.202  1.00  0.00     0.162 HD
ENDROOT
BRANCH   1  14
HETATM   14  C   UNL     1      43.131  -9.994   7.077  1.00  0.00     0.059 A 
HETATM   15  C   UNL     1      42.406  -8.843   7.324  1.00  0.00     0.040 A 
HETATM   16  C   UNL     1      41.097  -8.333   6.861  1.00  0.00     0.071 C 
HETATM   17  N   UNL     1      43.180  -8.116   8.191  1.00  0.00    -0.281 N 
HETATM   18  H   UNL     1      42.979  -7.209   8.599  1.00  0.00     0.189 HD
HETATM   19  N   UNL     1      44.335  -8.704   8.523  1.00  0.00    -0.179 NA
HETATM   20  C   UNL     1      44.318  -9.860   7.843  1.00  0.00     0.067 A 
HETATM   21  C   UNL     1      45.454 -10.810   7.961  1.00  0.00     0.073 C 
ENDBRANCH   1  14
BRANCH   6  22
HETATM   22  C   UNL     1      42.749 -15.738   2.934  1.00  0.00    -0.049 A 
HETATM   23  C   UNL     1      43.296 -16.013   4.205  1.00  0.00     0.044 A 
HETATM   24  C   UNL     1      43.719 -17.299   4.548  1.00  0.00     0.068 A 
HETATM   25  C   UNL     1      43.595 -18.326   3.613  1.00  0.00     0.037 A 
HETATM   26  C   UNL     1      43.065 -18.072   2.348  1.00  0.00     0.003 A 
HETATM   27  C   UNL     1      42.647 -16.785   2.009  1.00  0.00     0.007 A 
BRANCH  24  28
HETATM   28  O   UNL     1      44.261 -17.677   5.746  1.00  0.00    -0.356 OA
HETATM   29  C   UNL     1      43.558 -17.296   6.921  1.00  0.00     0.210 C 
ENDBRANCH  24  28
ENDBRANCH   6  22
TORSDOF 3
ENDMDL
MODEL 5
REMARK VINA RESULT:      -8.4      3.101      7.486
REMARK  3 active torsions:
REMARK  status: ('A' for Active; 'I' for Inactive)
REMARK    1  A    between atoms: C_8  and  C_9 
REMARK    2  A    between atoms: C_14  and  C_15 
REMARK    3  A    between atoms: C_17  and  O_18 
ROOT
HETATM    1  C   UNL     1      43.156 -17.816   3.849  1.00  0.00     0.143 A 
HETATM    2  N   UNL     1      42.314 -17.104   4.563  1.00  0.00    -0.223 NA
HETATM    3  C   UNL     1      42.240 -15.848   3.980  1.00  0.00     0.149 A 
HETATM    4  C   UNL     1      43.055 -15.817   2.856  1.00  0.00     0.046 A 
HETATM    5  C   UNL     1      43.419 -14.788   1.841  1.00  0.00     0.070 C 
HETATM    6  C   UNL     1      42.844 -13.373   2.032  1.00  0.00     0.042 C 
HETATM    7  C   UNL     1      42.763 -12.948   3.506  1.00  0.00     0.132 C 
HETATM    8  N   UNL     1      41.633 -13.491   4.225  1.00  0.00    -0.355 N 
HETATM    9  C   UNL     1      41.386 -14.800   4.549  1.00  0.00     0.272 C 
HETATM   10  O   UNL     1      40.453 -15.040   5.314  1.00  0.00    -0.266 OA
HETATM   11  N   UNL     1      43.600 -17.081   2.788  1.00  0.00    -0.341 N 
HETATM   12  H   UNL     1      44.248 -17.408   2.088  1.00  0.00     0.167 HD
HETATM   13  H   UNL     1      40.983 -12.855   4.670  1.00  0.00     0.162 HD
ENDROOT
BRANCH   1  14
HETATM   14  C   UNL     1      43.561 -19.209   4.182  1.00  0.00     0.059 A 
HETATM   15  C   UNL     1      43.822 -20.252   3.313  1.00  0.00     0.040 A 
HETATM   16  C   UNL     1      43.793 -20.396   1.841  1.00  0.00     0.071 C 
HETATM   17  N   UNL     1      44.165 -21.306   4.119  1.00  0.00    -0.281 N 
HETATM   18  H   UNL     1      44.423 -22.247   3.841  1.00  0.00     0.189 HD
HETATM   19  N   UNL     1      44.149 -21.027   5.427  1.00  0.00    -0.179 NA
HETATM   20  C   UNL     1      43.778 -19.740   5.480  1.00  0.00     0.067 A 
HETATM   21  C   UNL     1      43.650 -19.055   6.792  1.00  0.00     0.073 C 
ENDBRANCH   1  14
BRANCH   6  22
HETATM   22  C   UNL     1      41.561 -13.060   1.267  1.00  0.00    -0.049 A 
HETATM   23  C   UNL     1      41.008 -14.055   0.433  1.00  0.00     0.044 A 
HETATM   24  C   UNL     1      39.846 -13.818  -0.304  1.00  0.00     0.068 A 
HETATM   25  C   UNL     1      39.224 -12.574  -0.210  1.00  0.00     0.037 A 
HETATM   26  C   UNL     1      39.760 -11.575   0.602  1.00  0.00     0.003 A 
HETATM   27  C   UNL     1      40.923 -11.814   1.335  1.00  0.00     0.007 A 
BRANCH  24  28
HETATM   28  O   UNL     1      39.226 -14.707  -1.139  1.00  0.00    -0.356 OA
HETATM   29  C   UNL     1      39.251 -14.410  -2.529  1.00  0.00     0.210 C 
ENDBRANCH  24  28
ENDBRANCH   6  22
TORSDOF 3
ENDMDL
MODEL 6
REMARK VINA RESULT:      -8.2      9.395     12.478
REMARK  3 active torsions:
REMARK  status: ('A' for Active; 'I' for Inactive)
REMARK    1  A    between atoms: C_8  and  C_9 
REMARK    2  A    between atoms: C_14  and  C_15 
REMARK    3  A    between atoms: C_17  and  O_18 
ROOT
HETATM    1  C   UNL     1      43.728 -10.313   8.903  1.00  0.00     0.143 A 
HETATM    2  N   UNL     1      42.780  -9.406   8.848  1.00  0.00    -0.223 NA
HETATM    3  C   UNL     1      42.196  -9.343  10.104  1.00  0.00     0.149 A 
HETATM    4  C   UNL     1      42.839 -10.235  10.952  1.00  0.00     0.046 A 
HETATM    5  C   UNL     1      42.676 -10.646  12.376  1.00  0.00     0.070 C 
HETATM    6  C   UNL     1      41.507 -10.024  13.162  1.00  0.00     0.042 C 
HETATM    7  C   UNL     1      40.244  -9.828  12.309  1.00  0.00     0.132 C 
HETATM    8  N   UNL     1      40.273  -8.663  11.455  1.00  0.00    -0.355 N 
HETATM    9  C   UNL     1      41.084  -8.426  10.375  1.00  0.00     0.272 C 
HETATM   10  O   UNL     1      40.839  -7.446   9.672  1.00  0.00    -0.266 OA
HETATM   11  N   UNL     1      43.815 -10.814  10.171  1.00  0.00    -0.341 N 
HETATM   12  H   UNL     1      44.471 -11.519  10.471  1.00  0.00     0.167 HD
HETATM   13  H   UNL     1      39.543  -7.968  11.549  1.00  0.00     0.162 HD
ENDROOT
BRANCH   1  14
HETATM   14  C   UNL     1      44.555 -10.727   7.738  1.00  0.00     0.059 A 
HETATM   15  C   UNL     1      45.812 -10.275   7.381  1.00  0.00     0.040 A 
HETATM   16  C   UNL     1      46.748  -9.282   7.951  1.00  0.00     0.071 C 
HETATM   17  N   UNL     1      46.132 -10.978   6.248  1.00  0.00    -0.281 N 
HETATM   18  H   UNL     1      46.980 -10.917   5.694  1.00  0.00     0.189 HD
HETATM   19  N   UNL     1      45.190 -11.841   5.851  1.00  0.00    -0.179 NA
HETATM   20  C   UNL     1      44.214 -11.696   6.759  1.00  0.00     0.067 A 
HETATM   21  C   UNL     1      42.975 -12.509   6.657  1.00  0.00     0.073 C 
ENDBRANCH   1  14
BRANCH   6  22
HETATM   22  C   UNL     1      41.839  -8.792  13.998  1.00  0.00    -0.049 A 
HETATM   23  C   UNL     1      41.029  -8.490  15.113  1.00  0.00     0.044 A 
HETATM   24  C   UNL     1      41.275  -7.366  15.904  1.00  0.00     0.068 A 
HETATM   25  C   UNL     1      42.342  -6.530  15.581  1.00  0.00     0.037 A 
HETATM   26  C   UNL     1      43.150  -6.806  14.478  1.00  0.00     0.003 A 
HETATM   27  C   UNL     1      42.899  -7.929  13.689  1.00  0.00     0.007 A 
BRANCH  24  28
HETATM   28  O   UNL     1      40.556  -6.980  17.002  1.00  0.00    -0.356 OA
HETATM   29  C   UNL     1      39.528  -6.019  16.796  1.00  0.00     0.210 C 
ENDBRANCH  24  28
ENDBRANCH   6  22
TORSDOF 3
ENDMDL
MODEL 7
REMARK VINA RESULT:      -7.8     13.872     17.422
REMARK  3 active torsions:
REMARK  status: ('A' for Active; 'I' for Inactive)
REMARK    1  A    between atoms: C_8  and  C_9 
REMARK    2  A    between atoms: C_14  and  C_15 
REMARK    3  A    between atoms: C_17  and  O_18 
ROOT
HETATM    1  C   UNL     1      40.514  -6.997  18.274  1.00  0.00     0.143 A 
HETATM    2  N   UNL     1      39.580  -6.443  17.535  1.00  0.00    -0.223 NA
HETATM    3  C   UNL     1      39.940  -6.633  16.208  1.00  0.00     0.149 A 
HETATM    4  C   UNL     1      41.127  -7.350  16.155  1.00  0.00     0.046 A 
HETATM    5  C   UNL     1      42.019  -7.840  15.065  1.00  0.00     0.070 C 
HETATM    6  C   UNL     1      41.643  -7.463  13.621  1.00  0.00     0.042 C 
HETATM    7  C   UNL     1      41.053  -6.050  13.501  1.00  0.00     0.132 C 
HETATM    8  N   UNL     1      39.661  -5.949  13.876  1.00  0.00    -0.355 N 
HETATM    9  C   UNL     1      39.105  -6.116  15.118  1.00  0.00     0.272 C 
HETATM   10  O   UNL     1      37.920  -5.820  15.267  1.00  0.00    -0.266 OA
HETATM   11  N   UNL     1      41.451  -7.585  17.474  1.00  0.00    -0.341 N 
HETATM   12  H   UNL     1      42.264  -8.083  17.803  1.00  0.00     0.167 HD
HETATM   13  H   UNL     1      38.996  -5.591  13.202  1.00  0.00     0.162 HD
ENDROOT
BRANCH   1  14
HETATM   14  C   UNL     1      40.532  -6.957  19.761  1.00  0.00     0.059 A 
HETATM   15  C   UNL     1      40.353  -8.006  20.645  1.00  0.00     0.040 A 
HETATM   16  C   UNL     1      40.085  -9.452  20.484  1.00  0.00     0.071 C 
HETATM   17  N   UNL     1      40.476  -7.445  21.889  1.00  0.00    -0.281 N 
HETATM   18  H   UNL     1      40.406  -7.904  22.792  1.00  0.00     0.189 HD
HETATM   19  N   UNL     1      40.720  -6.130  21.879  1.00  0.00    -0.179 NA
HETATM   20  C   UNL     1      40.756  -5.816  20.575  1.00  0.00     0.067 A 
HETATM   21  C   UNL     1      41.014  -4.416  20.152  1.00  0.00     0.073 C 
ENDBRANCH   1  14
BRANCH   6  22
HETATM   22  C   UNL     1      40.834  -8.497  12.845  1.00  0.00    -0.049 A 
HETATM   23  C   UNL     1      40.364  -9.641  13.525  1.00  0.00     0.044 A 
HETATM   24  C   UNL     1      39.634 -10.629  12.861  1.00  0.00     0.068 A 
HETATM   25  C   UNL     1      39.367 -10.478  11.501  1.00  0.00     0.037 A 
HETATM   26  C   UNL     1      39.831  -9.359  10.809  1.00  0.00     0.003 A 
HETATM   27  C   UNL     1      40.562  -8.375  11.475  1.00  0.00     0.007 A 
BRANCH  24  28
HETATM   28  O   UNL     1      39.132 -11.772  13.420  1.00  0.00    -0.356 OA
HETATM   29  C   UNL     1      38.294 -12.578  12.601  1.00  0.00     0.210 C 
ENDBRANCH  24  28
ENDBRANCH   6  22
TORSDOF 3
ENDMDL
MODEL 8
REMARK VINA RESULT:      -7.7      3.093      7.538
REMARK  3 active torsions:
REMARK  status: ('A' for Active; 'I' for Inactive)
REMARK    1  A    between atoms: C_8  and  C_9 
REMARK    2  A    between atoms: C_14  and  C_15 
REMARK    3  A    between atoms: C_17  and  O_18 
ROOT
HETATM    1  C   UNL     1      42.408 -12.657   4.751  1.00  0.00     0.143 A 
HETATM    2  N   UNL     1      43.113 -13.433   3.961  1.00  0.00    -0.223 NA
HETATM    3  C   UNL     1      42.288 -13.812   2.913  1.00  0.00     0.149 A 
HETATM    4  C   UNL     1      41.043 -13.219   3.073  1.00  0.00     0.046 A 
HETATM    5  C   UNL     1      39.754 -13.246   2.326  1.00  0.00     0.070 C 
HETATM    6  C   UNL     1      39.669 -14.166   1.095  1.00  0.00     0.042 C 
HETATM    7  C   UNL     1      40.437 -15.485   1.274  1.00  0.00     0.132 C 
HETATM    8  N   UNL     1      41.865 -15.377   1.081  1.00  0.00    -0.355 N 
HETATM    9  C   UNL     1      42.774 -14.700   1.851  1.00  0.00     0.272 C 
HETATM   10  O   UNL     1      43.970 -14.871   1.619  1.00  0.00    -0.266 OA
HETATM   11  N   UNL     1      41.158 -12.478   4.230  1.00  0.00    -0.341 N 
HETATM   12  H   UNL     1      40.432 -11.917   4.647  1.00  0.00     0.167 HD
HETATM   13  H   UNL     1      42.310 -15.957   0.379  1.00  0.00     0.162 HD
ENDROOT
BRANCH   1  14
HETATM   14  C   UNL     1      42.914 -12.088   6.029  1.00  0.00     0.059 A 
HETATM   15  C   UNL     1      42.735 -10.809   6.523  1.00  0.00     0.040 A 
HETATM   16  C   UNL     1      42.045  -9.600   6.022  1.00  0.00     0.071 C 
HETATM   17  N   UNL     1      43.384 -10.802   7.730  1.00  0.00    -0.281 N 
HETATM   18  H   UNL     1      43.473 -10.034   8.388  1.00  0.00     0.189 HD
HETATM   19  N   UNL     1      43.960 -11.965   8.053  1.00  0.00    -0.179 NA
HETATM   20  C   UNL     1      43.679 -12.765   7.014  1.00  0.00     0.067 A 
HETATM   21  C   UNL     1      44.156 -14.172   7.006  1.00  0.00     0.073 C 
ENDBRANCH   1  14
BRANCH   6  22
HETATM   22  C   UNL     1      39.949 -13.511  -0.255  1.00  0.00    -0.049 A 
HETATM   23  C   UNL     1      39.362 -14.065  -1.412  1.00  0.00     0.044 A 
HETATM   24  C   UNL     1      39.597 -13.519  -2.676  1.00  0.00     0.068 A 
HETATM   25  C   UNL     1      40.429 -12.405  -2.789  1.00  0.00     0.037 A 
HETATM   26  C   UNL     1      41.025 -11.849  -1.658  1.00  0.00     0.003 A 
HETATM   27  C   UNL     1      40.790 -12.399  -0.398  1.00  0.00     0.007 A 
BRANCH  24  28
HETATM   28  O   UNL     1      39.082 -13.973  -3.859  1.00  0.00    -0.356 OA
HETATM   29  C   UNL     1      37.984 -14.873  -3.782  1.00  0.00     0.210 C 
ENDBRANCH  24  28
ENDBRANCH   6  22
TORSDOF 3
ENDMDL
MODEL 9
REMARK VINA RESULT:      -7.6     14.731     17.892
REMARK  3 active torsions:
REMARK  status: ('A' for Active; 'I' for Inactive)
REMARK    1  A    between atoms: C_8  and  C_9 
REMARK    2  A    between atoms: C_14  and  C_15 
REMARK    3  A    between atoms: C_17  and  O_18 
ROOT
HETATM    1  C   UNL     1      48.559 -30.061   1.184  1.00  0.00     0.143 A 
HETATM    2  N   UNL     1      47.286 -30.343   1.347  1.00  0.00    -0.223 NA
HETATM    3  C   UNL     1      46.610 -29.842   0.245  1.00  0.00     0.149 A 
HETATM    4  C   UNL     1      47.521 -29.256  -0.624  1.00  0.00     0.046 A 
HETATM    5  C   UNL     1      47.430 -28.543  -1.929  1.00  0.00     0.070 C 
HETATM    6  C   UNL     1      46.024 -28.302  -2.507  1.00  0.00     0.042 C 
HETATM    7  C   UNL     1      44.974 -27.990  -1.430  1.00  0.00     0.132 C 
HETATM    8  N   UNL     1      44.474 -29.149  -0.727  1.00  0.00    -0.355 N 
HETATM    9  C   UNL     1      45.154 -29.981   0.124  1.00  0.00     0.272 C 
HETATM   10  O   UNL     1      44.508 -30.814   0.758  1.00  0.00    -0.266 OA
HETATM   11  N   UNL     1      48.744 -29.432  -0.013  1.00  0.00    -0.341 N 
HETATM   12  H   UNL     1      49.634 -29.121  -0.372  1.00  0.00     0.167 HD
HETATM   13  H   UNL     1      43.479 -29.335  -0.734  1.00  0.00     0.162 HD
ENDROOT
BRANCH   1  14
HETATM   14  C   UNL     1      49.617 -30.376   2.182  1.00  0.00     0.059 A 
HETATM   15  C   UNL     1      50.641 -31.298   2.077  1.00  0.00     0.040 A 
HETATM   16  C   UNL     1      51.054 -32.262   1.034  1.00  0.00     0.071 C 
HETATM   17  N   UNL     1      51.339 -31.187   3.252  1.00  0.00    -0.281 N 
HETATM   18  H   UNL     1      52.161 -31.706   3.542  1.00  0.00     0.189 HD
HETATM   19  N   UNL     1      50.851 -30.273   4.098  1.00  0.00    -0.179 NA
HETATM   20  C   UNL     1      49.790 -29.767   3.453  1.00  0.00     0.067 A 
HETATM   21  C   UNL     1      48.974 -28.698   4.084  1.00  0.00     0.073 C 
ENDBRANCH   1  14
BRANCH   6  22
HETATM   22  C   UNL     1      45.528 -29.332  -3.518  1.00  0.00    -0.049 A 
HETATM   23  C   UNL     1      46.261 -30.525  -3.687  1.00  0.00     0.044 A 
HETATM   24  C   UNL     1      45.864 -31.495  -4.611  1.00  0.00     0.068 A 
HETATM   25  C   UNL     1      44.721 -31.274  -5.377  1.00  0.00     0.037 A 
HETATM   26  C   UNL     1      43.988 -30.096  -5.232  1.00  0.00     0.003 A 
HETATM   27  C   UNL     1      44.389 -29.129  -4.310  1.00  0.00     0.007 A 
BRANCH  24  28
HETATM   28  O   UNL     1      46.498 -32.682  -4.855  1.00  0.00    -0.356 OA
HETATM   29  C   UNL     1      47.546 -32.670  -5.815  1.00  0.00     0.210 C 
ENDBRANCH  24  28
ENDBRANCH   6  22
TORSDOF 3
ENDMDL
MODEL 10
REMARK VINA RESULT:      -7.6      2.217      3.340
REMARK  3 active torsions:
REMARK  status: ('A' for Active; 'I' for Inactive)
REMARK    1  A    between atoms: C_8  and  C_9 
REMARK    2  A    between atoms: C_14  and  C_15 
REMARK    3  A    between atoms: C_17  and  O_18 
ROOT
HETATM    1  C   UNL     1      41.094 -10.996   0.282  1.00  0.00     0.143 A 
HETATM    2  N   UNL     1      42.036 -10.807   1.178  1.00  0.00    -0.223 NA
HETATM    3  C   UNL     1      41.862 -11.765   2.165  1.00  0.00     0.149 A 
HETATM    4  C   UNL     1      40.785 -12.575   1.833  1.00  0.00     0.046 A 
HETATM    5  C   UNL     1      40.095 -13.732   2.470  1.00  0.00     0.070 C 
HETATM    6  C   UNL     1      40.592 -14.175   3.858  1.00  0.00     0.042 C 
HETATM    7  C   UNL     1      41.018 -12.998   4.749  1.00  0.00     0.132 C 
HETATM    8  N   UNL     1      42.333 -12.473   4.459  1.00  0.00    -0.355 N 
HETATM    9  C   UNL     1      42.753 -11.819   3.330  1.00  0.00     0.272 C 
HETATM   10  O   UNL     1      43.867 -11.298   3.344  1.00  0.00    -0.266 OA
HETATM   11  N   UNL     1      40.337 -12.079   0.627  1.00  0.00    -0.341 N 
HETATM   12  H   UNL     1      39.557 -12.433   0.096  1.00  0.00     0.167 HD
HETATM   13  H   UNL     1      43.026 -12.451   5.197  1.00  0.00     0.162 HD
ENDROOT
BRANCH   1  14
HETATM   14  C   UNL     1      40.895 -10.132  -0.913  1.00  0.00     0.059 A 
HETATM   15  C   UNL     1      40.639  -8.774  -0.950  1.00  0.00     0.040 A 
HETATM   16  C   UNL     1      40.466  -7.731   0.085  1.00  0.00     0.071 C 
HETATM   17  N   UNL     1      40.554  -8.467  -2.283  1.00  0.00    -0.281 N 
HETATM   18  H   UNL     1      40.375  -7.561  -2.706  1.00  0.00     0.189 HD
HETATM   19  N   UNL     1      40.735  -9.509  -3.102  1.00  0.00    -0.179 NA
HETATM   20  C   UNL     1      40.944 -10.541  -2.271  1.00  0.00     0.067 A 
HETATM   21  C   UNL     1      41.195 -11.899  -2.819  1.00  0.00     0.073 C 
ENDBRANCH   1  14
BRANCH   6  22
HETATM   22  C   UNL     1      41.606 -15.314   3.877  1.00  0.00    -0.049 A 
HETATM   23  C   UNL     1      41.854 -15.982   5.096  1.00  0.00     0.044 A 
HETATM   24  C   UNL     1      42.785 -17.019   5.176  1.00  0.00     0.068 A 
HETATM   25  C   UNL     1      43.479 -17.399   4.029  1.00  0.00     0.037 A 
HETATM   26  C   UNL     1      43.255 -16.746   2.817  1.00  0.00     0.003 A 
HETATM   27  C   UNL     1      42.326 -15.707   2.741  1.00  0.00     0.007 A 
BRANCH  24  28
HETATM   28  O   UNL     1      43.102 -17.732   6.300  1.00  0.00    -0.356 OA
HETATM   29  C   UNL     1      43.737 -17.023   7.356  1.00  0.00     0.210 C 
ENDBRANCH  24  28
ENDBRANCH   6  22
TORSDOF 3
ENDMDL
