MODEL 1
REMARK VINA RESULT:      -9.3      0.000      0.000
REMARK  3 active torsions:
REMARK  status: ('A' for Active; 'I' for Inactive)
REMARK    1  A    between atoms: N_3  and  C_4 
REMARK    2  A    between atoms: C_6  and  C_7 
REMARK       I    between atoms: C_7  and  N_8 
REMARK    3  A    between atoms: N_8  and  C_9 
ROOT
HETATM    1  C   UNL     1      41.319 -11.458   4.847  1.00  0.00     0.072 C 
HETATM    2  C   UNL     1      41.764 -12.935   4.920  1.00  0.00     0.149 C 
HETATM    3  N   UNL     1      42.544 -13.245   6.145  1.00  0.00    -0.267 N 
HETATM    4  C   UNL     1      42.488 -14.508   6.732  1.00  0.00     0.326 C 
HETATM    5  O   UNL     1      43.156 -14.886   7.694  1.00  0.00    -0.247 OA
HETATM    6  N   UNL     1      41.613 -15.402   6.189  1.00  0.00    -0.334 N 
HETATM    7  O   UNL     1      42.573 -13.172   3.746  1.00  0.00    -0.319 OA
HETATM    8  C   UNL     1      42.588 -14.446   3.248  1.00  0.00     0.080 A 
HETATM    9  C   UNL     1      41.812 -15.481   3.779  1.00  0.00    -0.002 A 
HETATM   10  C   UNL     1      43.408 -14.676   2.145  1.00  0.00     0.037 A 
HETATM   11  C   UNL     1      43.469 -15.948   1.574  1.00  0.00     0.003 A 
HETATM   12  C   UNL     1      42.715 -16.990   2.112  1.00  0.00     0.001 A 
HETATM   13  C   UNL     1      41.892 -16.760   3.215  1.00  0.00     0.012 A 
HETATM   14  C   UNL     1      40.467 -13.756   4.884  1.00  0.00     0.092 C 
HETATM   15  C   UNL     1      40.918 -15.193   4.950  1.00  0.00     0.127 C 
HETATM   16  H   UNL     1      41.708 -16.337   6.563  1.00  0.00     0.165 HD
ENDROOT
BRANCH   3  17
HETATM   17  C   UNL     1      43.479 -12.294   6.668  1.00  0.00     0.043 A 
HETATM   18  C   UNL     1      43.165 -11.466   7.754  1.00  0.00     0.047 A 
HETATM   19  C   UNL     1      44.110 -10.548   8.236  1.00  0.00     0.034 A 
HETATM   20  C   UNL     1      45.388 -10.487   7.671  1.00  0.00     0.017 A 
HETATM   21  C   UNL     1      45.705 -11.299   6.588  1.00  0.00     0.003 A 
HETATM   22  C   UNL     1      44.750 -12.182   6.081  1.00  0.00     0.030 A 
BRANCH  19  23
HETATM   23  C   UNL     1      43.790  -9.593   9.331  1.00  0.00     0.252 C 
HETATM   24  N   UNL     1      42.883 -10.047  10.267  1.00  0.00    -0.352 N 
HETATM   25  H   UNL     1      42.405 -10.916  10.066  1.00  0.00     0.163 HD
HETATM   26  O   UNL     1      44.271  -8.468   9.316  1.00  0.00    -0.268 OA
BRANCH  24  27
HETATM   27  C   UNL     1      42.282  -9.197  11.277  1.00  0.00     0.084 C 
HETATM   28  C   UNL     1      40.960  -9.704  11.856  1.00  0.00     0.025 C 
HETATM   29  C   UNL     1      40.866  -8.970  13.184  1.00  0.00     0.002 C 
HETATM   30  C   UNL     1      42.289  -9.033  13.718  1.00  0.00     0.002 C 
HETATM   31  C   UNL     1      43.186  -8.912  12.487  1.00  0.00     0.025 C 
ENDBRANCH  24  27
ENDBRANCH  19  23
ENDBRANCH   3  17
TORSDOF 3
ENDMDL
MODEL 2
REMARK VINA RESULT:      -9.0      2.840      4.394
REMARK  3 active torsions:
REMARK  status: ('A' for Active; 'I' for Inactive)
REMARK    1  A    between atoms: N_3  and  C_4 
REMARK    2  A    between atoms: C_6  and  C_7 
REMARK       I    between atoms: C_7  and  N_8 
REMARK    3  A    between atoms: N_8  and  C_9 
ROOT
HETATM    1  C   UNL     1      40.114 -16.080   4.299  1.00  0.00     0.072 C 
HETATM    2  C   UNL     1      40.535 -15.188   3.110  1.00  0.00     0.149 C 
HETATM    3  N   UNL     1      41.982 -14.856   3.120  1.00  0.00    -0.267 N 
HETATM    4  C   UNL     1      42.682 -14.658   1.932  1.00  0.00     0.326 C 
HETATM    5  O   UNL     1      43.855 -14.300   1.837  1.00  0.00    -0.247 OA
HETATM    6  N   UNL     1      42.001 -14.884   0.771  1.00  0.00    -0.334 N 
HETATM    7  O   UNL     1      39.749 -13.979   3.215  1.00  0.00    -0.319 OA
HETATM    8  C   UNL     1      39.464 -13.320   2.049  1.00  0.00     0.080 A 
HETATM    9  C   UNL     1      39.837 -13.802   0.791  1.00  0.00    -0.002 A 
HETATM   10  C   UNL     1      38.747 -12.131   2.164  1.00  0.00     0.037 A 
HETATM   11  C   UNL     1      38.410 -11.407   1.019  1.00  0.00     0.003 A 
HETATM   12  C   UNL     1      38.798 -11.870  -0.238  1.00  0.00     0.001 A 
HETATM   13  C   UNL     1      39.513 -13.062  -0.353  1.00  0.00     0.012 A 
HETATM   14  C   UNL     1      40.173 -15.987   1.850  1.00  0.00     0.092 C 
HETATM   15  C   UNL     1      40.583 -15.102   0.701  1.00  0.00     0.127 C 
HETATM   16  H   UNL     1      42.509 -14.598  -0.056  1.00  0.00     0.165 HD
ENDROOT
BRANCH   3  17
HETATM   17  C   UNL     1      42.656 -14.592   4.357  1.00  0.00     0.043 A 
HETATM   18  C   UNL     1      42.735 -13.302   4.896  1.00  0.00     0.047 A 
HETATM   19  C   UNL     1      43.404 -13.085   6.110  1.00  0.00     0.034 A 
HETATM   20  C   UNL     1      43.954 -14.161   6.816  1.00  0.00     0.017 A 
HETATM   21  C   UNL     1      43.887 -15.443   6.283  1.00  0.00     0.003 A 
HETATM   22  C   UNL     1      43.258 -15.652   5.054  1.00  0.00     0.030 A 
BRANCH  19  23
HETATM   23  C   UNL     1      43.584 -11.722   6.676  1.00  0.00     0.252 C 
HETATM   24  N   UNL     1      43.998 -11.675   7.991  1.00  0.00    -0.352 N 
HETATM   25  H   UNL     1      44.009 -12.548   8.506  1.00  0.00     0.163 HD
HETATM   26  O   UNL     1      43.301 -10.741   6.001  1.00  0.00    -0.268 OA
BRANCH  24  27
HETATM   27  C   UNL     1      44.021 -10.459   8.782  1.00  0.00     0.084 C 
HETATM   28  C   UNL     1      43.574 -10.616  10.237  1.00  0.00     0.025 C 
HETATM   29  C   UNL     1      44.196  -9.407  10.917  1.00  0.00     0.002 C 
HETATM   30  C   UNL     1      45.580  -9.329  10.291  1.00  0.00     0.002 C 
HETATM   31  C   UNL     1      45.390  -9.764   8.838  1.00  0.00     0.025 C 
ENDBRANCH  24  27
ENDBRANCH  19  23
ENDBRANCH   3  17
TORSDOF 3
ENDMDL
MODEL 3
REMARK VINA RESULT:      -8.8      1.808      8.347
REMARK  3 active torsions:
REMARK  status: ('A' for Active; 'I' for Inactive)
REMARK    1  A    between atoms: N_3  and  C_4 
REMARK    2  A    between atoms: C_6  and  C_7 
REMARK       I    between atoms: C_7  and  N_8 
REMARK    3  A    between atoms: N_8  and  C_9 
ROOT
HETATM    1  C   UNL     1      42.907  -7.955   7.872  1.00  0.00     0.072 C 
HETATM    2  C   UNL     1      42.921  -8.613   9.269  1.00  0.00     0.149 C 
HETATM    3  N   UNL     1      44.003  -9.618   9.425  1.00  0.00    -0.267 N 
HETATM    4  C   UNL     1      44.603  -9.842  10.663  1.00  0.00     0.326 C 
HETATM    5  O   UNL     1      45.444 -10.705  10.911  1.00  0.00    -0.247 OA
HETATM    6  N   UNL     1      44.222  -9.028  11.688  1.00  0.00    -0.334 N 
HETATM    7  O   UNL     1      41.631  -9.247   9.429  1.00  0.00    -0.319 OA
HETATM    8  C   UNL     1      41.150  -9.364  10.705  1.00  0.00     0.080 A 
HETATM    9  C   UNL     1      41.812  -8.842  11.820  1.00  0.00    -0.002 A 
HETATM   10  C   UNL     1      39.929 -10.017  10.854  1.00  0.00     0.037 A 
HETATM   11  C   UNL     1      39.368 -10.167  12.123  1.00  0.00     0.003 A 
HETATM   12  C   UNL     1      40.034  -9.669  13.243  1.00  0.00     0.001 A 
HETATM   13  C   UNL     1      41.256  -9.012  13.094  1.00  0.00     0.012 A 
HETATM   14  C   UNL     1      43.108  -7.460  10.265  1.00  0.00     0.092 C 
HETATM   15  C   UNL     1      43.113  -8.117  11.622  1.00  0.00     0.127 C 
HETATM   16  H   UNL     1      44.583  -9.316  12.588  1.00  0.00     0.165 HD
ENDROOT
BRANCH   3  17
HETATM   17  C   UNL     1      44.354 -10.480   8.335  1.00  0.00     0.043 A 
HETATM   18  C   UNL     1      43.541 -11.553   7.948  1.00  0.00     0.047 A 
HETATM   19  C   UNL     1      43.921 -12.373   6.875  1.00  0.00     0.034 A 
HETATM   20  C   UNL     1      45.086 -12.096   6.152  1.00  0.00     0.017 A 
HETATM   21  C   UNL     1      45.902 -11.038   6.535  1.00  0.00     0.003 A 
HETATM   22  C   UNL     1      45.546 -10.248   7.630  1.00  0.00     0.030 A 
BRANCH  19  23
HETATM   23  C   UNL     1      43.131 -13.571   6.484  1.00  0.00     0.252 C 
HETATM   24  N   UNL     1      43.868 -14.712   6.239  1.00  0.00    -0.352 N 
HETATM   25  H   UNL     1      44.875 -14.616   6.203  1.00  0.00     0.163 HD
HETATM   26  O   UNL     1      41.920 -13.479   6.334  1.00  0.00    -0.268 OA
BRANCH  24  27
HETATM   27  C   UNL     1      43.312 -15.912   5.642  1.00  0.00     0.084 C 
HETATM   28  C   UNL     1      43.207 -15.895   4.116  1.00  0.00     0.025 C 
HETATM   29  C   UNL     1      43.136 -17.373   3.764  1.00  0.00     0.002 C 
HETATM   30  C   UNL     1      44.159 -18.003   4.697  1.00  0.00     0.002 C 
HETATM   31  C   UNL     1      44.064 -17.204   5.997  1.00  0.00     0.025 C 
ENDBRANCH  24  27
ENDBRANCH  19  23
ENDBRANCH   3  17
TORSDOF 3
ENDMDL
MODEL 4
REMARK VINA RESULT:      -8.8      4.177      7.769
REMARK  3 active torsions:
REMARK  status: ('A' for Active; 'I' for Inactive)
REMARK    1  A    between atoms: N_3  and  C_4 
REMARK    2  A    between atoms: C_6  and  C_7 
REMARK       I    between atoms: C_7  and  N_8 
REMARK    3  A    between atoms: N_8  and  C_9 
ROOT
HETATM    1  C   UNL     1      39.786 -15.392   6.413  1.00  0.00     0.072 C 
HETATM    2  C   UNL     1      41.257 -15.423   5.943  1.00  0.00     0.149 C 
HETATM    3  N   UNL     1      41.805 -14.072   5.665  1.00  0.00    -0.267 N 
HETATM    4  C   UNL     1      43.155 -13.789   5.863  1.00  0.00     0.326 C 
HETATM    5  O   UNL     1      43.719 -12.731   5.585  1.00  0.00    -0.247 OA
HETATM    6  N   UNL     1      43.917 -14.777   6.415  1.00  0.00    -0.334 N 
HETATM    7  O   UNL     1      41.279 -16.223   4.738  1.00  0.00    -0.319 OA
HETATM    8  C   UNL     1      42.436 -16.899   4.461  1.00  0.00     0.080 A 
HETATM    9  C   UNL     1      43.540 -16.901   5.318  1.00  0.00    -0.002 A 
HETATM   10  C   UNL     1      42.464 -17.628   3.275  1.00  0.00     0.037 A 
HETATM   11  C   UNL     1      43.605 -18.353   2.928  1.00  0.00     0.003 A 
HETATM   12  C   UNL     1      44.720 -18.341   3.767  1.00  0.00     0.001 A 
HETATM   13  C   UNL     1      44.691 -17.613   4.957  1.00  0.00     0.012 A 
HETATM   14  C   UNL     1      42.037 -16.099   7.079  1.00  0.00     0.092 C 
HETATM   15  C   UNL     1      43.467 -16.128   6.603  1.00  0.00     0.127 C 
HETATM   16  H   UNL     1      44.908 -14.571   6.412  1.00  0.00     0.165 HD
ENDROOT
BRANCH   3  17
HETATM   17  C   UNL     1      40.985 -13.069   5.053  1.00  0.00     0.043 A 
HETATM   18  C   UNL     1      40.814 -12.998   3.665  1.00  0.00     0.047 A 
HETATM   19  C   UNL     1      40.001 -12.000   3.104  1.00  0.00     0.034 A 
HETATM   20  C   UNL     1      39.316 -11.102   3.929  1.00  0.00     0.017 A 
HETATM   21  C   UNL     1      39.487 -11.160   5.308  1.00  0.00     0.003 A 
HETATM   22  C   UNL     1      40.329 -12.126   5.862  1.00  0.00     0.030 A 
BRANCH  19  23
HETATM   23  C   UNL     1      39.859 -11.837   1.633  1.00  0.00     0.252 C 
HETATM   24  N   UNL     1      39.400 -12.947   0.955  1.00  0.00    -0.352 N 
HETATM   25  H   UNL     1      39.334 -13.814   1.474  1.00  0.00     0.163 HD
HETATM   26  O   UNL     1      40.208 -10.791   1.101  1.00  0.00    -0.268 OA
BRANCH  24  27
HETATM   27  C   UNL     1      39.401 -13.060  -0.491  1.00  0.00     0.084 C 
HETATM   28  C   UNL     1      39.491 -14.486  -1.036  1.00  0.00     0.025 C 
HETATM   29  C   UNL     1      38.937 -14.348  -2.446  1.00  0.00     0.002 C 
HETATM   30  C   UNL     1      37.752 -13.412  -2.264  1.00  0.00     0.002 C 
HETATM   31  C   UNL     1      38.181 -12.426  -1.178  1.00  0.00     0.025 C 
ENDBRANCH  24  27
ENDBRANCH  19  23
ENDBRANCH   3  17
TORSDOF 3
ENDMDL
MODEL 5
REMARK VINA RESULT:      -8.6      1.873      2.831
REMARK  3 active torsions:
REMARK  status: ('A' for Active; 'I' for Inactive)
REMARK    1  A    between atoms: N_3  and  C_4 
REMARK    2  A    between atoms: C_6  and  C_7 
REMARK       I    between atoms: C_7  and  N_8 
REMARK    3  A    between atoms: N_8  and  C_9 
ROOT
HETATM    1  C   UNL     1      43.115 -12.148   3.387  1.00  0.00     0.072 C 
HETATM    2  C   UNL     1      42.416 -13.164   4.317  1.00  0.00     0.149 C 
HETATM    3  N   UNL     1      41.360 -12.546   5.159  1.00  0.00    -0.267 N 
HETATM    4  C   UNL     1      40.235 -13.270   5.547  1.00  0.00     0.326 C 
HETATM    5  O   UNL     1      39.351 -12.877   6.307  1.00  0.00    -0.247 OA
HETATM    6  N   UNL     1      40.105 -14.528   5.035  1.00  0.00    -0.334 N 
HETATM    7  O   UNL     1      43.452 -13.723   5.156  1.00  0.00    -0.319 OA
HETATM    8  C   UNL     1      43.262 -14.999   5.611  1.00  0.00     0.080 A 
HETATM    9  C   UNL     1      42.164 -15.783   5.245  1.00  0.00    -0.002 A 
HETATM   10  C   UNL     1      44.243 -15.513   6.457  1.00  0.00     0.037 A 
HETATM   11  C   UNL     1      44.124 -16.811   6.955  1.00  0.00     0.003 A 
HETATM   12  C   UNL     1      43.020 -17.592   6.611  1.00  0.00     0.001 A 
HETATM   13  C   UNL     1      42.039 -17.078   5.762  1.00  0.00     0.012 A 
HETATM   14  C   UNL     1      41.812 -14.225   3.386  1.00  0.00     0.092 C 
HETATM   15  C   UNL     1      41.140 -15.210   4.308  1.00  0.00     0.127 C 
HETATM   16  H   UNL     1      39.349 -15.057   5.451  1.00  0.00     0.165 HD
ENDROOT
BRANCH   3  17
HETATM   17  C   UNL     1      41.545 -11.235   5.707  1.00  0.00     0.043 A 
HETATM   18  C   UNL     1      42.381 -11.003   6.806  1.00  0.00     0.047 A 
HETATM   19  C   UNL     1      42.536  -9.704   7.313  1.00  0.00     0.034 A 
HETATM   20  C   UNL     1      41.898  -8.624   6.695  1.00  0.00     0.017 A 
HETATM   21  C   UNL     1      41.059  -8.847   5.607  1.00  0.00     0.003 A 
HETATM   22  C   UNL     1      40.873 -10.145   5.130  1.00  0.00     0.030 A 
BRANCH  19  23
HETATM   23  C   UNL     1      43.346  -9.426   8.529  1.00  0.00     0.252 C 
HETATM   24  N   UNL     1      42.749  -9.758   9.728  1.00  0.00    -0.352 N 
HETATM   25  H   UNL     1      41.773 -10.024   9.702  1.00  0.00     0.163 HD
HETATM   26  O   UNL     1      44.433  -8.874   8.421  1.00  0.00    -0.268 OA
BRANCH  24  27
HETATM   27  C   UNL     1      43.279  -9.369  11.021  1.00  0.00     0.084 C 
HETATM   28  C   UNL     1      42.992  -7.926  11.439  1.00  0.00     0.025 C 
HETATM   29  C   UNL     1      43.152  -7.970  12.950  1.00  0.00     0.002 C 
HETATM   30  C   UNL     1      42.484  -9.282  13.333  1.00  0.00     0.002 C 
HETATM   31  C   UNL     1      42.805 -10.246  12.191  1.00  0.00     0.025 C 
ENDBRANCH  24  27
ENDBRANCH  19  23
ENDBRANCH   3  17
TORSDOF 3
ENDMDL
MODEL 6
REMARK VINA RESULT:      -8.3      1.928      2.567
REMARK  3 active torsions:
REMARK  status: ('A' for Active; 'I' for Inactive)
REMARK    1  A    between atoms: N_3  and  C_4 
REMARK    2  A    between atoms: C_6  and  C_7 
REMARK       I    between atoms: C_7  and  N_8 
REMARK    3  A    between atoms: N_8  and  C_9 
ROOT
HETATM    1  C   UNL     1      40.106 -14.564   6.269  1.00  0.00     0.072 C 
HETATM    2  C   UNL     1      41.506 -15.087   5.876  1.00  0.00     0.149 C 
HETATM    3  N   UNL     1      42.575 -14.074   6.064  1.00  0.00    -0.267 N 
HETATM    4  C   UNL     1      43.874 -14.454   6.398  1.00  0.00     0.326 C 
HETATM    5  O   UNL     1      44.843 -13.703   6.494  1.00  0.00    -0.247 OA
HETATM    6  N   UNL     1      44.084 -15.780   6.640  1.00  0.00    -0.334 N 
HETATM    7  O   UNL     1      41.419 -15.460   4.482  1.00  0.00    -0.319 OA
HETATM    8  C   UNL     1      42.250 -16.460   4.054  1.00  0.00     0.080 A 
HETATM    9  C   UNL     1      43.103 -17.160   4.911  1.00  0.00    -0.002 A 
HETATM   10  C   UNL     1      42.194 -16.781   2.699  1.00  0.00     0.037 A 
HETATM   11  C   UNL     1      43.004 -17.797   2.189  1.00  0.00     0.003 A 
HETATM   12  C   UNL     1      43.874 -18.485   3.033  1.00  0.00     0.001 A 
HETATM   13  C   UNL     1      43.929 -18.165   4.391  1.00  0.00     0.012 A 
HETATM   14  C   UNL     1      41.754 -16.309   6.771  1.00  0.00     0.092 C 
HETATM   15  C   UNL     1      43.119 -16.809   6.371  1.00  0.00     0.127 C 
HETATM   16  H   UNL     1      45.062 -16.021   6.744  1.00  0.00     0.165 HD
ENDROOT
BRANCH   3  17
HETATM   17  C   UNL     1      42.327 -12.694   5.768  1.00  0.00     0.043 A 
HETATM   18  C   UNL     1      42.286 -11.718   6.771  1.00  0.00     0.047 A 
HETATM   19  C   UNL     1      42.040 -10.376   6.440  1.00  0.00     0.034 A 
HETATM   20  C   UNL     1      41.886  -9.997   5.103  1.00  0.00     0.017 A 
HETATM   21  C   UNL     1      41.917 -10.961   4.101  1.00  0.00     0.003 A 
HETATM   22  C   UNL     1      42.119 -12.301   4.436  1.00  0.00     0.030 A 
BRANCH  19  23
HETATM   23  C   UNL     1      41.905  -9.322   7.480  1.00  0.00     0.252 C 
HETATM   24  N   UNL     1      42.533  -9.589   8.679  1.00  0.00    -0.352 N 
HETATM   25  H   UNL     1      42.907 -10.520   8.811  1.00  0.00     0.163 HD
HETATM   26  O   UNL     1      41.214  -8.337   7.260  1.00  0.00    -0.268 OA
BRANCH  24  27
HETATM   27  C   UNL     1      42.340  -8.796   9.878  1.00  0.00     0.084 C 
HETATM   28  C   UNL     1      41.291  -9.331  10.855  1.00  0.00     0.025 C 
HETATM   29  C   UNL     1      41.681  -8.672  12.169  1.00  0.00     0.002 C 
HETATM   30  C   UNL     1      43.199  -8.768  12.168  1.00  0.00     0.002 C 
HETATM   31  C   UNL     1      43.614  -8.581  10.710  1.00  0.00     0.025 C 
ENDBRANCH  24  27
ENDBRANCH  19  23
ENDBRANCH   3  17
TORSDOF 3
ENDMDL
MODEL 7
REMARK VINA RESULT:      -8.2      5.811      8.562
REMARK  3 active torsions:
REMARK  status: ('A' for Active; 'I' for Inactive)
REMARK    1  A    between atoms: N_3  and  C_4 
REMARK    2  A    between atoms: C_6  and  C_7 
REMARK       I    between atoms: C_7  and  N_8 
REMARK    3  A    between atoms: N_8  and  C_9 
ROOT
HETATM    1  C   UNL     1      41.753 -10.429  -1.070  1.00  0.00     0.072 C 
HETATM    2  C   UNL     1      40.395 -11.148  -0.910  1.00  0.00     0.149 C 
HETATM    3  N   UNL     1      40.107 -11.534   0.495  1.00  0.00    -0.267 N 
HETATM    4  C   UNL     1      38.799 -11.578   0.974  1.00  0.00     0.326 C 
HETATM    5  O   UNL     1      38.452 -11.963   2.089  1.00  0.00    -0.247 OA
HETATM    6  N   UNL     1      37.818 -11.154   0.126  1.00  0.00    -0.334 N 
HETATM    7  O   UNL     1      40.462 -12.327  -1.743  1.00  0.00    -0.319 OA
HETATM    8  C   UNL     1      39.282 -12.792  -2.259  1.00  0.00     0.080 A 
HETATM    9  C   UNL     1      38.060 -12.141  -2.070  1.00  0.00    -0.002 A 
HETATM   10  C   UNL     1      39.350 -13.956  -3.022  1.00  0.00     0.037 A 
HETATM   11  C   UNL     1      38.191 -14.486  -3.589  1.00  0.00     0.003 A 
HETATM   12  C   UNL     1      36.964 -13.854  -3.387  1.00  0.00     0.001 A 
HETATM   13  C   UNL     1      36.896 -12.687  -2.625  1.00  0.00     0.012 A 
HETATM   14  C   UNL     1      39.343 -10.155  -1.424  1.00  0.00     0.092 C 
HETATM   15  C   UNL     1      38.026 -10.873  -1.267  1.00  0.00     0.127 C 
HETATM   16  H   UNL     1      36.883 -11.332   0.470  1.00  0.00     0.165 HD
ENDROOT
BRANCH   3  17
HETATM   17  C   UNL     1      41.157 -12.007   1.346  1.00  0.00     0.043 A 
HETATM   18  C   UNL     1      41.560 -13.349   1.351  1.00  0.00     0.047 A 
HETATM   19  C   UNL     1      42.594 -13.772   2.200  1.00  0.00     0.034 A 
HETATM   20  C   UNL     1      43.263 -12.850   3.011  1.00  0.00     0.017 A 
HETATM   21  C   UNL     1      42.865 -11.518   3.018  1.00  0.00     0.003 A 
HETATM   22  C   UNL     1      41.808 -11.106   2.205  1.00  0.00     0.030 A 
BRANCH  19  23
HETATM   23  C   UNL     1      42.995 -15.200   2.297  1.00  0.00     0.252 C 
HETATM   24  N   UNL     1      42.270 -15.961   3.192  1.00  0.00    -0.352 N 
HETATM   25  H   UNL     1      41.631 -15.471   3.805  1.00  0.00     0.163 HD
HETATM   26  O   UNL     1      43.957 -15.606   1.658  1.00  0.00    -0.268 OA
BRANCH  24  27
HETATM   27  C   UNL     1      42.643 -17.305   3.588  1.00  0.00     0.084 C 
HETATM   28  C   UNL     1      43.002 -18.250   2.439  1.00  0.00     0.025 C 
HETATM   29  C   UNL     1      43.836 -19.320   3.126  1.00  0.00     0.002 C 
HETATM   30  C   UNL     1      44.707 -18.521   4.084  1.00  0.00     0.002 C 
HETATM   31  C   UNL     1      43.823 -17.373   4.570  1.00  0.00     0.025 C 
ENDBRANCH  24  27
ENDBRANCH  19  23
ENDBRANCH   3  17
TORSDOF 3
ENDMDL
MODEL 8
REMARK VINA RESULT:      -8.2      2.329      9.131
REMARK  3 active torsions:
REMARK  status: ('A' for Active; 'I' for Inactive)
REMARK    1  A    between atoms: N_3  and  C_4 
REMARK    2  A    between atoms: C_6  and  C_7 
REMARK       I    between atoms: C_7  and  N_8 
REMARK    3  A    between atoms: N_8  and  C_9 
ROOT
HETATM    1  C   UNL     1      43.134 -10.782  12.454  1.00  0.00     0.072 C 
HETATM    2  C   UNL     1      42.147  -9.621  12.204  1.00  0.00     0.149 C 
HETATM    3  N   UNL     1      41.903  -9.369  10.761  1.00  0.00    -0.267 N 
HETATM    4  C   UNL     1      40.674  -8.888  10.313  1.00  0.00     0.326 C 
HETATM    5  O   UNL     1      40.402  -8.571   9.156  1.00  0.00    -0.247 OA
HETATM    6  N   UNL     1      39.686  -8.759  11.245  1.00  0.00    -0.334 N 
HETATM    7  O   UNL     1      42.736  -8.451  12.817  1.00  0.00    -0.319 OA
HETATM    8  C   UNL     1      41.876  -7.489  13.271  1.00  0.00     0.080 A 
HETATM    9  C   UNL     1      40.486  -7.627  13.229  1.00  0.00    -0.002 A 
HETATM   10  C   UNL     1      42.453  -6.344  13.818  1.00  0.00     0.037 A 
HETATM   11  C   UNL     1      41.642  -5.322  14.312  1.00  0.00     0.003 A 
HETATM   12  C   UNL     1      40.254  -5.443  14.253  1.00  0.00     0.001 A 
HETATM   13  C   UNL     1      39.675  -6.591  13.708  1.00  0.00     0.012 A 
HETATM   14  C   UNL     1      40.846 -10.030  12.908  1.00  0.00     0.092 C 
HETATM   15  C   UNL     1      39.896  -8.886  12.660  1.00  0.00     0.127 C 
HETATM   16  H   UNL     1      38.864  -8.282  10.898  1.00  0.00     0.165 HD
ENDROOT
BRANCH   3  17
HETATM   17  C   UNL     1      42.973  -9.482   9.815  1.00  0.00     0.043 A 
HETATM   18  C   UNL     1      43.120 -10.607   8.993  1.00  0.00     0.047 A 
HETATM   19  C   UNL     1      44.182 -10.678   8.079  1.00  0.00     0.034 A 
HETATM   20  C   UNL     1      45.071  -9.607   7.944  1.00  0.00     0.017 A 
HETATM   21  C   UNL     1      44.937  -8.490   8.762  1.00  0.00     0.003 A 
HETATM   22  C   UNL     1      43.906  -8.438   9.701  1.00  0.00     0.030 A 
BRANCH  19  23
HETATM   23  C   UNL     1      44.423 -11.888   7.248  1.00  0.00     0.252 C 
HETATM   24  N   UNL     1      43.438 -12.852   7.305  1.00  0.00    -0.352 N 
HETATM   25  H   UNL     1      42.712 -12.734   8.000  1.00  0.00     0.163 HD
HETATM   26  O   UNL     1      45.474 -12.002   6.631  1.00  0.00    -0.268 OA
BRANCH  24  27
HETATM   27  C   UNL     1      43.586 -14.183   6.746  1.00  0.00     0.084 C 
HETATM   28  C   UNL     1      43.024 -15.318   7.602  1.00  0.00     0.025 C 
HETATM   29  C   UNL     1      42.819 -16.437   6.593  1.00  0.00     0.002 C 
HETATM   30  C   UNL     1      42.251 -15.714   5.382  1.00  0.00     0.002 C 
HETATM   31  C   UNL     1      42.959 -14.359   5.354  1.00  0.00     0.025 C 
ENDBRANCH  24  27
ENDBRANCH  19  23
ENDBRANCH   3  17
TORSDOF 3
ENDMDL
MODEL 9
REMARK VINA RESULT:      -8.1     17.972     19.616
REMARK  3 active torsions:
REMARK  status: ('A' for Active; 'I' for Inactive)
REMARK    1  A    between atoms: N_3  and  C_4 
REMARK    2  A    between atoms: C_6  and  C_7 
REMARK       I    between atoms: C_7  and  N_8 
REMARK    3  A    between atoms: N_8  and  C_9 
ROOT
HETATM    1  C   UNL     1      48.858 -31.717   0.125  1.00  0.00     0.072 C 
HETATM    2  C   UNL     1      48.002 -30.461  -0.153  1.00  0.00     0.149 C 
HETATM    3  N   UNL     1      47.813 -29.612   1.050  1.00  0.00    -0.267 N 
HETATM    4  C   UNL     1      47.675 -28.229   0.939  1.00  0.00     0.326 C 
HETATM    5  O   UNL     1      47.433 -27.452   1.861  1.00  0.00    -0.247 OA
HETATM    6  N   UNL     1      47.824 -27.693  -0.307  1.00  0.00    -0.334 N 
HETATM    7  O   UNL     1      46.723 -30.941  -0.625  1.00  0.00    -0.319 OA
HETATM    8  C   UNL     1      46.030 -30.127  -1.479  1.00  0.00     0.080 A 
HETATM    9  C   UNL     1      46.536 -28.913  -1.953  1.00  0.00    -0.002 A 
HETATM   10  C   UNL     1      44.777 -30.576  -1.892  1.00  0.00     0.037 A 
HETATM   11  C   UNL     1      44.015 -29.806  -2.770  1.00  0.00     0.003 A 
HETATM   12  C   UNL     1      44.503 -28.583  -3.230  1.00  0.00     0.001 A 
HETATM   13  C   UNL     1      45.759 -28.134  -2.819  1.00  0.00     0.012 A 
HETATM   14  C   UNL     1      48.752 -29.689  -1.248  1.00  0.00     0.092 C 
HETATM   15  C   UNL     1      47.902 -28.471  -1.512  1.00  0.00     0.127 C 
HETATM   16  H   UNL     1      47.583 -26.712  -0.355  1.00  0.00     0.165 HD
ENDROOT
BRANCH   3  17
HETATM   17  C   UNL     1      47.626 -30.211   2.338  1.00  0.00     0.043 A 
HETATM   18  C   UNL     1      46.428 -30.842   2.694  1.00  0.00     0.047 A 
HETATM   19  C   UNL     1      46.285 -31.417   3.966  1.00  0.00     0.034 A 
HETATM   20  C   UNL     1      47.353 -31.409   4.869  1.00  0.00     0.017 A 
HETATM   21  C   UNL     1      48.544 -30.777   4.526  1.00  0.00     0.003 A 
HETATM   22  C   UNL     1      48.670 -30.168   3.276  1.00  0.00     0.030 A 
BRANCH  19  23
HETATM   23  C   UNL     1      45.004 -32.023   4.415  1.00  0.00     0.252 C 
HETATM   24  N   UNL     1      43.862 -31.453   3.889  1.00  0.00    -0.352 N 
HETATM   25  H   UNL     1      43.971 -30.595   3.363  1.00  0.00     0.163 HD
HETATM   26  O   UNL     1      45.013 -32.917   5.251  1.00  0.00    -0.268 OA
BRANCH  24  27
HETATM   27  C   UNL     1      42.525 -31.754   4.363  1.00  0.00     0.084 C 
HETATM   28  C   UNL     1      41.626 -30.539   4.600  1.00  0.00     0.025 C 
HETATM   29  C   UNL     1      40.228 -31.133   4.544  1.00  0.00     0.002 C 
HETATM   30  C   UNL     1      40.312 -32.113   3.384  1.00  0.00     0.002 C 
HETATM   31  C   UNL     1      41.724 -32.695   3.450  1.00  0.00     0.025 C 
ENDBRANCH  24  27
ENDBRANCH  19  23
ENDBRANCH   3  17
TORSDOF 3
ENDMDL
MODEL 10
REMARK VINA RESULT:      -8.1      1.920      8.913
REMARK  3 active torsions:
REMARK  status: ('A' for Active; 'I' for Inactive)
REMARK    1  A    between atoms: N_3  and  C_4 
REMARK    2  A    between atoms: C_6  and  C_7 
REMARK       I    between atoms: C_7  and  N_8 
REMARK    3  A    between atoms: N_8  and  C_9 
ROOT
HETATM    1  C   UNL     1      40.533  -9.553   8.351  1.00  0.00     0.072 C 
HETATM    2  C   UNL     1      41.566  -8.811   9.228  1.00  0.00     0.149 C 
HETATM    3  N   UNL     1      42.899  -8.702   8.584  1.00  0.00    -0.267 N 
HETATM    4  C   UNL     1      43.730  -7.610   8.832  1.00  0.00     0.326 C 
HETATM    5  O   UNL     1      44.878  -7.468   8.415  1.00  0.00    -0.247 OA
HETATM    6  N   UNL     1      43.218  -6.610   9.606  1.00  0.00    -0.334 N 
HETATM    7  O   UNL     1      41.671  -9.569  10.455  1.00  0.00    -0.319 OA
HETATM    8  C   UNL     1      42.007  -8.875  11.586  1.00  0.00     0.080 A 
HETATM    9  C   UNL     1      42.177  -7.488  11.607  1.00  0.00    -0.002 A 
HETATM   10  C   UNL     1      42.152  -9.620  12.755  1.00  0.00     0.037 A 
HETATM   11  C   UNL     1      42.484  -8.983  13.951  1.00  0.00     0.003 A 
HETATM   12  C   UNL     1      42.677  -7.602  13.975  1.00  0.00     0.001 A 
HETATM   13  C   UNL     1      42.529  -6.855  12.806  1.00  0.00     0.012 A 
HETATM   14  C   UNL     1      40.969  -7.419   9.476  1.00  0.00     0.092 C 
HETATM   15  C   UNL     1      41.985  -6.711  10.336  1.00  0.00     0.127 C 
HETATM   16  H   UNL     1      43.902  -5.911   9.866  1.00  0.00     0.165 HD
ENDROOT
BRANCH   3  17
HETATM   17  C   UNL     1      43.419  -9.786   7.804  1.00  0.00     0.043 A 
HETATM   18  C   UNL     1      42.902 -10.105   6.542  1.00  0.00     0.047 A 
HETATM   19  C   UNL     1      43.440 -11.174   5.810  1.00  0.00     0.034 A 
HETATM   20  C   UNL     1      44.527 -11.898   6.311  1.00  0.00     0.017 A 
HETATM   21  C   UNL     1      45.040 -11.593   7.567  1.00  0.00     0.003 A 
HETATM   22  C   UNL     1      44.477 -10.556   8.313  1.00  0.00     0.030 A 
BRANCH  19  23
HETATM   23  C   UNL     1      42.867 -11.599   4.505  1.00  0.00     0.252 C 
HETATM   24  N   UNL     1      42.428 -12.906   4.447  1.00  0.00    -0.352 N 
HETATM   25  H   UNL     1      42.655 -13.507   5.230  1.00  0.00     0.163 HD
HETATM   26  O   UNL     1      42.874 -10.825   3.557  1.00  0.00    -0.268 OA
BRANCH  24  27
HETATM   27  C   UNL     1      42.044 -13.569   3.215  1.00  0.00     0.084 C 
HETATM   28  C   UNL     1      43.190 -14.212   2.433  1.00  0.00     0.025 C 
HETATM   29  C   UNL     1      42.477 -15.237   1.566  1.00  0.00     0.002 C 
HETATM   30  C   UNL     1      41.442 -15.832   2.509  1.00  0.00     0.002 C 
HETATM   31  C   UNL     1      40.986 -14.670   3.391  1.00  0.00     0.025 C 
ENDBRANCH  24  27
ENDBRANCH  19  23
ENDBRANCH   3  17
TORSDOF 3
ENDMDL
