MODEL 1
REMARK VINA RESULT:      -9.0      0.000      0.000
REMARK  4 active torsions:
REMARK  status: ('A' for Active; 'I' for Inactive)
REMARK    1  A    between atoms: C_7  and  C_8 
REMARK    2  A    between atoms: C_8  and  N_9 
REMARK    3  A    between atoms: N_15  and  C_17 
REMARK    4  A    between atoms: C_21  and  C_22 
ROOT
HETATM    1  N   UNL     1      42.763 -11.366   6.016  1.00  0.00    -0.067 N 
HETATM    2  H   UNL     1      42.503 -10.370   6.082  1.00  0.00     0.280 HD
HETATM    3  C   UNL     1      43.211 -11.572   4.597  1.00  0.00     0.236 C 
HETATM    4  C   UNL     1      43.416 -13.058   4.294  1.00  0.00     0.039 C 
HETATM    5  C   UNL     1      42.186 -13.951   4.620  1.00  0.00    -0.013 C 
HETATM    6  C   UNL     1      41.013 -13.733   3.624  1.00  0.00     0.245 C 
HETATM    7  N   UNL     1      41.354 -14.237   2.242  1.00  0.00    -0.065 N 
HETATM    8  H   UNL     1      42.187 -13.760   1.871  1.00  0.00     0.280 HD
HETATM    9  C   UNL     1      41.671 -15.728   2.232  1.00  0.00     0.244 C 
HETATM   10  C   UNL     1      42.856 -15.998   3.168  1.00  0.00     0.045 C 
HETATM   11  C   UNL     1      42.582 -15.457   4.584  1.00  0.00     0.022 C 
HETATM   12  C   UNL     1      41.727 -13.626   6.073  1.00  0.00     0.039 C 
HETATM   13  C   UNL     1      41.530 -12.141   6.367  1.00  0.00     0.236 C 
ENDROOT
BRANCH   7  14
HETATM   14  C   UNL     1      40.246 -13.947   1.267  1.00  0.00     0.188 A 
HETATM   15  C   UNL     1      40.640 -13.297  -0.030  1.00  0.00     0.035 A 
HETATM   16  C   UNL     1      40.236 -14.744  -0.005  1.00  0.00     0.035 A 
ENDBRANCH   7  14
BRANCH  10  17
HETATM   17  C   UNL     1      43.198 -17.475   3.188  1.00  0.00    -0.052 A 
HETATM   18  C   UNL     1      43.871 -18.017   4.295  1.00  0.00     0.007 A 
HETATM   19  C   UNL     1      44.213 -19.371   4.327  1.00  0.00     0.001 A 
HETATM   20  C   UNL     1      43.888 -20.200   3.257  1.00  0.00     0.000 A 
HETATM   21  C   UNL     1      43.218 -19.679   2.154  1.00  0.00     0.001 A 
HETATM   22  C   UNL     1      42.873 -18.326   2.118  1.00  0.00     0.007 A 
ENDBRANCH  10  17
BRANCH   1  23
HETATM   23  C   UNL     1      43.874 -11.466   7.062  1.00  0.00     0.277 C 
BRANCH  23  24
HETATM   24  C   UNL     1      44.165 -10.145   7.668  1.00  0.00     0.011 A 
HETATM   25  C   UNL     1      43.288  -9.217   8.218  1.00  0.00     0.035 A 
HETATM   26  C   UNL     1      41.819  -9.258   8.449  1.00  0.00     0.070 C 
HETATM   27  N   UNL     1      44.067  -8.144   8.591  1.00  0.00    -0.278 N 
HETATM   28  C   UNL     1      43.664  -6.906   9.225  1.00  0.00     0.179 C 
HETATM   29  N   UNL     1      45.365  -8.319   8.298  1.00  0.00    -0.185 NA
HETATM   30  C   UNL     1      45.436  -9.547   7.800  1.00  0.00     0.149 A 
ENDBRANCH  23  24
ENDBRANCH   1  23
TORSDOF 4
ENDMDL
MODEL 2
REMARK VINA RESULT:      -8.3      3.522      8.400
REMARK  4 active torsions:
REMARK  status: ('A' for Active; 'I' for Inactive)
REMARK    1  A    between atoms: C_7  and  C_8 
REMARK    2  A    between atoms: C_8  and  N_9 
REMARK    3  A    between atoms: N_15  and  C_17 
REMARK    4  A    between atoms: C_21  and  C_22 
ROOT
HETATM    1  N   UNL     1      42.919 -16.187   3.110  1.00  0.00    -0.067 N 
HETATM    2  H   UNL     1      43.536 -16.401   3.908  1.00  0.00     0.280 HD
HETATM    3  C   UNL     1      43.228 -14.767   2.731  1.00  0.00     0.236 C 
HETATM    4  C   UNL     1      42.226 -14.241   1.701  1.00  0.00     0.039 C 
HETATM    5  C   UNL     1      40.737 -14.388   2.126  1.00  0.00    -0.013 C 
HETATM    6  C   UNL     1      40.345 -13.406   3.265  1.00  0.00     0.245 C 
HETATM    7  N   UNL     1      40.349 -11.972   2.791  1.00  0.00    -0.065 N 
HETATM    8  H   UNL     1      41.278 -11.704   2.439  1.00  0.00     0.280 HD
HETATM    9  C   UNL     1      39.369 -11.738   1.648  1.00  0.00     0.244 C 
HETATM   10  C   UNL     1      39.736 -12.653   0.473  1.00  0.00     0.045 C 
HETATM   11  C   UNL     1      39.797 -14.128   0.913  1.00  0.00     0.022 C 
HETATM   12  C   UNL     1      40.511 -15.861   2.582  1.00  0.00     0.039 C 
HETATM   13  C   UNL     1      41.519 -16.378   3.606  1.00  0.00     0.236 C 
ENDROOT
BRANCH   7  14
HETATM   14  C   UNL     1      40.050 -11.024   3.920  1.00  0.00     0.188 A 
HETATM   15  C   UNL     1      41.184 -10.162   4.397  1.00  0.00     0.035 A 
HETATM   16  C   UNL     1      40.066  -9.558   3.597  1.00  0.00     0.035 A 
ENDBRANCH   7  14
BRANCH  10  17
HETATM   17  C   UNL     1      38.778 -12.451  -0.685  1.00  0.00    -0.052 A 
HETATM   18  C   UNL     1      38.089 -11.235  -0.813  1.00  0.00     0.007 A 
HETATM   19  C   UNL     1      37.189 -11.034  -1.861  1.00  0.00     0.001 A 
HETATM   20  C   UNL     1      36.964 -12.042  -2.794  1.00  0.00     0.000 A 
HETATM   21  C   UNL     1      37.642 -13.252  -2.683  1.00  0.00     0.001 A 
HETATM   22  C   UNL     1      38.544 -13.458  -1.638  1.00  0.00     0.007 A 
ENDBRANCH  10  17
BRANCH   1  23
HETATM   23  C   UNL     1      43.361 -17.235   2.087  1.00  0.00     0.277 C 
BRANCH  23  24
HETATM   24  C   UNL     1      43.545 -18.562   2.721  1.00  0.00     0.011 A 
HETATM   25  C   UNL     1      44.033 -18.874   3.985  1.00  0.00     0.035 A 
HETATM   26  C   UNL     1      44.451 -18.015   5.125  1.00  0.00     0.070 C 
HETATM   27  N   UNL     1      44.043 -20.251   4.051  1.00  0.00    -0.278 N 
HETATM   28  C   UNL     1      44.448 -21.103   5.148  1.00  0.00     0.179 C 
HETATM   29  N   UNL     1      43.619 -20.827   2.915  1.00  0.00    -0.185 NA
HETATM   30  C   UNL     1      43.260 -19.815   2.136  1.00  0.00     0.149 A 
ENDBRANCH  23  24
ENDBRANCH   1  23
TORSDOF 4
ENDMDL
MODEL 3
REMARK VINA RESULT:      -8.2      3.009      8.276
REMARK  4 active torsions:
REMARK  status: ('A' for Active; 'I' for Inactive)
REMARK    1  A    between atoms: C_7  and  C_8 
REMARK    2  A    between atoms: C_8  and  N_9 
REMARK    3  A    between atoms: N_15  and  C_17 
REMARK    4  A    between atoms: C_21  and  C_22 
ROOT
HETATM    1  N   UNL     1      40.674 -13.768   1.809  1.00  0.00    -0.067 N 
HETATM    2  H   UNL     1      40.178 -14.441   1.205  1.00  0.00     0.280 HD
HETATM    3  C   UNL     1      41.973 -14.432   2.167  1.00  0.00     0.236 C 
HETATM    4  C   UNL     1      42.718 -13.640   3.244  1.00  0.00     0.039 C 
HETATM    5  C   UNL     1      41.876 -13.349   4.519  1.00  0.00    -0.013 C 
HETATM    6  C   UNL     1      41.637 -14.622   5.377  1.00  0.00     0.245 C 
HETATM    7  N   UNL     1      42.917 -15.119   6.006  1.00  0.00    -0.065 N 
HETATM    8  H   UNL     1      43.619 -15.340   5.287  1.00  0.00     0.280 HD
HETATM    9  C   UNL     1      43.551 -14.080   6.924  1.00  0.00     0.244 C 
HETATM   10  C   UNL     1      43.851 -12.810   6.118  1.00  0.00     0.045 C 
HETATM   11  C   UNL     1      42.587 -12.288   5.410  1.00  0.00     0.022 C 
HETATM   12  C   UNL     1      40.514 -12.740   4.068  1.00  0.00     0.039 C 
HETATM   13  C   UNL     1      39.782 -13.534   2.989  1.00  0.00     0.236 C 
ENDROOT
BRANCH   7  14
HETATM   14  C   UNL     1      42.691 -16.398   6.765  1.00  0.00     0.188 A 
HETATM   15  C   UNL     1      43.451 -17.606   6.295  1.00  0.00     0.035 A 
HETATM   16  C   UNL     1      43.844 -16.920   7.573  1.00  0.00     0.035 A 
ENDBRANCH   7  14
BRANCH  10  17
HETATM   17  C   UNL     1      44.480 -11.750   7.001  1.00  0.00    -0.052 A 
HETATM   18  C   UNL     1      45.776 -11.290   6.718  1.00  0.00     0.007 A 
HETATM   19  C   UNL     1      46.381 -10.327   7.528  1.00  0.00     0.001 A 
HETATM   20  C   UNL     1      45.702  -9.810   8.628  1.00  0.00     0.000 A 
HETATM   21  C   UNL     1      44.415 -10.253   8.919  1.00  0.00     0.001 A 
HETATM   22  C   UNL     1      43.805 -11.216   8.112  1.00  0.00     0.007 A 
ENDBRANCH  10  17
BRANCH   1  23
HETATM   23  C   UNL     1      40.804 -12.558   0.884  1.00  0.00     0.277 C 
BRANCH  23  24
HETATM   24  C   UNL     1      39.605 -12.402   0.027  1.00  0.00     0.011 A 
HETATM   25  C   UNL     1      39.155 -13.208  -1.012  1.00  0.00     0.035 A 
HETATM   26  C   UNL     1      39.659 -14.498  -1.555  1.00  0.00     0.070 C 
HETATM   27  N   UNL     1      38.026 -12.588  -1.503  1.00  0.00    -0.278 N 
HETATM   28  C   UNL     1      37.157 -13.007  -2.582  1.00  0.00     0.179 C 
HETATM   29  N   UNL     1      37.746 -11.441  -0.863  1.00  0.00    -0.185 NA
HETATM   30  C   UNL     1      38.657 -11.359   0.098  1.00  0.00     0.149 A 
ENDBRANCH  23  24
ENDBRANCH   1  23
TORSDOF 4
ENDMDL
MODEL 4
REMARK VINA RESULT:      -8.1      3.258      7.070
REMARK  4 active torsions:
REMARK  status: ('A' for Active; 'I' for Inactive)
REMARK    1  A    between atoms: C_7  and  C_8 
REMARK    2  A    between atoms: C_8  and  N_9 
REMARK    3  A    between atoms: N_15  and  C_17 
REMARK    4  A    between atoms: C_21  and  C_22 
ROOT
HETATM    1  N   UNL     1      40.272 -12.939   1.381  1.00  0.00    -0.067 N 
HETATM    2  H   UNL     1      39.925 -11.970   1.441  1.00  0.00     0.280 HD
HETATM    3  C   UNL     1      39.977 -13.556   2.719  1.00  0.00     0.236 C 
HETATM    4  C   UNL     1      40.640 -14.929   2.851  1.00  0.00     0.039 C 
HETATM    5  C   UNL     1      42.169 -14.929   2.568  1.00  0.00    -0.013 C 
HETATM    6  C   UNL     1      42.982 -14.237   3.696  1.00  0.00     0.245 C 
HETATM    7  N   UNL     1      42.946 -15.032   4.979  1.00  0.00    -0.065 N 
HETATM    8  H   UNL     1      41.978 -15.157   5.307  1.00  0.00     0.280 HD
HETATM    9  C   UNL     1      43.527 -16.431   4.809  1.00  0.00     0.244 C 
HETATM   10  C   UNL     1      42.733 -17.181   3.733  1.00  0.00     0.045 C 
HETATM   11  C   UNL     1      42.693 -16.387   2.414  1.00  0.00     0.022 C 
HETATM   12  C   UNL     1      42.407 -14.204   1.209  1.00  0.00     0.039 C 
HETATM   13  C   UNL     1      41.737 -12.837   1.085  1.00  0.00     0.236 C 
ENDROOT
BRANCH   7  14
HETATM   14  C   UNL     1      43.665 -14.314   6.088  1.00  0.00     0.188 A 
HETATM   15  C   UNL     1      42.882 -13.273   6.837  1.00  0.00     0.035 A 
HETATM   16  C   UNL     1      43.199 -14.589   7.489  1.00  0.00     0.035 A 
ENDBRANCH   7  14
BRANCH  10  17
HETATM   17  C   UNL     1      43.287 -18.578   3.532  1.00  0.00    -0.052 A 
HETATM   18  C   UNL     1      43.198 -19.186   2.270  1.00  0.00     0.007 A 
HETATM   19  C   UNL     1      43.685 -20.478   2.067  1.00  0.00     0.001 A 
HETATM   20  C   UNL     1      44.267 -21.180   3.118  1.00  0.00     0.000 A 
HETATM   21  C   UNL     1      44.366 -20.591   4.375  1.00  0.00     0.001 A 
HETATM   22  C   UNL     1      43.881 -19.298   4.583  1.00  0.00     0.007 A 
ENDBRANCH  10  17
BRANCH   1  23
HETATM   23  C   UNL     1      39.445 -13.494   0.221  1.00  0.00     0.277 C 
BRANCH  23  24
HETATM   24  C   UNL     1      39.027 -12.417  -0.707  1.00  0.00     0.011 A 
HETATM   25  C   UNL     1      39.644 -11.969  -1.870  1.00  0.00     0.035 A 
HETATM   26  C   UNL     1      40.848 -12.448  -2.600  1.00  0.00     0.070 C 
HETATM   27  N   UNL     1      38.873 -10.920  -2.321  1.00  0.00    -0.278 N 
HETATM   28  C   UNL     1      39.055 -10.100  -3.499  1.00  0.00     0.179 C 
HETATM   29  N   UNL     1      37.830 -10.660  -1.516  1.00  0.00    -0.185 NA
HETATM   30  C   UNL     1      37.885 -11.598  -0.579  1.00  0.00     0.149 A 
ENDBRANCH  23  24
ENDBRANCH   1  23
TORSDOF 4
ENDMDL
MODEL 5
REMARK VINA RESULT:      -8.1      3.770      8.530
REMARK  4 active torsions:
REMARK  status: ('A' for Active; 'I' for Inactive)
REMARK    1  A    between atoms: C_7  and  C_8 
REMARK    2  A    between atoms: C_8  and  N_9 
REMARK    3  A    between atoms: N_15  and  C_17 
REMARK    4  A    between atoms: C_21  and  C_22 
ROOT
HETATM    1  N   UNL     1      42.045 -16.209   2.975  1.00  0.00    -0.067 N 
HETATM    2  H   UNL     1      42.019 -16.770   3.840  1.00  0.00     0.280 HD
HETATM    3  C   UNL     1      42.457 -14.829   3.401  1.00  0.00     0.236 C 
HETATM    4  C   UNL     1      42.321 -13.833   2.248  1.00  0.00     0.039 C 
HETATM    5  C   UNL     1      40.914 -13.809   1.586  1.00  0.00    -0.013 C 
HETATM    6  C   UNL     1      39.839 -13.161   2.501  1.00  0.00     0.245 C 
HETATM    7  N   UNL     1      40.076 -11.681   2.680  1.00  0.00    -0.065 N 
HETATM    8  H   UNL     1      41.002 -11.504   3.094  1.00  0.00     0.280 HD
HETATM    9  C   UNL     1      40.044 -10.926   1.356  1.00  0.00     0.244 C 
HETATM   10  C   UNL     1      41.121 -11.496   0.423  1.00  0.00     0.045 C 
HETATM   11  C   UNL     1      40.956 -13.017   0.247  1.00  0.00     0.022 C 
HETATM   12  C   UNL     1      40.518 -15.278   1.246  1.00  0.00     0.039 C 
HETATM   13  C   UNL     1      40.662 -16.266   2.402  1.00  0.00     0.236 C 
ENDROOT
BRANCH   7  14
HETATM   14  C   UNL     1      39.080 -11.079   3.632  1.00  0.00     0.188 A 
HETATM   15  C   UNL     1      39.637 -10.391   4.847  1.00  0.00     0.035 A 
HETATM   16  C   UNL     1      39.050  -9.580   3.726  1.00  0.00     0.035 A 
ENDBRANCH   7  14
BRANCH  10  17
HETATM   17  C   UNL     1      41.116 -10.772  -0.909  1.00  0.00    -0.052 A 
HETATM   18  C   UNL     1      41.660  -9.481  -0.999  1.00  0.00     0.007 A 
HETATM   19  C   UNL     1      41.650  -8.788  -2.211  1.00  0.00     0.001 A 
HETATM   20  C   UNL     1      41.099  -9.374  -3.348  1.00  0.00     0.000 A 
HETATM   21  C   UNL     1      40.559 -10.654  -3.275  1.00  0.00     0.001 A 
HETATM   22  C   UNL     1      40.567 -11.351  -2.065  1.00  0.00     0.007 A 
ENDBRANCH  10  17
BRANCH   1  23
HETATM   23  C   UNL     1      43.087 -16.964   2.148  1.00  0.00     0.277 C 
BRANCH  23  24
HETATM   24  C   UNL     1      43.377 -18.295   2.731  1.00  0.00     0.011 A 
HETATM   25  C   UNL     1      43.889 -18.615   3.983  1.00  0.00     0.035 A 
HETATM   26  C   UNL     1      44.240 -17.770   5.155  1.00  0.00     0.070 C 
HETATM   27  N   UNL     1      44.009 -19.988   3.997  1.00  0.00    -0.278 N 
HETATM   28  C   UNL     1      44.481 -20.847   5.062  1.00  0.00     0.179 C 
HETATM   29  N   UNL     1      43.630 -20.553   2.840  1.00  0.00    -0.185 NA
HETATM   30  C   UNL     1      43.191 -19.543   2.099  1.00  0.00     0.149 A 
ENDBRANCH  23  24
ENDBRANCH   1  23
TORSDOF 4
ENDMDL
MODEL 6
REMARK VINA RESULT:      -7.9      1.710      2.042
REMARK  4 active torsions:
REMARK  status: ('A' for Active; 'I' for Inactive)
REMARK    1  A    between atoms: C_7  and  C_8 
REMARK    2  A    between atoms: C_8  and  N_9 
REMARK    3  A    between atoms: N_15  and  C_17 
REMARK    4  A    between atoms: C_21  and  C_22 
ROOT
HETATM    1  N   UNL     1      40.861 -10.492   5.732  1.00  0.00    -0.067 N 
HETATM    2  H   UNL     1      40.405  -9.568   5.689  1.00  0.00     0.280 HD
HETATM    3  C   UNL     1      41.587 -10.642   4.426  1.00  0.00     0.236 C 
HETATM    4  C   UNL     1      42.128 -12.064   4.257  1.00  0.00     0.039 C 
HETATM    5  C   UNL     1      41.057 -13.178   4.424  1.00  0.00    -0.013 C 
HETATM    6  C   UNL     1      40.062 -13.230   3.232  1.00  0.00     0.245 C 
HETATM    7  N   UNL     1      40.736 -13.693   1.963  1.00  0.00    -0.065 N 
HETATM    8  H   UNL     1      41.512 -13.068   1.709  1.00  0.00     0.280 HD
HETATM    9  C   UNL     1      41.333 -15.089   2.101  1.00  0.00     0.244 C 
HETATM   10  C   UNL     1      42.360 -15.088   3.240  1.00  0.00     0.045 C 
HETATM   11  C   UNL     1      41.738 -14.573   4.551  1.00  0.00     0.022 C 
HETATM   12  C   UNL     1      40.291 -12.913   5.755  1.00  0.00     0.039 C 
HETATM   13  C   UNL     1      39.760 -11.490   5.917  1.00  0.00     0.236 C 
ENDROOT
BRANCH   7  14
HETATM   14  C   UNL     1      39.785 -13.660   0.797  1.00  0.00     0.188 A 
HETATM   15  C   UNL     1      40.292 -13.032  -0.470  1.00  0.00     0.035 A 
HETATM   16  C   UNL     1      40.129 -14.523  -0.383  1.00  0.00     0.035 A 
ENDBRANCH   7  14
BRANCH  10  17
HETATM   17  C   UNL     1      42.974 -16.463   3.411  1.00  0.00    -0.052 A 
HETATM   18  C   UNL     1      43.630 -16.787   4.610  1.00  0.00     0.007 A 
HETATM   19  C   UNL     1      44.218 -18.041   4.782  1.00  0.00     0.001 A 
HETATM   20  C   UNL     1      44.159 -18.988   3.764  1.00  0.00     0.000 A 
HETATM   21  C   UNL     1      43.510 -18.684   2.571  1.00  0.00     0.001 A 
HETATM   22  C   UNL     1      42.920 -17.431   2.393  1.00  0.00     0.007 A 
ENDBRANCH  10  17
BRANCH   1  23
HETATM   23  C   UNL     1      41.765 -10.335   6.955  1.00  0.00     0.277 C 
BRANCH  23  24
HETATM   24  C   UNL     1      41.514  -9.051   7.651  1.00  0.00     0.011 A 
HETATM   25  C   UNL     1      40.499  -8.716   8.540  1.00  0.00     0.035 A 
HETATM   26  C   UNL     1      39.400  -9.521   9.138  1.00  0.00     0.070 C 
HETATM   27  N   UNL     1      40.699  -7.388   8.851  1.00  0.00    -0.278 N 
HETATM   28  C   UNL     1      39.936  -6.540   9.741  1.00  0.00     0.179 C 
HETATM   29  N   UNL     1      41.751  -6.859   8.207  1.00  0.00    -0.185 NA
HETATM   30  C   UNL     1      42.280  -7.872   7.533  1.00  0.00     0.149 A 
ENDBRANCH  23  24
ENDBRANCH   1  23
TORSDOF 4
ENDMDL
MODEL 7
REMARK VINA RESULT:      -7.8      1.579      4.669
REMARK  4 active torsions:
REMARK  status: ('A' for Active; 'I' for Inactive)
REMARK    1  A    between atoms: C_7  and  C_8 
REMARK    2  A    between atoms: C_8  and  N_9 
REMARK    3  A    between atoms: N_15  and  C_17 
REMARK    4  A    between atoms: C_21  and  C_22 
ROOT
HETATM    1  N   UNL     1      43.047 -11.680   5.705  1.00  0.00    -0.067 N 
HETATM    2  H   UNL     1      43.658 -11.775   6.531  1.00  0.00     0.280 HD
HETATM    3  C   UNL     1      42.242 -12.947   5.652  1.00  0.00     0.236 C 
HETATM    4  C   UNL     1      41.449 -13.042   4.346  1.00  0.00     0.039 C 
HETATM    5  C   UNL     1      42.313 -12.883   3.063  1.00  0.00    -0.013 C 
HETATM    6  C   UNL     1      43.222 -14.115   2.803  1.00  0.00     0.245 C 
HETATM    7  N   UNL     1      42.415 -15.337   2.434  1.00  0.00    -0.065 N 
HETATM    8  H   UNL     1      41.750 -15.578   3.182  1.00  0.00     0.280 HD
HETATM    9  C   UNL     1      41.587 -15.124   1.172  1.00  0.00     0.244 C 
HETATM   10  C   UNL     1      40.634 -13.941   1.387  1.00  0.00     0.045 C 
HETATM   11  C   UNL     1      41.402 -12.677   1.817  1.00  0.00     0.022 C 
HETATM   12  C   UNL     1      43.179 -11.597   3.223  1.00  0.00     0.039 C 
HETATM   13  C   UNL     1      43.962 -11.509   4.531  1.00  0.00     0.236 C 
ENDROOT
BRANCH   7  14
HETATM   14  C   UNL     1      43.297 -16.543   2.265  1.00  0.00     0.188 A 
HETATM   15  C   UNL     1      43.417 -17.463   3.448  1.00  0.00     0.035 A 
HETATM   16  C   UNL     1      42.618 -17.883   2.246  1.00  0.00     0.035 A 
ENDBRANCH   7  14
BRANCH  10  17
HETATM   17  C   UNL     1      39.795 -13.695   0.149  1.00  0.00    -0.052 A 
HETATM   18  C   UNL     1      39.097 -12.484   0.012  1.00  0.00     0.007 A 
HETATM   19  C   UNL     1      38.304 -12.243  -1.112  1.00  0.00     0.001 A 
HETATM   20  C   UNL     1      38.197 -13.205  -2.112  1.00  0.00     0.000 A 
HETATM   21  C   UNL     1      38.885 -14.409  -1.993  1.00  0.00     0.001 A 
HETATM   22  C   UNL     1      39.680 -14.655  -0.872  1.00  0.00     0.007 A 
ENDBRANCH  10  17
BRANCH   1  23
HETATM   23  C   UNL     1      42.248 -10.424   6.053  1.00  0.00     0.277 C 
BRANCH  23  24
HETATM   24  C   UNL     1      42.527  -9.973   7.437  1.00  0.00     0.011 A 
HETATM   25  C   UNL     1      41.692  -9.318   8.334  1.00  0.00     0.035 A 
HETATM   26  C   UNL     1      40.259  -8.925   8.249  1.00  0.00     0.070 C 
HETATM   27  N   UNL     1      42.458  -9.086   9.456  1.00  0.00    -0.278 N 
HETATM   28  C   UNL     1      42.080  -8.445  10.697  1.00  0.00     0.179 C 
HETATM   29  N   UNL     1      43.719  -9.528   9.322  1.00  0.00    -0.185 NA
HETATM   30  C   UNL     1      43.746 -10.117   8.133  1.00  0.00     0.149 A 
ENDBRANCH  23  24
ENDBRANCH   1  23
TORSDOF 4
ENDMDL
MODEL 8
REMARK VINA RESULT:      -7.7     16.738     19.845
REMARK  4 active torsions:
REMARK  status: ('A' for Active; 'I' for Inactive)
REMARK    1  A    between atoms: C_7  and  C_8 
REMARK    2  A    between atoms: C_8  and  N_9 
REMARK    3  A    between atoms: N_15  and  C_17 
REMARK    4  A    between atoms: C_21  and  C_22 
ROOT
HETATM    1  N   UNL     1      44.371 -30.280  -3.686  1.00  0.00    -0.067 N 
HETATM    2  H   UNL     1      43.610 -30.375  -4.376  1.00  0.00     0.280 HD
HETATM    3  C   UNL     1      44.050 -31.260  -2.595  1.00  0.00     0.236 C 
HETATM    4  C   UNL     1      44.978 -31.069  -1.393  1.00  0.00     0.039 C 
HETATM    5  C   UNL     1      45.012 -29.617  -0.837  1.00  0.00    -0.013 C 
HETATM    6  C   UNL     1      43.698 -29.231  -0.104  1.00  0.00     0.245 C 
HETATM    7  N   UNL     1      43.526 -30.006   1.180  1.00  0.00    -0.065 N 
HETATM    8  H   UNL     1      43.510 -31.019   0.999  1.00  0.00     0.280 HD
HETATM    9  C   UNL     1      44.668 -29.762   2.160  1.00  0.00     0.244 C 
HETATM   10  C   UNL     1      45.993 -30.169   1.504  1.00  0.00     0.045 C 
HETATM   11  C   UNL     1      46.195 -29.444   0.160  1.00  0.00     0.022 C 
HETATM   12  C   UNL     1      45.266 -28.651  -2.033  1.00  0.00     0.039 C 
HETATM   13  C   UNL     1      44.340 -28.853  -3.230  1.00  0.00     0.236 C 
ENDROOT
BRANCH   7  14
HETATM   14  C   UNL     1      42.213 -29.686   1.840  1.00  0.00     0.188 A 
HETATM   15  C   UNL     1      41.297 -30.845   2.118  1.00  0.00     0.035 A 
HETATM   16  C   UNL     1      42.024 -30.173   3.248  1.00  0.00     0.035 A 
ENDBRANCH   7  14
BRANCH  10  17
HETATM   17  C   UNL     1      47.155 -29.935   2.449  1.00  0.00    -0.052 A 
HETATM   18  C   UNL     1      47.719 -28.654   2.552  1.00  0.00     0.007 A 
HETATM   19  C   UNL     1      48.802 -28.420   3.402  1.00  0.00     0.001 A 
HETATM   20  C   UNL     1      49.334 -29.459   4.160  1.00  0.00     0.000 A 
HETATM   21  C   UNL     1      48.784 -30.734   4.072  1.00  0.00     0.001 A 
HETATM   22  C   UNL     1      47.701 -30.973   3.223  1.00  0.00     0.007 A 
ENDBRANCH  10  17
BRANCH   1  23
HETATM   23  C   UNL     1      45.599 -30.632  -4.527  1.00  0.00     0.277 C 
BRANCH  23  24
HETATM   24  C   UNL     1      45.210 -31.098  -5.879  1.00  0.00     0.011 A 
HETATM   25  C   UNL     1      45.953 -31.816  -6.810  1.00  0.00     0.035 A 
HETATM   26  C   UNL     1      47.316 -32.409  -6.745  1.00  0.00     0.070 C 
HETATM   27  N   UNL     1      45.141 -31.943  -7.916  1.00  0.00    -0.278 N 
HETATM   28  C   UNL     1      45.415 -32.612  -9.170  1.00  0.00     0.179 C 
HETATM   29  N   UNL     1      43.952 -31.341  -7.759  1.00  0.00    -0.185 NA
HETATM   30  C   UNL     1      43.967 -30.885  -6.512  1.00  0.00     0.149 A 
ENDBRANCH  23  24
ENDBRANCH   1  23
TORSDOF 4
ENDMDL
MODEL 9
REMARK VINA RESULT:      -7.7     16.712     18.881
REMARK  4 active torsions:
REMARK  status: ('A' for Active; 'I' for Inactive)
REMARK    1  A    between atoms: C_7  and  C_8 
REMARK    2  A    between atoms: C_8  and  N_9 
REMARK    3  A    between atoms: N_15  and  C_17 
REMARK    4  A    between atoms: C_21  and  C_22 
ROOT
HETATM    1  N   UNL     1      41.612 -31.475   4.034  1.00  0.00    -0.067 N 
HETATM    2  H   UNL     1      41.535 -31.682   5.041  1.00  0.00     0.280 HD
HETATM    3  C   UNL     1      42.931 -32.051   3.603  1.00  0.00     0.236 C 
HETATM    4  C   UNL     1      43.280 -31.622   2.176  1.00  0.00     0.039 C 
HETATM    5  C   UNL     1      43.247 -30.085   1.946  1.00  0.00    -0.013 C 
HETATM    6  C   UNL     1      44.431 -29.355   2.639  1.00  0.00     0.245 C 
HETATM    7  N   UNL     1      45.752 -29.695   1.993  1.00  0.00    -0.065 N 
HETATM    8  H   UNL     1      45.930 -30.709   2.031  1.00  0.00     0.280 HD
HETATM    9  C   UNL     1      45.793 -29.305   0.520  1.00  0.00     0.244 C 
HETATM   10  C   UNL     1      44.669 -30.034  -0.227  1.00  0.00     0.045 C 
HETATM   11  C   UNL     1      43.300 -29.762   0.423  1.00  0.00     0.022 C 
HETATM   12  C   UNL     1      41.889 -29.546   2.488  1.00  0.00     0.039 C 
HETATM   13  C   UNL     1      41.547 -29.983   3.911  1.00  0.00     0.236 C 
ENDROOT
BRANCH   7  14
HETATM   14  C   UNL     1      46.898 -29.050   2.722  1.00  0.00     0.188 A 
HETATM   15  C   UNL     1      47.775 -29.957   3.539  1.00  0.00     0.035 A 
HETATM   16  C   UNL     1      48.282 -29.387   2.244  1.00  0.00     0.035 A 
ENDBRANCH   7  14
BRANCH  10  17
HETATM   17  C   UNL     1      44.675 -29.666  -1.698  1.00  0.00    -0.052 A 
HETATM   18  C   UNL     1      44.307 -30.625  -2.655  1.00  0.00     0.007 A 
HETATM   19  C   UNL     1      44.323 -30.314  -4.016  1.00  0.00     0.001 A 
HETATM   20  C   UNL     1      44.705 -29.044  -4.440  1.00  0.00     0.000 A 
HETATM   21  C   UNL     1      45.069 -28.081  -3.503  1.00  0.00     0.001 A 
HETATM   22  C   UNL     1      45.054 -28.387  -2.141  1.00  0.00     0.007 A 
ENDBRANCH  10  17
BRANCH   1  23
HETATM   23  C   UNL     1      40.384 -32.195   3.475  1.00  0.00     0.277 C 
BRANCH  23  24
HETATM   24  C   UNL     1      39.447 -32.581   4.556  1.00  0.00     0.011 A 
HETATM   25  C   UNL     1      38.327 -33.403   4.498  1.00  0.00     0.035 A 
HETATM   26  C   UNL     1      37.746 -34.209   3.391  1.00  0.00     0.070 C 
HETATM   27  N   UNL     1      37.788 -33.389   5.767  1.00  0.00    -0.278 N 
HETATM   28  C   UNL     1      36.620 -34.084   6.264  1.00  0.00     0.179 C 
HETATM   29  N   UNL     1      38.474 -32.603   6.612  1.00  0.00    -0.185 NA
HETATM   30  C   UNL     1      39.507 -32.165   5.903  1.00  0.00     0.149 A 
ENDBRANCH  23  24
ENDBRANCH   1  23
TORSDOF 4
ENDMDL
MODEL 10
REMARK VINA RESULT:      -7.4      2.335      8.631
REMARK  4 active torsions:
REMARK  status: ('A' for Active; 'I' for Inactive)
REMARK    1  A    between atoms: C_7  and  C_8 
REMARK    2  A    between atoms: C_8  and  N_9 
REMARK    3  A    between atoms: N_15  and  C_17 
REMARK    4  A    between atoms: C_21  and  C_22 
ROOT
HETATM    1  N   UNL     1      41.308 -13.940   4.050  1.00  0.00    -0.067 N 
HETATM    2  H   UNL     1      40.921 -14.260   3.149  1.00  0.00     0.280 HD
HETATM    3  C   UNL     1      40.319 -12.943   4.581  1.00  0.00     0.236 C 
HETATM    4  C   UNL     1      40.873 -12.218   5.810  1.00  0.00     0.039 C 
HETATM    5  C   UNL     1      42.261 -11.553   5.586  1.00  0.00    -0.013 C 
HETATM    6  C   UNL     1      42.179 -10.301   4.670  1.00  0.00     0.245 C 
HETATM    7  N   UNL     1      41.442  -9.166   5.340  1.00  0.00    -0.065 N 
HETATM    8  H   UNL     1      40.484  -9.446   5.591  1.00  0.00     0.280 HD
HETATM    9  C   UNL     1      42.115  -8.724   6.634  1.00  0.00     0.244 C 
HETATM   10  C   UNL     1      42.184  -9.914   7.599  1.00  0.00     0.045 C 
HETATM   11  C   UNL     1      42.883 -11.121   6.947  1.00  0.00     0.022 C 
HETATM   12  C   UNL     1      43.209 -12.619   4.959  1.00  0.00     0.039 C 
HETATM   13  C   UNL     1      42.645 -13.341   3.738  1.00  0.00     0.236 C 
ENDROOT
BRANCH   7  14
HETATM   14  C   UNL     1      41.296  -7.989   4.415  1.00  0.00     0.188 A 
HETATM   15  C   UNL     1      39.910  -7.435   4.241  1.00  0.00     0.035 A 
HETATM   16  C   UNL     1      40.929  -6.675   5.042  1.00  0.00     0.035 A 
ENDBRANCH   7  14
BRANCH  10  17
HETATM   17  C   UNL     1      42.853  -9.513   8.900  1.00  0.00    -0.052 A 
HETATM   18  C   UNL     1      43.978 -10.222   9.350  1.00  0.00     0.007 A 
HETATM   19  C   UNL     1      44.599  -9.882  10.553  1.00  0.00     0.001 A 
HETATM   20  C   UNL     1      44.107  -8.830  11.321  1.00  0.00     0.000 A 
HETATM   21  C   UNL     1      42.996  -8.114  10.887  1.00  0.00     0.001 A 
HETATM   22  C   UNL     1      42.372  -8.450   9.684  1.00  0.00     0.007 A 
ENDBRANCH  10  17
BRANCH   1  23
HETATM   23  C   UNL     1      41.386 -15.249   4.836  1.00  0.00     0.277 C 
BRANCH  23  24
HETATM   24  C   UNL     1      42.003 -16.328   4.028  1.00  0.00     0.011 A 
HETATM   25  C   UNL     1      43.090 -17.140   4.328  1.00  0.00     0.035 A 
HETATM   26  C   UNL     1      43.932 -17.257   5.549  1.00  0.00     0.070 C 
HETATM   27  N   UNL     1      43.277 -17.937   3.219  1.00  0.00    -0.278 N 
HETATM   28  C   UNL     1      44.267 -18.971   3.001  1.00  0.00     0.179 C 
HETATM   29  N   UNL     1      42.402 -17.671   2.237  1.00  0.00    -0.185 NA
HETATM   30  C   UNL     1      41.596 -16.747   2.744  1.00  0.00     0.149 A 
ENDBRANCH  23  24
ENDBRANCH   1  23
TORSDOF 4
ENDMDL
