MODEL 1
REMARK VINA RESULT:      -9.8      0.000      0.000
REMARK  6 active torsions:
REMARK  status: ('A' for Active; 'I' for Inactive)
REMARK    1  A    between atoms: C_4  and  C_5 
REMARK    2  A    between atoms: C_5  and  N_6 
REMARK    3  A    between atoms: N_10  and  N_11 
REMARK       I    between atoms: N_11  and  C_12 
REMARK    4  A    between atoms: C_12  and  C_13 
REMARK       I    between atoms: C_13  and  N_14 
REMARK    5  A    between atoms: N_14  and  C_15 
REMARK    6  A    between atoms: C_18  and  O_19 
ROOT
HETATM    1  N   UNL     1      43.084 -16.095   3.765  1.00  0.00    -0.307 N 
HETATM    2  C   UNL     1      41.980 -15.413   3.284  1.00  0.00     0.280 A 
HETATM    3  O   UNL     1      41.554 -15.296   2.153  1.00  0.00    -0.265 OA
HETATM    4  C   UNL     1      41.318 -14.784   4.509  1.00  0.00     0.157 A 
HETATM    5  N   UNL     1      40.256 -14.045   4.569  1.00  0.00    -0.165 NA
HETATM    6  C   UNL     1      42.130 -15.177   5.652  1.00  0.00     0.027 A 
HETATM    7  C   UNL     1      43.181 -15.954   5.162  1.00  0.00     0.050 A 
HETATM    8  C   UNL     1      41.968 -14.885   6.992  1.00  0.00     0.016 A 
HETATM    9  C   UNL     1      42.915 -15.406   7.873  1.00  0.00     0.001 A 
HETATM   10  C   UNL     1      43.983 -16.191   7.396  1.00  0.00     0.002 A 
HETATM   11  C   UNL     1      44.122 -16.472   6.030  1.00  0.00     0.031 A 
ENDROOT
BRANCH   5  12
HETATM   12  N   UNL     1      39.629 -13.765   3.390  1.00  0.00    -0.238 N 
HETATM   13  C   UNL     1      39.695 -12.496   2.850  1.00  0.00     0.329 C 
HETATM   14  O   UNL     1      40.238 -11.501   3.318  1.00  0.00    -0.261 OA
HETATM   15  H   UNL     1      39.139 -14.501   2.868  1.00  0.00     0.192 HD
BRANCH  13  16
HETATM   16  C   UNL     1      39.003 -12.386   1.480  1.00  0.00     0.315 C 
HETATM   17  N   UNL     1      39.458 -13.349   0.603  1.00  0.00    -0.319 N 
HETATM   18  H   UNL     1      40.179 -13.955   0.991  1.00  0.00     0.169 HD
HETATM   19  O   UNL     1      38.156 -11.522   1.306  1.00  0.00    -0.262 OA
BRANCH  17  20
HETATM   20  C   UNL     1      39.036 -13.595  -0.713  1.00  0.00     0.035 A 
HETATM   21  C   UNL     1      38.287 -12.690  -1.469  1.00  0.00     0.032 A 
HETATM   22  C   UNL     1      37.891 -13.013  -2.773  1.00  0.00     0.039 A 
HETATM   23  C   UNL     1      38.247 -14.242  -3.315  1.00  0.00     0.065 A 
HETATM   24  C   UNL     1      38.993 -15.152  -2.578  1.00  0.00     0.039 A 
HETATM   25  C   UNL     1      39.388 -14.827  -1.277  1.00  0.00     0.032 A 
BRANCH  23  26
HETATM   26  O   UNL     1      37.878 -14.597  -4.577  1.00  0.00    -0.361 OA
HETATM   27  H   UNL     1      36.907 -14.614  -4.622  1.00  0.00     0.217 HD
ENDBRANCH  23  26
ENDBRANCH  17  20
ENDBRANCH  13  16
ENDBRANCH   5  12
BRANCH   1  28
HETATM   28  C   UNL     1      44.005 -16.820   2.925  1.00  0.00     0.171 C 
BRANCH  28  29
HETATM   29  C   UNL     1      43.917 -18.315   3.114  1.00  0.00    -0.040 A 
HETATM   30  C   UNL     1      44.442 -18.931   4.260  1.00  0.00     0.009 A 
HETATM   31  C   UNL     1      44.348 -20.314   4.427  1.00  0.00     0.001 A 
HETATM   32  C   UNL     1      43.733 -21.098   3.452  1.00  0.00     0.000 A 
HETATM   33  C   UNL     1      43.211 -20.499   2.308  1.00  0.00     0.001 A 
HETATM   34  C   UNL     1      43.304 -19.118   2.139  1.00  0.00     0.009 A 
ENDBRANCH  28  29
ENDBRANCH   1  28
TORSDOF 6
ENDMDL
MODEL 2
REMARK VINA RESULT:      -9.6      2.192      2.568
REMARK  6 active torsions:
REMARK  status: ('A' for Active; 'I' for Inactive)
REMARK    1  A    between atoms: C_4  and  C_5 
REMARK    2  A    between atoms: C_5  and  N_6 
REMARK    3  A    between atoms: N_10  and  N_11 
REMARK       I    between atoms: N_11  and  C_12 
REMARK    4  A    between atoms: C_12  and  C_13 
REMARK       I    between atoms: C_13  and  N_14 
REMARK    5  A    between atoms: N_14  and  C_15 
REMARK    6  A    between atoms: C_18  and  O_19 
ROOT
HETATM    1  N   UNL     1      42.155 -14.210   4.609  1.00  0.00    -0.307 N 
HETATM    2  C   UNL     1      41.821 -13.547   3.442  1.00  0.00     0.280 A 
HETATM    3  O   UNL     1      41.107 -13.883   2.518  1.00  0.00    -0.265 OA
HETATM    4  C   UNL     1      42.546 -12.205   3.509  1.00  0.00     0.157 A 
HETATM    5  N   UNL     1      42.549 -11.239   2.646  1.00  0.00    -0.165 NA
HETATM    6  C   UNL     1      43.270 -12.200   4.772  1.00  0.00     0.027 A 
HETATM    7  C   UNL     1      43.016 -13.422   5.396  1.00  0.00     0.050 A 
HETATM    8  C   UNL     1      44.075 -11.223   5.326  1.00  0.00     0.016 A 
HETATM    9  C   UNL     1      44.645 -11.500   6.568  1.00  0.00     0.001 A 
HETATM   10  C   UNL     1      44.400 -12.729   7.211  1.00  0.00     0.002 A 
HETATM   11  C   UNL     1      43.579 -13.703   6.626  1.00  0.00     0.031 A 
ENDROOT
BRANCH   5  12
HETATM   12  N   UNL     1      41.822 -11.424   1.507  1.00  0.00    -0.238 N 
HETATM   13  C   UNL     1      40.629 -10.753   1.324  1.00  0.00     0.329 C 
HETATM   14  O   UNL     1      40.063  -9.989   2.099  1.00  0.00    -0.261 OA
HETATM   15  H   UNL     1      42.171 -12.028   0.754  1.00  0.00     0.192 HD
BRANCH  13  16
HETATM   16  C   UNL     1      39.990 -11.019  -0.051  1.00  0.00     0.315 C 
HETATM   17  N   UNL     1      39.817 -12.369  -0.277  1.00  0.00    -0.319 N 
HETATM   18  H   UNL     1      40.150 -12.962   0.482  1.00  0.00     0.169 HD
HETATM   19  O   UNL     1      39.698 -10.073  -0.767  1.00  0.00    -0.262 OA
BRANCH  17  20
HETATM   20  C   UNL     1      39.230 -12.995  -1.387  1.00  0.00     0.035 A 
HETATM   21  C   UNL     1      37.900 -12.807  -1.771  1.00  0.00     0.032 A 
HETATM   22  C   UNL     1      37.382 -13.479  -2.886  1.00  0.00     0.039 A 
HETATM   23  C   UNL     1      38.199 -14.336  -3.612  1.00  0.00     0.065 A 
HETATM   24  C   UNL     1      39.524 -14.532  -3.247  1.00  0.00     0.039 A 
HETATM   25  C   UNL     1      40.039 -13.861  -2.135  1.00  0.00     0.032 A 
BRANCH  23  26
HETATM   26  O   UNL     1      37.734 -15.012  -4.700  1.00  0.00    -0.361 OA
HETATM   27  H   UNL     1      37.001 -15.585  -4.417  1.00  0.00     0.217 HD
ENDBRANCH  23  26
ENDBRANCH  17  20
ENDBRANCH  13  16
ENDBRANCH   5  12
BRANCH   1  28
HETATM   28  C   UNL     1      41.692 -15.537   4.937  1.00  0.00     0.171 C 
BRANCH  28  29
HETATM   29  C   UNL     1      42.546 -16.622   4.328  1.00  0.00    -0.040 A 
HETATM   30  C   UNL     1      43.606 -17.197   5.045  1.00  0.00     0.009 A 
HETATM   31  C   UNL     1      44.385 -18.204   4.474  1.00  0.00     0.001 A 
HETATM   32  C   UNL     1      44.118 -18.647   3.179  1.00  0.00     0.000 A 
HETATM   33  C   UNL     1      43.071 -18.083   2.455  1.00  0.00     0.001 A 
HETATM   34  C   UNL     1      42.291 -17.076   3.024  1.00  0.00     0.009 A 
ENDBRANCH  28  29
ENDBRANCH   1  28
TORSDOF 6
ENDMDL
MODEL 3
REMARK VINA RESULT:      -9.5      4.578      8.623
REMARK  6 active torsions:
REMARK  status: ('A' for Active; 'I' for Inactive)
REMARK    1  A    between atoms: C_4  and  C_5 
REMARK    2  A    between atoms: C_5  and  N_6 
REMARK    3  A    between atoms: N_10  and  N_11 
REMARK       I    between atoms: N_11  and  C_12 
REMARK    4  A    between atoms: C_12  and  C_13 
REMARK       I    between atoms: C_13  and  N_14 
REMARK    5  A    between atoms: N_14  and  C_15 
REMARK    6  A    between atoms: C_18  and  O_19 
ROOT
HETATM    1  N   UNL     1      41.286 -14.618   3.741  1.00  0.00    -0.307 N 
HETATM    2  C   UNL     1      41.831 -13.694   4.615  1.00  0.00     0.280 A 
HETATM    3  O   UNL     1      42.175 -13.809   5.774  1.00  0.00    -0.265 OA
HETATM    4  C   UNL     1      41.952 -12.397   3.818  1.00  0.00     0.157 A 
HETATM    5  N   UNL     1      42.402 -11.245   4.205  1.00  0.00    -0.165 NA
HETATM    6  C   UNL     1      41.447 -12.693   2.485  1.00  0.00     0.027 A 
HETATM    7  C   UNL     1      41.051 -14.031   2.484  1.00  0.00     0.050 A 
HETATM    8  C   UNL     1      41.343 -11.874   1.378  1.00  0.00     0.016 A 
HETATM    9  C   UNL     1      40.814 -12.440   0.218  1.00  0.00     0.001 A 
HETATM   10  C   UNL     1      40.408 -13.789   0.200  1.00  0.00     0.002 A 
HETATM   11  C   UNL     1      40.525 -14.597   1.339  1.00  0.00     0.031 A 
ENDROOT
BRANCH   5  12
HETATM   12  N   UNL     1      42.821 -11.147   5.500  1.00  0.00    -0.238 N 
HETATM   13  C   UNL     1      44.170 -11.121   5.796  1.00  0.00     0.329 C 
HETATM   14  O   UNL     1      45.117 -11.216   5.022  1.00  0.00    -0.261 OA
HETATM   15  H   UNL     1      42.144 -11.047   6.264  1.00  0.00     0.192 HD
BRANCH  13  16
HETATM   16  C   UNL     1      44.455 -10.922   7.295  1.00  0.00     0.315 C 
HETATM   17  N   UNL     1      43.596 -10.001   7.857  1.00  0.00    -0.319 N 
HETATM   18  H   UNL     1      42.935  -9.595   7.196  1.00  0.00     0.169 HD
HETATM   19  O   UNL     1      45.349 -11.567   7.823  1.00  0.00    -0.262 OA
BRANCH  17  20
HETATM   20  C   UNL     1      43.518  -9.592   9.197  1.00  0.00     0.035 A 
HETATM   21  C   UNL     1      43.644 -10.462  10.282  1.00  0.00     0.032 A 
HETATM   22  C   UNL     1      43.540  -9.980  11.593  1.00  0.00     0.039 A 
HETATM   23  C   UNL     1      43.310  -8.627  11.812  1.00  0.00     0.065 A 
HETATM   24  C   UNL     1      43.186  -7.748  10.744  1.00  0.00     0.039 A 
HETATM   25  C   UNL     1      43.290  -8.230   9.437  1.00  0.00     0.032 A 
BRANCH  23  26
HETATM   26  O   UNL     1      43.199  -8.118  13.071  1.00  0.00    -0.361 OA
HETATM   27  H   UNL     1      44.053  -8.222  13.523  1.00  0.00     0.217 HD
ENDBRANCH  23  26
ENDBRANCH  17  20
ENDBRANCH  13  16
ENDBRANCH   5  12
BRANCH   1  28
HETATM   28  C   UNL     1      40.985 -15.983   4.104  1.00  0.00     0.171 C 
BRANCH  28  29
HETATM   29  C   UNL     1      42.155 -16.914   3.895  1.00  0.00    -0.040 A 
HETATM   30  C   UNL     1      43.015 -17.244   4.953  1.00  0.00     0.009 A 
HETATM   31  C   UNL     1      44.089 -18.112   4.749  1.00  0.00     0.001 A 
HETATM   32  C   UNL     1      44.319 -18.658   3.488  1.00  0.00     0.000 A 
HETATM   33  C   UNL     1      43.475 -18.336   2.429  1.00  0.00     0.001 A 
HETATM   34  C   UNL     1      42.401 -17.469   2.629  1.00  0.00     0.009 A 
ENDBRANCH  28  29
ENDBRANCH   1  28
TORSDOF 6
ENDMDL
MODEL 4
REMARK VINA RESULT:      -9.5      4.434      9.022
REMARK  6 active torsions:
REMARK  status: ('A' for Active; 'I' for Inactive)
REMARK    1  A    between atoms: C_4  and  C_5 
REMARK    2  A    between atoms: C_5  and  N_6 
REMARK    3  A    between atoms: N_10  and  N_11 
REMARK       I    between atoms: N_11  and  C_12 
REMARK    4  A    between atoms: C_12  and  C_13 
REMARK       I    between atoms: C_13  and  N_14 
REMARK    5  A    between atoms: N_14  and  C_15 
REMARK    6  A    between atoms: C_18  and  O_19 
ROOT
HETATM    1  N   UNL     1      40.994 -15.082   3.545  1.00  0.00    -0.307 N 
HETATM    2  C   UNL     1      41.389 -14.297   4.614  1.00  0.00     0.280 A 
HETATM    3  O   UNL     1      40.886 -13.299   5.090  1.00  0.00    -0.265 OA
HETATM    4  C   UNL     1      42.663 -14.945   5.153  1.00  0.00     0.157 A 
HETATM    5  N   UNL     1      43.407 -14.572   6.145  1.00  0.00    -0.165 NA
HETATM    6  C   UNL     1      42.908 -16.110   4.315  1.00  0.00     0.027 A 
HETATM    7  C   UNL     1      41.891 -16.151   3.360  1.00  0.00     0.050 A 
HETATM    8  C   UNL     1      43.922 -17.046   4.378  1.00  0.00     0.016 A 
HETATM    9  C   UNL     1      43.900 -18.069   3.431  1.00  0.00     0.001 A 
HETATM   10  C   UNL     1      42.882 -18.125   2.460  1.00  0.00     0.002 A 
HETATM   11  C   UNL     1      41.865 -17.161   2.419  1.00  0.00     0.031 A 
ENDROOT
BRANCH   5  12
HETATM   12  N   UNL     1      43.031 -13.442   6.810  1.00  0.00    -0.238 N 
HETATM   13  C   UNL     1      43.907 -12.382   6.935  1.00  0.00     0.329 C 
HETATM   14  O   UNL     1      45.067 -12.309   6.543  1.00  0.00    -0.261 OA
HETATM   15  H   UNL     1      42.081 -13.346   7.188  1.00  0.00     0.192 HD
BRANCH  13  16
HETATM   16  C   UNL     1      43.286 -11.163   7.640  1.00  0.00     0.315 C 
HETATM   17  N   UNL     1      43.815 -10.982   8.901  1.00  0.00    -0.319 N 
HETATM   18  H   UNL     1      44.508 -11.682   9.164  1.00  0.00     0.169 HD
HETATM   19  O   UNL     1      42.444 -10.499   7.054  1.00  0.00    -0.262 OA
BRANCH  17  20
HETATM   20  C   UNL     1      43.535  -9.960   9.821  1.00  0.00     0.035 A 
HETATM   21  C   UNL     1      43.431  -8.611   9.476  1.00  0.00     0.032 A 
HETATM   22  C   UNL     1      43.162  -7.647  10.455  1.00  0.00     0.039 A 
HETATM   23  C   UNL     1      42.998  -8.039  11.778  1.00  0.00     0.065 A 
HETATM   24  C   UNL     1      43.095  -9.376  12.138  1.00  0.00     0.039 A 
HETATM   25  C   UNL     1      43.363 -10.336  11.160  1.00  0.00     0.032 A 
BRANCH  23  26
HETATM   26  O   UNL     1      42.739  -7.132  12.762  1.00  0.00    -0.361 OA
HETATM   27  H   UNL     1      41.803  -7.206  13.012  1.00  0.00     0.217 HD
ENDBRANCH  23  26
ENDBRANCH  17  20
ENDBRANCH  13  16
ENDBRANCH   5  12
BRANCH   1  28
HETATM   28  C   UNL     1      39.833 -14.806   2.735  1.00  0.00     0.171 C 
BRANCH  28  29
HETATM   29  C   UNL     1      40.166 -14.040   1.477  1.00  0.00    -0.040 A 
HETATM   30  C   UNL     1      40.003 -14.623   0.211  1.00  0.00     0.009 A 
HETATM   31  C   UNL     1      40.309 -13.903  -0.945  1.00  0.00     0.001 A 
HETATM   32  C   UNL     1      40.784 -12.596  -0.852  1.00  0.00     0.000 A 
HETATM   33  C   UNL     1      40.954 -12.007   0.398  1.00  0.00     0.001 A 
HETATM   34  C   UNL     1      40.649 -12.725   1.556  1.00  0.00     0.009 A 
ENDBRANCH  28  29
ENDBRANCH   1  28
TORSDOF 6
ENDMDL
MODEL 5
REMARK VINA RESULT:      -9.3      3.052      5.242
REMARK  6 active torsions:
REMARK  status: ('A' for Active; 'I' for Inactive)
REMARK    1  A    between atoms: C_4  and  C_5 
REMARK    2  A    between atoms: C_5  and  N_6 
REMARK    3  A    between atoms: N_10  and  N_11 
REMARK       I    between atoms: N_11  and  C_12 
REMARK    4  A    between atoms: C_12  and  C_13 
REMARK       I    between atoms: C_13  and  N_14 
REMARK    5  A    between atoms: N_14  and  C_15 
REMARK    6  A    between atoms: C_18  and  O_19 
ROOT
HETATM    1  N   UNL     1      42.216 -14.964   4.879  1.00  0.00    -0.307 N 
HETATM    2  C   UNL     1      41.973 -14.477   3.608  1.00  0.00     0.280 A 
HETATM    3  O   UNL     1      41.496 -13.421   3.243  1.00  0.00    -0.265 OA
HETATM    4  C   UNL     1      42.449 -15.568   2.651  1.00  0.00     0.157 A 
HETATM    5  N   UNL     1      42.425 -15.580   1.356  1.00  0.00    -0.165 NA
HETATM    6  C   UNL     1      42.958 -16.645   3.488  1.00  0.00     0.027 A 
HETATM    7  C   UNL     1      42.792 -16.246   4.815  1.00  0.00     0.050 A 
HETATM    8  C   UNL     1      43.513 -17.858   3.128  1.00  0.00     0.016 A 
HETATM    9  C   UNL     1      43.917 -18.702   4.161  1.00  0.00     0.001 A 
HETATM   10  C   UNL     1      43.756 -18.316   5.506  1.00  0.00     0.002 A 
HETATM   11  C   UNL     1      43.190 -17.079   5.843  1.00  0.00     0.031 A 
ENDROOT
BRANCH   5  12
HETATM   12  N   UNL     1      41.897 -14.486   0.736  1.00  0.00    -0.238 N 
HETATM   13  C   UNL     1      40.609 -14.520   0.239  1.00  0.00     0.329 C 
HETATM   14  O   UNL     1      39.823 -15.462   0.237  1.00  0.00    -0.261 OA
HETATM   15  H   UNL     1      42.430 -13.611   0.669  1.00  0.00     0.192 HD
BRANCH  13  16
HETATM   16  C   UNL     1      40.152 -13.174  -0.349  1.00  0.00     0.315 C 
HETATM   17  N   UNL     1      41.174 -12.544  -1.027  1.00  0.00    -0.319 N 
HETATM   18  H   UNL     1      42.056 -13.054  -1.014  1.00  0.00     0.169 HD
HETATM   19  O   UNL     1      38.995 -12.813  -0.188  1.00  0.00    -0.262 OA
BRANCH  17  20
HETATM   20  C   UNL     1      41.131 -11.330  -1.731  1.00  0.00     0.035 A 
HETATM   21  C   UNL     1      40.711 -11.218  -3.058  1.00  0.00     0.032 A 
HETATM   22  C   UNL     1      40.708  -9.972  -3.698  1.00  0.00     0.039 A 
HETATM   23  C   UNL     1      41.127  -8.843  -3.005  1.00  0.00     0.065 A 
HETATM   24  C   UNL     1      41.544  -8.936  -1.685  1.00  0.00     0.039 A 
HETATM   25  C   UNL     1      41.546 -10.180  -1.048  1.00  0.00     0.032 A 
BRANCH  23  26
HETATM   26  O   UNL     1      41.143  -7.613  -3.592  1.00  0.00    -0.361 OA
HETATM   27  H   UNL     1      41.714  -7.653  -4.377  1.00  0.00     0.217 HD
ENDBRANCH  23  26
ENDBRANCH  17  20
ENDBRANCH  13  16
ENDBRANCH   5  12
BRANCH   1  28
HETATM   28  C   UNL     1      41.891 -14.245   6.088  1.00  0.00     0.171 C 
BRANCH  28  29
HETATM   29  C   UNL     1      42.784 -13.050   6.316  1.00  0.00    -0.040 A 
HETATM   30  C   UNL     1      44.146 -13.211   6.613  1.00  0.00     0.009 A 
HETATM   31  C   UNL     1      44.964 -12.098   6.816  1.00  0.00     0.001 A 
HETATM   32  C   UNL     1      44.433 -10.813   6.728  1.00  0.00     0.000 A 
HETATM   33  C   UNL     1      43.082 -10.639   6.436  1.00  0.00     0.001 A 
HETATM   34  C   UNL     1      42.262 -11.750   6.234  1.00  0.00     0.009 A 
ENDBRANCH  28  29
ENDBRANCH   1  28
TORSDOF 6
ENDMDL
MODEL 6
REMARK VINA RESULT:      -9.1      2.864      5.134
REMARK  6 active torsions:
REMARK  status: ('A' for Active; 'I' for Inactive)
REMARK    1  A    between atoms: C_4  and  C_5 
REMARK    2  A    between atoms: C_5  and  N_6 
REMARK    3  A    between atoms: N_10  and  N_11 
REMARK       I    between atoms: N_11  and  C_12 
REMARK    4  A    between atoms: C_12  and  C_13 
REMARK       I    between atoms: C_13  and  N_14 
REMARK    5  A    between atoms: N_14  and  C_15 
REMARK    6  A    between atoms: C_18  and  O_19 
ROOT
HETATM    1  N   UNL     1      42.612 -13.585   5.225  1.00  0.00    -0.307 N 
HETATM    2  C   UNL     1      42.265 -13.429   3.895  1.00  0.00     0.280 A 
HETATM    3  O   UNL     1      41.782 -12.480   3.310  1.00  0.00    -0.265 OA
HETATM    4  C   UNL     1      42.627 -14.748   3.217  1.00  0.00     0.157 A 
HETATM    5  N   UNL     1      42.486 -15.090   1.975  1.00  0.00    -0.165 NA
HETATM    6  C   UNL     1      43.185 -15.598   4.259  1.00  0.00     0.027 A 
HETATM    7  C   UNL     1      43.149 -14.866   5.448  1.00  0.00     0.050 A 
HETATM    8  C   UNL     1      43.676 -16.886   4.181  1.00  0.00     0.016 A 
HETATM    9  C   UNL     1      44.153 -17.456   5.361  1.00  0.00     0.001 A 
HETATM   10  C   UNL     1      44.124 -16.732   6.569  1.00  0.00     0.002 A 
HETATM   11  C   UNL     1      43.620 -15.425   6.620  1.00  0.00     0.031 A 
ENDROOT
BRANCH   5  12
HETATM   12  N   UNL     1      41.929 -14.167   1.139  1.00  0.00    -0.238 N 
HETATM   13  C   UNL     1      40.689 -14.396   0.576  1.00  0.00     0.329 C 
HETATM   14  O   UNL     1      39.976 -15.388   0.691  1.00  0.00    -0.261 OA
HETATM   15  H   UNL     1      42.401 -13.275   0.952  1.00  0.00     0.192 HD
BRANCH  13  16
HETATM   16  C   UNL     1      40.182 -13.214  -0.270  1.00  0.00     0.315 C 
HETATM   17  N   UNL     1      38.809 -13.234  -0.398  1.00  0.00    -0.319 N 
HETATM   18  H   UNL     1      38.361 -14.024   0.065  1.00  0.00     0.169 HD
HETATM   19  O   UNL     1      40.987 -12.407  -0.712  1.00  0.00    -0.262 OA
BRANCH  17  20
HETATM   20  C   UNL     1      37.984 -12.306  -1.052  1.00  0.00     0.035 A 
HETATM   21  C   UNL     1      37.514 -12.469  -2.357  1.00  0.00     0.032 A 
HETATM   22  C   UNL     1      36.705 -11.490  -2.947  1.00  0.00     0.039 A 
HETATM   23  C   UNL     1      36.369 -10.351  -2.226  1.00  0.00     0.065 A 
HETATM   24  C   UNL     1      36.825 -10.174  -0.927  1.00  0.00     0.039 A 
HETATM   25  C   UNL     1      37.632 -11.152  -0.340  1.00  0.00     0.032 A 
BRANCH  23  26
HETATM   26  O   UNL     1      35.588  -9.373  -2.764  1.00  0.00    -0.361 OA
HETATM   27  H   UNL     1      34.792  -9.785  -3.140  1.00  0.00     0.217 HD
ENDBRANCH  23  26
ENDBRANCH  17  20
ENDBRANCH  13  16
ENDBRANCH   5  12
BRANCH   1  28
HETATM   28  C   UNL     1      42.414 -12.567   6.229  1.00  0.00     0.171 C 
BRANCH  28  29
HETATM   29  C   UNL     1      43.704 -11.913   6.661  1.00  0.00    -0.040 A 
HETATM   30  C   UNL     1      43.852 -11.393   7.956  1.00  0.00     0.009 A 
HETATM   31  C   UNL     1      45.052 -10.796   8.346  1.00  0.00     0.001 A 
HETATM   32  C   UNL     1      46.116 -10.708   7.449  1.00  0.00     0.000 A 
HETATM   33  C   UNL     1      45.980 -11.217   6.161  1.00  0.00     0.001 A 
HETATM   34  C   UNL     1      44.782 -11.814   5.768  1.00  0.00     0.009 A 
ENDBRANCH  28  29
ENDBRANCH   1  28
TORSDOF 6
ENDMDL
MODEL 7
REMARK VINA RESULT:      -8.9      2.582      5.357
REMARK  6 active torsions:
REMARK  status: ('A' for Active; 'I' for Inactive)
REMARK    1  A    between atoms: C_4  and  C_5 
REMARK    2  A    between atoms: C_5  and  N_6 
REMARK    3  A    between atoms: N_10  and  N_11 
REMARK       I    between atoms: N_11  and  C_12 
REMARK    4  A    between atoms: C_12  and  C_13 
REMARK       I    between atoms: C_13  and  N_14 
REMARK    5  A    between atoms: N_14  and  C_15 
REMARK    6  A    between atoms: C_18  and  O_19 
ROOT
HETATM    1  N   UNL     1      42.052 -15.029   4.622  1.00  0.00    -0.307 N 
HETATM    2  C   UNL     1      41.627 -14.496   3.418  1.00  0.00     0.280 A 
HETATM    3  O   UNL     1      41.002 -13.482   3.179  1.00  0.00    -0.265 OA
HETATM    4  C   UNL     1      42.119 -15.463   2.343  1.00  0.00     0.157 A 
HETATM    5  N   UNL     1      41.964 -15.398   1.059  1.00  0.00    -0.165 NA
HETATM    6  C   UNL     1      42.826 -16.523   3.047  1.00  0.00     0.027 A 
HETATM    7  C   UNL     1      42.755 -16.229   4.410  1.00  0.00     0.050 A 
HETATM    8  C   UNL     1      43.470 -17.639   2.548  1.00  0.00     0.016 A 
HETATM    9  C   UNL     1      44.069 -18.493   3.474  1.00  0.00     0.001 A 
HETATM   10  C   UNL     1      44.005 -18.212   4.853  1.00  0.00     0.002 A 
HETATM   11  C   UNL     1      43.345 -17.072   5.332  1.00  0.00     0.031 A 
ENDROOT
BRANCH   5  12
HETATM   12  N   UNL     1      41.258 -14.336   0.574  1.00  0.00    -0.238 N 
HETATM   13  C   UNL     1      40.033 -14.532  -0.033  1.00  0.00     0.329 C 
HETATM   14  O   UNL     1      39.458 -15.593  -0.251  1.00  0.00    -0.261 OA
HETATM   15  H   UNL     1      41.604 -13.377   0.692  1.00  0.00     0.192 HD
BRANCH  13  16
HETATM   16  C   UNL     1      39.344 -13.218  -0.442  1.00  0.00     0.315 C 
HETATM   17  N   UNL     1      39.027 -12.448   0.658  1.00  0.00    -0.319 N 
HETATM   18  H   UNL     1      39.279 -12.874   1.548  1.00  0.00     0.169 HD
HETATM   19  O   UNL     1      39.164 -12.981  -1.627  1.00  0.00    -0.262 OA
BRANCH  17  20
HETATM   20  C   UNL     1      38.438 -11.175   0.686  1.00  0.00     0.035 A 
HETATM   21  C   UNL     1      39.165  -9.984   0.733  1.00  0.00     0.032 A 
HETATM   22  C   UNL     1      38.504  -8.750   0.771  1.00  0.00     0.039 A 
HETATM   23  C   UNL     1      37.115  -8.714   0.764  1.00  0.00     0.065 A 
HETATM   24  C   UNL     1      36.377  -9.888   0.714  1.00  0.00     0.039 A 
HETATM   25  C   UNL     1      37.038 -11.118   0.675  1.00  0.00     0.032 A 
BRANCH  23  26
HETATM   26  O   UNL     1      36.433  -7.535   0.805  1.00  0.00    -0.361 OA
HETATM   27  H   UNL     1      36.791  -6.947   0.120  1.00  0.00     0.217 HD
ENDBRANCH  23  26
ENDBRANCH  17  20
ENDBRANCH  13  16
ENDBRANCH   5  12
BRANCH   1  28
HETATM   28  C   UNL     1      41.775 -14.429   5.905  1.00  0.00     0.171 C 
BRANCH  28  29
HETATM   29  C   UNL     1      42.647 -13.230   6.190  1.00  0.00    -0.040 A 
HETATM   30  C   UNL     1      43.999 -13.384   6.533  1.00  0.00     0.009 A 
HETATM   31  C   UNL     1      44.797 -12.268   6.788  1.00  0.00     0.001 A 
HETATM   32  C   UNL     1      44.255 -10.986   6.708  1.00  0.00     0.000 A 
HETATM   33  C   UNL     1      42.914 -10.820   6.372  1.00  0.00     0.001 A 
HETATM   34  C   UNL     1      42.114 -11.934   6.117  1.00  0.00     0.009 A 
ENDBRANCH  28  29
ENDBRANCH   1  28
TORSDOF 6
ENDMDL
MODEL 8
REMARK VINA RESULT:      -8.8      5.479      9.678
REMARK  6 active torsions:
REMARK  status: ('A' for Active; 'I' for Inactive)
REMARK    1  A    between atoms: C_4  and  C_5 
REMARK    2  A    between atoms: C_5  and  N_6 
REMARK    3  A    between atoms: N_10  and  N_11 
REMARK       I    between atoms: N_11  and  C_12 
REMARK    4  A    between atoms: C_12  and  C_13 
REMARK       I    between atoms: C_13  and  N_14 
REMARK    5  A    between atoms: N_14  and  C_15 
REMARK    6  A    between atoms: C_18  and  O_19 
ROOT
HETATM    1  N   UNL     1      43.419  -9.038   8.251  1.00  0.00    -0.307 N 
HETATM    2  C   UNL     1      43.481 -10.306   7.699  1.00  0.00     0.280 A 
HETATM    3  O   UNL     1      44.167 -11.264   7.995  1.00  0.00    -0.265 OA
HETATM    4  C   UNL     1      42.456 -10.314   6.568  1.00  0.00     0.157 A 
HETATM    5  N   UNL     1      42.150 -11.274   5.754  1.00  0.00    -0.165 NA
HETATM    6  C   UNL     1      41.853  -8.989   6.561  1.00  0.00     0.027 A 
HETATM    7  C   UNL     1      42.464  -8.254   7.579  1.00  0.00     0.050 A 
HETATM    8  C   UNL     1      40.865  -8.471   5.746  1.00  0.00     0.016 A 
HETATM    9  C   UNL     1      40.481  -7.150   5.975  1.00  0.00     0.001 A 
HETATM   10  C   UNL     1      41.088  -6.395   6.997  1.00  0.00     0.002 A 
HETATM   11  C   UNL     1      42.088  -6.945   7.810  1.00  0.00     0.031 A 
ENDROOT
BRANCH   5  12
HETATM   12  N   UNL     1      42.832 -12.448   5.898  1.00  0.00    -0.238 N 
HETATM   13  C   UNL     1      42.151 -13.648   5.944  1.00  0.00     0.329 C 
HETATM   14  O   UNL     1      40.939 -13.832   5.909  1.00  0.00    -0.261 OA
HETATM   15  H   UNL     1      43.858 -12.458   5.930  1.00  0.00     0.192 HD
BRANCH  13  16
HETATM   16  C   UNL     1      43.084 -14.869   6.024  1.00  0.00     0.315 C 
HETATM   17  N   UNL     1      42.543 -15.964   5.382  1.00  0.00    -0.319 N 
HETATM   18  H   UNL     1      41.622 -15.795   4.981  1.00  0.00     0.169 HD
HETATM   19  O   UNL     1      44.158 -14.764   6.598  1.00  0.00    -0.262 OA
BRANCH  17  20
HETATM   20  C   UNL     1      43.112 -17.234   5.204  1.00  0.00     0.035 A 
HETATM   21  C   UNL     1      43.720 -17.653   4.018  1.00  0.00     0.032 A 
HETATM   22  C   UNL     1      44.254 -18.943   3.912  1.00  0.00     0.039 A 
HETATM   23  C   UNL     1      44.176 -19.810   4.996  1.00  0.00     0.065 A 
HETATM   24  C   UNL     1      43.578 -19.409   6.182  1.00  0.00     0.039 A 
HETATM   25  C   UNL     1      43.047 -18.121   6.286  1.00  0.00     0.032 A 
BRANCH  23  26
HETATM   26  O   UNL     1      44.679 -21.075   4.933  1.00  0.00    -0.361 OA
HETATM   27  H   UNL     1      43.946 -21.704   5.035  1.00  0.00     0.217 HD
ENDBRANCH  23  26
ENDBRANCH  17  20
ENDBRANCH  13  16
ENDBRANCH   5  12
BRANCH   1  28
HETATM   28  C   UNL     1      44.250  -8.601   9.347  1.00  0.00     0.171 C 
BRANCH  28  29
HETATM   29  C   UNL     1      43.598  -8.805  10.693  1.00  0.00    -0.040 A 
HETATM   30  C   UNL     1      43.477 -10.087  11.250  1.00  0.00     0.009 A 
HETATM   31  C   UNL     1      42.877 -10.263  12.499  1.00  0.00     0.001 A 
HETATM   32  C   UNL     1      42.390  -9.164  13.203  1.00  0.00     0.000 A 
HETATM   33  C   UNL     1      42.502  -7.887  12.660  1.00  0.00     0.001 A 
HETATM   34  C   UNL     1      43.099  -7.708  11.412  1.00  0.00     0.009 A 
ENDBRANCH  28  29
ENDBRANCH   1  28
TORSDOF 6
ENDMDL
MODEL 9
REMARK VINA RESULT:      -8.6      2.576      4.909
REMARK  6 active torsions:
REMARK  status: ('A' for Active; 'I' for Inactive)
REMARK    1  A    between atoms: C_4  and  C_5 
REMARK    2  A    between atoms: C_5  and  N_6 
REMARK    3  A    between atoms: N_10  and  N_11 
REMARK       I    between atoms: N_11  and  C_12 
REMARK    4  A    between atoms: C_12  and  C_13 
REMARK       I    between atoms: C_13  and  N_14 
REMARK    5  A    between atoms: N_14  and  C_15 
REMARK    6  A    between atoms: C_18  and  O_19 
ROOT
HETATM    1  N   UNL     1      41.624 -15.129   4.734  1.00  0.00    -0.307 N 
HETATM    2  C   UNL     1      40.872 -14.626   3.688  1.00  0.00     0.280 A 
HETATM    3  O   UNL     1      40.103 -13.686   3.646  1.00  0.00    -0.265 OA
HETATM    4  C   UNL     1      41.196 -15.510   2.486  1.00  0.00     0.157 A 
HETATM    5  N   UNL     1      40.734 -15.440   1.277  1.00  0.00    -0.165 NA
HETATM    6  C   UNL     1      42.158 -16.495   2.957  1.00  0.00     0.027 A 
HETATM    7  C   UNL     1      42.381 -16.236   4.311  1.00  0.00     0.050 A 
HETATM    8  C   UNL     1      42.781 -17.520   2.272  1.00  0.00     0.016 A 
HETATM    9  C   UNL     1      43.670 -18.316   2.994  1.00  0.00     0.001 A 
HETATM   10  C   UNL     1      43.906 -18.070   4.361  1.00  0.00     0.002 A 
HETATM   11  C   UNL     1      43.259 -17.022   5.031  1.00  0.00     0.031 A 
ENDROOT
BRANCH   5  12
HETATM   12  N   UNL     1      39.824 -14.457   1.018  1.00  0.00    -0.238 N 
HETATM   13  C   UNL     1      40.202 -13.319   0.333  1.00  0.00     0.329 C 
HETATM   14  O   UNL     1      41.318 -13.018  -0.077  1.00  0.00    -0.261 OA
HETATM   15  H   UNL     1      38.840 -14.568   1.289  1.00  0.00     0.192 HD
BRANCH  13  16
HETATM   16  C   UNL     1      39.029 -12.361   0.058  1.00  0.00     0.315 C 
HETATM   17  N   UNL     1      38.892 -12.100  -1.289  1.00  0.00    -0.319 N 
HETATM   18  H   UNL     1      39.588 -12.562  -1.873  1.00  0.00     0.169 HD
HETATM   19  O   UNL     1      38.357 -11.956   0.995  1.00  0.00    -0.262 OA
BRANCH  17  20
HETATM   20  C   UNL     1      37.919 -11.317  -1.927  1.00  0.00     0.035 A 
HETATM   21  C   UNL     1      36.824 -11.846  -2.614  1.00  0.00     0.032 A 
HETATM   22  C   UNL     1      35.900 -10.999  -3.238  1.00  0.00     0.039 A 
HETATM   23  C   UNL     1      36.076  -9.622  -3.170  1.00  0.00     0.065 A 
HETATM   24  C   UNL     1      37.157  -9.079  -2.488  1.00  0.00     0.039 A 
HETATM   25  C   UNL     1      38.077  -9.926  -1.867  1.00  0.00     0.032 A 
BRANCH  23  26
HETATM   26  O   UNL     1      35.204  -8.762  -3.767  1.00  0.00    -0.361 OA
HETATM   27  H   UNL     1      35.421  -7.857  -3.486  1.00  0.00     0.217 HD
ENDBRANCH  23  26
ENDBRANCH  17  20
ENDBRANCH  13  16
ENDBRANCH   5  12
BRANCH   1  28
HETATM   28  C   UNL     1      41.597 -14.587   6.072  1.00  0.00     0.171 C 
BRANCH  28  29
HETATM   29  C   UNL     1      42.516 -13.402   6.243  1.00  0.00    -0.040 A 
HETATM   30  C   UNL     1      43.856 -13.576   6.622  1.00  0.00     0.009 A 
HETATM   31  C   UNL     1      44.699 -12.473   6.771  1.00  0.00     0.001 A 
HETATM   32  C   UNL     1      44.215 -11.186   6.546  1.00  0.00     0.000 A 
HETATM   33  C   UNL     1      42.887 -11.000   6.172  1.00  0.00     0.001 A 
HETATM   34  C   UNL     1      42.042 -12.100   6.023  1.00  0.00     0.009 A 
ENDBRANCH  28  29
ENDBRANCH   1  28
TORSDOF 6
ENDMDL
MODEL 10
REMARK VINA RESULT:      -8.5      4.456      8.545
REMARK  6 active torsions:
REMARK  status: ('A' for Active; 'I' for Inactive)
REMARK    1  A    between atoms: C_4  and  C_5 
REMARK    2  A    between atoms: C_5  and  N_6 
REMARK    3  A    between atoms: N_10  and  N_11 
REMARK       I    between atoms: N_11  and  C_12 
REMARK    4  A    between atoms: C_12  and  C_13 
REMARK       I    between atoms: C_13  and  N_14 
REMARK    5  A    between atoms: N_14  and  C_15 
REMARK    6  A    between atoms: C_18  and  O_19 
ROOT
HETATM    1  N   UNL     1      40.410 -14.844   4.077  1.00  0.00    -0.307 N 
HETATM    2  C   UNL     1      40.396 -13.690   4.840  1.00  0.00     0.280 A 
HETATM    3  O   UNL     1      40.475 -13.536   6.043  1.00  0.00    -0.265 OA
HETATM    4  C   UNL     1      40.262 -12.540   3.845  1.00  0.00     0.157 A 
HETATM    5  N   UNL     1      40.200 -11.267   4.077  1.00  0.00    -0.165 NA
HETATM    6  C   UNL     1      40.213 -13.152   2.525  1.00  0.00     0.027 A 
HETATM    7  C   UNL     1      40.296 -14.533   2.710  1.00  0.00     0.050 A 
HETATM    8  C   UNL     1      40.106 -12.562   1.280  1.00  0.00     0.016 A 
HETATM    9  C   UNL     1      40.084 -13.413   0.176  1.00  0.00     0.001 A 
HETATM   10  C   UNL     1      40.165 -14.809   0.344  1.00  0.00     0.002 A 
HETATM   11  C   UNL     1      40.273 -15.381   1.619  1.00  0.00     0.031 A 
ENDROOT
BRANCH   5  12
HETATM   12  N   UNL     1      40.246 -10.873   5.383  1.00  0.00    -0.238 N 
HETATM   13  C   UNL     1      41.387 -10.287   5.895  1.00  0.00     0.329 C 
HETATM   14  O   UNL     1      42.454 -10.085   5.325  1.00  0.00    -0.261 OA
HETATM   15  H   UNL     1      39.422 -10.965   5.988  1.00  0.00     0.192 HD
BRANCH  13  16
HETATM   16  C   UNL     1      41.228  -9.832   7.356  1.00  0.00     0.315 C 
HETATM   17  N   UNL     1      42.450  -9.562   7.938  1.00  0.00    -0.319 N 
HETATM   18  H   UNL     1      43.246  -9.722   7.323  1.00  0.00     0.169 HD
HETATM   19  O   UNL     1      40.108  -9.740   7.835  1.00  0.00    -0.262 OA
BRANCH  17  20
HETATM   20  C   UNL     1      42.708  -9.084   9.232  1.00  0.00     0.035 A 
HETATM   21  C   UNL     1      42.476  -7.766   9.633  1.00  0.00     0.032 A 
HETATM   22  C   UNL     1      42.772  -7.360  10.940  1.00  0.00     0.039 A 
HETATM   23  C   UNL     1      43.300  -8.276  11.841  1.00  0.00     0.065 A 
HETATM   24  C   UNL     1      43.533  -9.590  11.460  1.00  0.00     0.039 A 
HETATM   25  C   UNL     1      43.237  -9.994  10.156  1.00  0.00     0.032 A 
BRANCH  23  26
HETATM   26  O   UNL     1      43.606  -7.921  13.120  1.00  0.00    -0.361 OA
HETATM   27  H   UNL     1      42.943  -8.309  13.716  1.00  0.00     0.217 HD
ENDBRANCH  23  26
ENDBRANCH  17  20
ENDBRANCH  13  16
ENDBRANCH   5  12
BRANCH   1  28
HETATM   28  C   UNL     1      40.503 -16.172   4.636  1.00  0.00     0.171 C 
BRANCH  28  29
HETATM   29  C   UNL     1      41.930 -16.612   4.861  1.00  0.00    -0.040 A 
HETATM   30  C   UNL     1      42.682 -17.182   3.823  1.00  0.00     0.009 A 
HETATM   31  C   UNL     1      44.002 -17.581   4.041  1.00  0.00     0.001 A 
HETATM   32  C   UNL     1      44.585 -17.418   5.296  1.00  0.00     0.000 A 
HETATM   33  C   UNL     1      43.848 -16.857   6.336  1.00  0.00     0.001 A 
HETATM   34  C   UNL     1      42.528 -16.459   6.121  1.00  0.00     0.009 A 
ENDBRANCH  28  29
ENDBRANCH   1  28
TORSDOF 6
ENDMDL
