MODEL 1
REMARK VINA RESULT:      -8.9      0.000      0.000
REMARK  2 active torsions:
REMARK  status: ('A' for Active; 'I' for Inactive)
REMARK    1  A    between atoms: C_4  and  C_5 
REMARK       I    between atoms: C_5  and  N_6 
REMARK    2  A    between atoms: N_6  and  N_7 
ROOT
HETATM    1  N   UNL     1      43.032 -12.655   3.936  1.00  0.00    -0.282 N 
HETATM    2  C   UNL     1      42.610 -13.914   3.875  1.00  0.00     0.127 C 
HETATM    3  C   UNL     1      41.733 -14.327   2.746  1.00  0.00     0.015 A 
HETATM    4  C   UNL     1      40.925 -15.472   2.899  1.00  0.00    -0.042 A 
HETATM    5  C   UNL     1      40.054 -15.875   1.880  1.00  0.00     0.008 A 
HETATM    6  C   UNL     1      40.009 -15.166   0.683  1.00  0.00     0.001 A 
HETATM    7  C   UNL     1      40.828 -14.056   0.502  1.00  0.00     0.001 A 
HETATM    8  C   UNL     1      41.686 -13.638   1.523  1.00  0.00     0.016 A 
HETATM    9  C   UNL     1      40.993 -16.237   4.196  1.00  0.00     0.070 C 
HETATM   10  C   UNL     1      42.425 -16.223   4.756  1.00  0.00     0.035 C 
HETATM   11  C   UNL     1      42.479 -16.810   6.184  1.00  0.00     0.031 C 
HETATM   12  C   UNL     1      43.321 -18.075   6.075  1.00  0.00     0.002 C 
HETATM   13  C   UNL     1      44.296 -17.761   4.957  1.00  0.00     0.002 C 
HETATM   14  C   UNL     1      43.418 -17.064   3.927  1.00  0.00     0.031 C 
HETATM   15  N   UNL     1      42.926 -14.819   4.802  1.00  0.00    -0.365 N 
HETATM   16  H   UNL     1      43.530 -14.540   5.556  1.00  0.00     0.162 HD
HETATM   17  H   UNL     1      42.675 -12.009   3.221  1.00  0.00     0.188 HD
ENDROOT
BRANCH   1  18
HETATM   18  N   UNL     1      43.828 -12.095   4.844  1.00  0.00    -0.264 N 
HETATM   19  C   UNL     1      43.181 -11.289   5.772  1.00  0.00     0.270 C 
HETATM   20  O   UNL     1      41.961 -11.144   5.733  1.00  0.00    -0.266 OA
HETATM   21  H   UNL     1      44.815 -12.305   4.911  1.00  0.00     0.190 HD
BRANCH  19  22
HETATM   22  C   UNL     1      44.016 -10.662   6.826  1.00  0.00     0.033 A 
HETATM   23  C   UNL     1      43.495  -9.728   7.733  1.00  0.00     0.017 A 
HETATM   24  C   UNL     1      44.327  -9.165   8.702  1.00  0.00     0.001 A 
HETATM   25  C   UNL     1      45.672  -9.533   8.773  1.00  0.00     0.000 A 
HETATM   26  C   UNL     1      46.187 -10.475   7.883  1.00  0.00     0.001 A 
HETATM   27  C   UNL     1      45.361 -11.044   6.914  1.00  0.00     0.017 A 
ENDBRANCH  19  22
ENDBRANCH   1  18
TORSDOF 2
ENDMDL
MODEL 2
REMARK VINA RESULT:      -8.8      3.094      7.203
REMARK  2 active torsions:
REMARK  status: ('A' for Active; 'I' for Inactive)
REMARK    1  A    between atoms: C_4  and  C_5 
REMARK       I    between atoms: C_5  and  N_6 
REMARK    2  A    between atoms: N_6  and  N_7 
ROOT
HETATM    1  N   UNL     1      40.686 -16.190   1.555  1.00  0.00    -0.282 N 
HETATM    2  C   UNL     1      41.192 -15.893   2.747  1.00  0.00     0.127 C 
HETATM    3  C   UNL     1      42.221 -16.791   3.338  1.00  0.00     0.015 A 
HETATM    4  C   UNL     1      42.422 -16.765   4.734  1.00  0.00    -0.042 A 
HETATM    5  C   UNL     1      43.350 -17.620   5.339  1.00  0.00     0.008 A 
HETATM    6  C   UNL     1      44.115 -18.481   4.557  1.00  0.00     0.001 A 
HETATM    7  C   UNL     1      43.956 -18.491   3.175  1.00  0.00     0.001 A 
HETATM    8  C   UNL     1      43.018 -17.652   2.567  1.00  0.00     0.016 A 
HETATM    9  C   UNL     1      41.594 -15.820   5.566  1.00  0.00     0.070 C 
HETATM   10  C   UNL     1      41.334 -14.511   4.800  1.00  0.00     0.035 C 
HETATM   11  C   UNL     1      40.313 -13.619   5.538  1.00  0.00     0.031 C 
HETATM   12  C   UNL     1      41.082 -12.366   5.943  1.00  0.00     0.002 C 
HETATM   13  C   UNL     1      42.117 -12.212   4.846  1.00  0.00     0.002 C 
HETATM   14  C   UNL     1      42.595 -13.640   4.627  1.00  0.00     0.031 C 
HETATM   15  N   UNL     1      40.795 -14.829   3.446  1.00  0.00    -0.365 N 
HETATM   16  H   UNL     1      40.110 -14.217   3.037  1.00  0.00     0.162 HD
HETATM   17  H   UNL     1      40.994 -17.071   1.125  1.00  0.00     0.188 HD
ENDROOT
BRANCH   1  18
HETATM   18  N   UNL     1      39.779 -15.516   0.851  1.00  0.00    -0.264 N 
HETATM   19  C   UNL     1      40.258 -14.377   0.216  1.00  0.00     0.270 C 
HETATM   20  O   UNL     1      41.442 -14.060   0.309  1.00  0.00    -0.266 OA
HETATM   21  H   UNL     1      38.834 -15.850   0.715  1.00  0.00     0.190 HD
BRANCH  19  22
HETATM   22  C   UNL     1      39.297 -13.603  -0.606  1.00  0.00     0.033 A 
HETATM   23  C   UNL     1      38.874 -12.316  -0.246  1.00  0.00     0.017 A 
HETATM   24  C   UNL     1      37.963 -11.634  -1.055  1.00  0.00     0.001 A 
HETATM   25  C   UNL     1      37.480 -12.227  -2.223  1.00  0.00     0.000 A 
HETATM   26  C   UNL     1      37.914 -13.500  -2.592  1.00  0.00     0.001 A 
HETATM   27  C   UNL     1      38.825 -14.186  -1.790  1.00  0.00     0.017 A 
ENDBRANCH  19  22
ENDBRANCH   1  18
TORSDOF 2
ENDMDL
MODEL 3
REMARK VINA RESULT:      -8.7      1.531      4.116
REMARK  2 active torsions:
REMARK  status: ('A' for Active; 'I' for Inactive)
REMARK    1  A    between atoms: C_4  and  C_5 
REMARK       I    between atoms: C_5  and  N_6 
REMARK    2  A    between atoms: N_6  and  N_7 
ROOT
HETATM    1  N   UNL     1      42.810 -14.651   6.289  1.00  0.00    -0.282 N 
HETATM    2  C   UNL     1      42.707 -15.299   5.133  1.00  0.00     0.127 C 
HETATM    3  C   UNL     1      43.149 -16.717   5.058  1.00  0.00     0.015 A 
HETATM    4  C   UNL     1      43.477 -17.260   3.799  1.00  0.00    -0.042 A 
HETATM    5  C   UNL     1      43.937 -18.577   3.685  1.00  0.00     0.008 A 
HETATM    6  C   UNL     1      44.036 -19.379   4.818  1.00  0.00     0.001 A 
HETATM    7  C   UNL     1      43.679 -18.871   6.063  1.00  0.00     0.001 A 
HETATM    8  C   UNL     1      43.236 -17.551   6.185  1.00  0.00     0.016 A 
HETATM    9  C   UNL     1      43.355 -16.382   2.580  1.00  0.00     0.070 C 
HETATM   10  C   UNL     1      42.157 -15.428   2.719  1.00  0.00     0.035 C 
HETATM   11  C   UNL     1      42.138 -14.376   1.589  1.00  0.00     0.031 C 
HETATM   12  C   UNL     1      40.875 -14.662   0.785  1.00  0.00     0.002 C 
HETATM   13  C   UNL     1      39.911 -15.212   1.818  1.00  0.00     0.002 C 
HETATM   14  C   UNL     1      40.791 -16.141   2.643  1.00  0.00     0.031 C 
HETATM   15  N   UNL     1      42.240 -14.716   4.028  1.00  0.00    -0.365 N 
HETATM   16  H   UNL     1      41.930 -13.761   4.085  1.00  0.00     0.162 HD
HETATM   17  H   UNL     1      43.252 -15.155   7.067  1.00  0.00     0.188 HD
ENDROOT
BRANCH   1  18
HETATM   18  N   UNL     1      42.458 -13.398   6.568  1.00  0.00    -0.264 N 
HETATM   19  C   UNL     1      43.517 -12.515   6.735  1.00  0.00     0.270 C 
HETATM   20  O   UNL     1      44.678 -12.901   6.610  1.00  0.00    -0.266 OA
HETATM   21  H   UNL     1      41.495 -13.088   6.572  1.00  0.00     0.190 HD
BRANCH  19  22
HETATM   22  C   UNL     1      43.183 -11.099   7.018  1.00  0.00     0.033 A 
HETATM   23  C   UNL     1      42.164 -10.421   6.335  1.00  0.00     0.017 A 
HETATM   24  C   UNL     1      41.896  -9.085   6.638  1.00  0.00     0.001 A 
HETATM   25  C   UNL     1      42.634  -8.426   7.624  1.00  0.00     0.000 A 
HETATM   26  C   UNL     1      43.636  -9.104   8.317  1.00  0.00     0.001 A 
HETATM   27  C   UNL     1      43.908 -10.440   8.021  1.00  0.00     0.017 A 
ENDBRANCH  19  22
ENDBRANCH   1  18
TORSDOF 2
ENDMDL
MODEL 4
REMARK VINA RESULT:      -8.7      1.748      3.866
REMARK  2 active torsions:
REMARK  status: ('A' for Active; 'I' for Inactive)
REMARK    1  A    between atoms: C_4  and  C_5 
REMARK       I    between atoms: C_5  and  N_6 
REMARK    2  A    between atoms: N_6  and  N_7 
ROOT
HETATM    1  N   UNL     1      43.320 -13.943   6.252  1.00  0.00    -0.282 N 
HETATM    2  C   UNL     1      42.811 -14.082   5.033  1.00  0.00     0.127 C 
HETATM    3  C   UNL     1      43.058 -15.346   4.288  1.00  0.00     0.015 A 
HETATM    4  C   UNL     1      42.939 -15.339   2.883  1.00  0.00    -0.042 A 
HETATM    5  C   UNL     1      43.201 -16.494   2.136  1.00  0.00     0.008 A 
HETATM    6  C   UNL     1      43.546 -17.677   2.784  1.00  0.00     0.001 A 
HETATM    7  C   UNL     1      43.630 -17.710   4.172  1.00  0.00     0.001 A 
HETATM    8  C   UNL     1      43.386 -16.556   4.922  1.00  0.00     0.016 A 
HETATM    9  C   UNL     1      42.554 -14.054   2.196  1.00  0.00     0.070 C 
HETATM   10  C   UNL     1      41.560 -13.257   3.058  1.00  0.00     0.035 C 
HETATM   11  C   UNL     1      41.319 -11.845   2.483  1.00  0.00     0.031 C 
HETATM   12  C   UNL     1      39.851 -11.815   2.072  1.00  0.00     0.002 C 
HETATM   13  C   UNL     1      39.184 -12.750   3.062  1.00  0.00     0.002 C 
HETATM   14  C   UNL     1      40.165 -13.910   3.149  1.00  0.00     0.031 C 
HETATM   15  N   UNL     1      42.103 -13.120   4.441  1.00  0.00    -0.365 N 
HETATM   16  H   UNL     1      41.926 -12.272   4.953  1.00  0.00     0.162 HD
HETATM   17  H   UNL     1      43.917 -14.704   6.597  1.00  0.00     0.188 HD
ENDROOT
BRANCH   1  18
HETATM   18  N   UNL     1      43.202 -12.910   7.083  1.00  0.00    -0.264 N 
HETATM   19  C   UNL     1      44.313 -12.079   7.148  1.00  0.00     0.270 C 
HETATM   20  O   UNL     1      45.306 -12.308   6.460  1.00  0.00    -0.266 OA
HETATM   21  H   UNL     1      42.340 -12.692   7.567  1.00  0.00     0.190 HD
BRANCH  19  22
HETATM   22  C   UNL     1      44.227 -10.895   8.036  1.00  0.00     0.033 A 
HETATM   23  C   UNL     1      43.069 -10.109   8.121  1.00  0.00     0.017 A 
HETATM   24  C   UNL     1      43.044  -9.001   8.971  1.00  0.00     0.001 A 
HETATM   25  C   UNL     1      44.165  -8.680   9.739  1.00  0.00     0.000 A 
HETATM   26  C   UNL     1      45.311  -9.471   9.669  1.00  0.00     0.001 A 
HETATM   27  C   UNL     1      45.342 -10.581   8.824  1.00  0.00     0.017 A 
ENDBRANCH  19  22
ENDBRANCH   1  18
TORSDOF 2
ENDMDL
MODEL 5
REMARK VINA RESULT:      -8.7      2.415      7.374
REMARK  2 active torsions:
REMARK  status: ('A' for Active; 'I' for Inactive)
REMARK    1  A    between atoms: C_4  and  C_5 
REMARK       I    between atoms: C_5  and  N_6 
REMARK    2  A    between atoms: N_6  and  N_7 
ROOT
HETATM    1  N   UNL     1      43.178 -15.066   5.442  1.00  0.00    -0.282 N 
HETATM    2  C   UNL     1      42.618 -13.901   5.135  1.00  0.00     0.127 C 
HETATM    3  C   UNL     1      42.931 -12.708   5.967  1.00  0.00     0.015 A 
HETATM    4  C   UNL     1      42.034 -11.620   5.957  1.00  0.00    -0.042 A 
HETATM    5  C   UNL     1      42.267 -10.493   6.755  1.00  0.00     0.008 A 
HETATM    6  C   UNL     1      43.414 -10.422   7.540  1.00  0.00     0.001 A 
HETATM    7  C   UNL     1      44.328 -11.471   7.531  1.00  0.00     0.001 A 
HETATM    8  C   UNL     1      44.093 -12.606   6.750  1.00  0.00     0.016 A 
HETATM    9  C   UNL     1      40.802 -11.707   5.094  1.00  0.00     0.070 C 
HETATM   10  C   UNL     1      41.107 -12.466   3.792  1.00  0.00     0.035 C 
HETATM   11  C   UNL     1      39.818 -12.758   2.993  1.00  0.00     0.031 C 
HETATM   12  C   UNL     1      39.952 -11.967   1.697  1.00  0.00     0.002 C 
HETATM   13  C   UNL     1      41.447 -11.950   1.442  1.00  0.00     0.002 C 
HETATM   14  C   UNL     1      42.024 -11.688   2.827  1.00  0.00     0.031 C 
HETATM   15  N   UNL     1      41.765 -13.765   4.118  1.00  0.00    -0.365 N 
HETATM   16  H   UNL     1      41.566 -14.570   3.550  1.00  0.00     0.162 HD
HETATM   17  H   UNL     1      43.760 -15.094   6.288  1.00  0.00     0.188 HD
ENDROOT
BRANCH   1  18
HETATM   18  N   UNL     1      43.044 -16.236   4.821  1.00  0.00    -0.264 N 
HETATM   19  C   UNL     1      44.085 -17.131   5.026  1.00  0.00     0.270 C 
HETATM   20  O   UNL     1      45.034 -16.832   5.748  1.00  0.00    -0.266 OA
HETATM   21  H   UNL     1      42.209 -16.492   4.309  1.00  0.00     0.190 HD
BRANCH  19  22
HETATM   22  C   UNL     1      43.975 -18.462   4.382  1.00  0.00     0.033 A 
HETATM   23  C   UNL     1      44.074 -19.655   5.112  1.00  0.00     0.017 A 
HETATM   24  C   UNL     1      43.968 -20.882   4.453  1.00  0.00     0.001 A 
HETATM   25  C   UNL     1      43.756 -20.922   3.074  1.00  0.00     0.000 A 
HETATM   26  C   UNL     1      43.638 -19.736   2.349  1.00  0.00     0.001 A 
HETATM   27  C   UNL     1      43.741 -18.508   3.001  1.00  0.00     0.017 A 
ENDBRANCH  19  22
ENDBRANCH   1  18
TORSDOF 2
ENDMDL
MODEL 6
REMARK VINA RESULT:      -8.5      1.726      2.354
REMARK  2 active torsions:
REMARK  status: ('A' for Active; 'I' for Inactive)
REMARK    1  A    between atoms: C_4  and  C_5 
REMARK       I    between atoms: C_5  and  N_6 
REMARK    2  A    between atoms: N_6  and  N_7 
ROOT
HETATM    1  N   UNL     1      41.633 -11.994   3.117  1.00  0.00    -0.282 N 
HETATM    2  C   UNL     1      41.497 -13.132   2.445  1.00  0.00     0.127 C 
HETATM    3  C   UNL     1      40.952 -13.093   1.061  1.00  0.00     0.015 A 
HETATM    4  C   UNL     1      40.382 -14.265   0.524  1.00  0.00    -0.042 A 
HETATM    5  C   UNL     1      39.821 -14.265  -0.758  1.00  0.00     0.008 A 
HETATM    6  C   UNL     1      39.858 -13.110  -1.533  1.00  0.00     0.001 A 
HETATM    7  C   UNL     1      40.452 -11.955  -1.033  1.00  0.00     0.001 A 
HETATM    8  C   UNL     1      40.997 -11.945   0.254  1.00  0.00     0.016 A 
HETATM    9  C   UNL     1      40.358 -15.512   1.371  1.00  0.00     0.070 C 
HETATM   10  C   UNL     1      41.625 -15.599   2.239  1.00  0.00     0.035 C 
HETATM   11  C   UNL     1      41.527 -16.746   3.268  1.00  0.00     0.031 C 
HETATM   12  C   UNL     1      42.615 -17.739   2.879  1.00  0.00     0.002 C 
HETATM   13  C   UNL     1      43.698 -16.865   2.277  1.00  0.00     0.002 C 
HETATM   14  C   UNL     1      42.907 -15.881   1.428  1.00  0.00     0.031 C 
HETATM   15  N   UNL     1      41.810 -14.315   2.975  1.00  0.00    -0.365 N 
HETATM   16  H   UNL     1      42.191 -14.336   3.906  1.00  0.00     0.162 HD
HETATM   17  H   UNL     1      41.293 -11.139   2.658  1.00  0.00     0.188 HD
ENDROOT
BRANCH   1  18
HETATM   18  N   UNL     1      42.111 -11.812   4.346  1.00  0.00    -0.264 N 
HETATM   19  C   UNL     1      43.444 -11.428   4.406  1.00  0.00     0.270 C 
HETATM   20  O   UNL     1      44.095 -11.264   3.375  1.00  0.00    -0.266 OA
HETATM   21  H   UNL     1      41.529 -11.862   5.172  1.00  0.00     0.190 HD
BRANCH  19  22
HETATM   22  C   UNL     1      44.022 -11.182   5.749  1.00  0.00     0.033 A 
HETATM   23  C   UNL     1      43.232 -10.798   6.842  1.00  0.00     0.017 A 
HETATM   24  C   UNL     1      43.830 -10.575   8.084  1.00  0.00     0.001 A 
HETATM   25  C   UNL     1      45.207 -10.739   8.241  1.00  0.00     0.000 A 
HETATM   26  C   UNL     1      45.991 -11.139   7.159  1.00  0.00     0.001 A 
HETATM   27  C   UNL     1      45.401 -11.366   5.916  1.00  0.00     0.017 A 
ENDBRANCH  19  22
ENDBRANCH   1  18
TORSDOF 2
ENDMDL
MODEL 7
REMARK VINA RESULT:      -8.3      3.776      6.796
REMARK  2 active torsions:
REMARK  status: ('A' for Active; 'I' for Inactive)
REMARK    1  A    between atoms: C_4  and  C_5 
REMARK       I    between atoms: C_5  and  N_6 
REMARK    2  A    between atoms: N_6  and  N_7 
ROOT
HETATM    1  N   UNL     1      41.385 -14.656   0.303  1.00  0.00    -0.282 N 
HETATM    2  C   UNL     1      40.861 -13.447   0.477  1.00  0.00     0.127 C 
HETATM    3  C   UNL     1      39.863 -12.945  -0.506  1.00  0.00     0.015 A 
HETATM    4  C   UNL     1      39.652 -11.555  -0.608  1.00  0.00    -0.042 A 
HETATM    5  C   UNL     1      38.753 -11.034  -1.546  1.00  0.00     0.008 A 
HETATM    6  C   UNL     1      38.025 -11.895  -2.363  1.00  0.00     0.001 A 
HETATM    7  C   UNL     1      38.193 -13.271  -2.248  1.00  0.00     0.001 A 
HETATM    8  C   UNL     1      39.103 -13.796  -1.325  1.00  0.00     0.016 A 
HETATM    9  C   UNL     1      40.439 -10.637   0.291  1.00  0.00     0.070 C 
HETATM   10  C   UNL     1      40.655 -11.284   1.669  1.00  0.00     0.035 C 
HETATM   11  C   UNL     1      41.638 -10.463   2.532  1.00  0.00     0.031 C 
HETATM   12  C   UNL     1      40.820  -9.958   3.715  1.00  0.00     0.002 C 
HETATM   13  C   UNL     1      39.787 -11.047   3.926  1.00  0.00     0.002 C 
HETATM   14  C   UNL     1      39.363 -11.393   2.506  1.00  0.00     0.031 C 
HETATM   15  N   UNL     1      41.213 -12.656   1.491  1.00  0.00    -0.365 N 
HETATM   16  H   UNL     1      41.878 -13.003   2.160  1.00  0.00     0.162 HD
HETATM   17  H   UNL     1      41.113 -15.164  -0.547  1.00  0.00     0.188 HD
ENDROOT
BRANCH   1  18
HETATM   18  N   UNL     1      42.270 -15.290   1.069  1.00  0.00    -0.264 N 
HETATM   19  C   UNL     1      41.726 -16.208   1.958  1.00  0.00     0.270 C 
HETATM   20  O   UNL     1      40.513 -16.401   1.992  1.00  0.00    -0.266 OA
HETATM   21  H   UNL     1      43.270 -15.180   0.955  1.00  0.00     0.190 HD
BRANCH  19  22
HETATM   22  C   UNL     1      42.669 -16.965   2.815  1.00  0.00     0.033 A 
HETATM   23  C   UNL     1      43.105 -16.479   4.056  1.00  0.00     0.017 A 
HETATM   24  C   UNL     1      43.999 -17.232   4.821  1.00  0.00     0.001 A 
HETATM   25  C   UNL     1      44.452 -18.469   4.356  1.00  0.00     0.000 A 
HETATM   26  C   UNL     1      44.005 -18.961   3.131  1.00  0.00     0.001 A 
HETATM   27  C   UNL     1      43.111 -18.216   2.363  1.00  0.00     0.017 A 
ENDBRANCH  19  22
ENDBRANCH   1  18
TORSDOF 2
ENDMDL
MODEL 8
REMARK VINA RESULT:      -8.3      4.189      7.257
REMARK  2 active torsions:
REMARK  status: ('A' for Active; 'I' for Inactive)
REMARK    1  A    between atoms: C_4  and  C_5 
REMARK       I    between atoms: C_5  and  N_6 
REMARK    2  A    between atoms: N_6  and  N_7 
ROOT
HETATM    1  N   UNL     1      40.242 -14.087   2.737  1.00  0.00    -0.282 N 
HETATM    2  C   UNL     1      39.764 -13.343   1.745  1.00  0.00     0.127 C 
HETATM    3  C   UNL     1      39.212 -11.997   2.055  1.00  0.00     0.015 A 
HETATM    4  C   UNL     1      38.313 -11.407   1.142  1.00  0.00    -0.042 A 
HETATM    5  C   UNL     1      37.737 -10.159   1.410  1.00  0.00     0.008 A 
HETATM    6  C   UNL     1      38.081  -9.470   2.569  1.00  0.00     0.001 A 
HETATM    7  C   UNL     1      38.996 -10.021   3.461  1.00  0.00     0.001 A 
HETATM    8  C   UNL     1      39.560 -11.274   3.207  1.00  0.00     0.016 A 
HETATM    9  C   UNL     1      37.959 -12.161  -0.114  1.00  0.00     0.070 C 
HETATM   10  C   UNL     1      39.173 -12.951  -0.630  1.00  0.00     0.035 C 
HETATM   11  C   UNL     1      38.781 -13.898  -1.785  1.00  0.00     0.031 C 
HETATM   12  C   UNL     1      39.527 -13.381  -3.009  1.00  0.00     0.002 C 
HETATM   13  C   UNL     1      40.796 -12.787  -2.430  1.00  0.00     0.002 C 
HETATM   14  C   UNL     1      40.295 -12.055  -1.193  1.00  0.00     0.031 C 
HETATM   15  N   UNL     1      39.741 -13.768   0.481  1.00  0.00    -0.365 N 
HETATM   16  H   UNL     1      40.128 -14.673   0.274  1.00  0.00     0.162 HD
HETATM   17  H   UNL     1      40.148 -13.711   3.688  1.00  0.00     0.188 HD
ENDROOT
BRANCH   1  18
HETATM   18  N   UNL     1      40.789 -15.299   2.671  1.00  0.00    -0.264 N 
HETATM   19  C   UNL     1      42.050 -15.405   3.243  1.00  0.00     0.270 C 
HETATM   20  O   UNL     1      42.579 -14.431   3.775  1.00  0.00    -0.266 OA
HETATM   21  H   UNL     1      40.293 -16.105   2.311  1.00  0.00     0.190 HD
BRANCH  19  22
HETATM   22  C   UNL     1      42.695 -16.740   3.224  1.00  0.00     0.033 A 
HETATM   23  C   UNL     1      42.439 -17.678   2.216  1.00  0.00     0.017 A 
HETATM   24  C   UNL     1      43.070 -18.923   2.250  1.00  0.00     0.001 A 
HETATM   25  C   UNL     1      43.961 -19.231   3.281  1.00  0.00     0.000 A 
HETATM   26  C   UNL     1      44.231 -18.291   4.275  1.00  0.00     0.001 A 
HETATM   27  C   UNL     1      43.605 -17.045   4.245  1.00  0.00     0.017 A 
ENDBRANCH  19  22
ENDBRANCH   1  18
TORSDOF 2
ENDMDL
MODEL 9
REMARK VINA RESULT:      -7.9      2.617      6.721
REMARK  2 active torsions:
REMARK  status: ('A' for Active; 'I' for Inactive)
REMARK    1  A    between atoms: C_4  and  C_5 
REMARK       I    between atoms: C_5  and  N_6 
REMARK    2  A    between atoms: N_6  and  N_7 
ROOT
HETATM    1  N   UNL     1      41.387 -14.617   3.859  1.00  0.00    -0.282 N 
HETATM    2  C   UNL     1      41.780 -13.394   4.199  1.00  0.00     0.127 C 
HETATM    3  C   UNL     1      40.924 -12.233   3.832  1.00  0.00     0.015 A 
HETATM    4  C   UNL     1      41.511 -10.953   3.764  1.00  0.00    -0.042 A 
HETATM    5  C   UNL     1      40.755  -9.838   3.384  1.00  0.00     0.008 A 
HETATM    6  C   UNL     1      39.398  -9.980   3.106  1.00  0.00     0.001 A 
HETATM    7  C   UNL     1      38.795 -11.230   3.206  1.00  0.00     0.001 A 
HETATM    8  C   UNL     1      39.549 -12.350   3.568  1.00  0.00     0.016 A 
HETATM    9  C   UNL     1      42.978 -10.813   4.078  1.00  0.00     0.070 C 
HETATM   10  C   UNL     1      43.388 -11.790   5.193  1.00  0.00     0.035 C 
HETATM   11  C   UNL     1      44.920 -11.821   5.382  1.00  0.00     0.031 C 
HETATM   12  C   UNL     1      45.171 -11.274   6.782  1.00  0.00     0.002 C 
HETATM   13  C   UNL     1      43.938 -11.698   7.557  1.00  0.00     0.002 C 
HETATM   14  C   UNL     1      42.808 -11.425   6.575  1.00  0.00     0.031 C 
HETATM   15  N   UNL     1      42.926 -13.164   4.841  1.00  0.00    -0.365 N 
HETATM   16  H   UNL     1      43.495 -13.952   5.099  1.00  0.00     0.162 HD
HETATM   17  H   UNL     1      40.530 -14.692   3.299  1.00  0.00     0.188 HD
ENDROOT
BRANCH   1  18
HETATM   18  N   UNL     1      41.993 -15.777   4.105  1.00  0.00    -0.264 N 
HETATM   19  C   UNL     1      42.272 -16.543   2.981  1.00  0.00     0.270 C 
HETATM   20  O   UNL     1      41.980 -16.136   1.859  1.00  0.00    -0.266 OA
HETATM   21  H   UNL     1      42.306 -16.045   5.029  1.00  0.00     0.190 HD
BRANCH  19  22
HETATM   22  C   UNL     1      42.972 -17.832   3.194  1.00  0.00     0.033 A 
HETATM   23  C   UNL     1      43.679 -18.112   4.372  1.00  0.00     0.017 A 
HETATM   24  C   UNL     1      44.325 -19.342   4.517  1.00  0.00     0.001 A 
HETATM   25  C   UNL     1      44.263 -20.292   3.496  1.00  0.00     0.000 A 
HETATM   26  C   UNL     1      43.546 -20.022   2.332  1.00  0.00     0.001 A 
HETATM   27  C   UNL     1      42.896 -18.798   2.181  1.00  0.00     0.017 A 
ENDBRANCH  19  22
ENDBRANCH   1  18
TORSDOF 2
ENDMDL
MODEL 10
REMARK VINA RESULT:      -7.6     10.971     14.784
REMARK  2 active torsions:
REMARK  status: ('A' for Active; 'I' for Inactive)
REMARK    1  A    between atoms: C_4  and  C_5 
REMARK       I    between atoms: C_5  and  N_6 
REMARK    2  A    between atoms: N_6  and  N_7 
ROOT
HETATM    1  N   UNL     1      40.766  -7.729  18.178  1.00  0.00    -0.282 N 
HETATM    2  C   UNL     1      40.715  -7.445  16.881  1.00  0.00     0.127 C 
HETATM    3  C   UNL     1      39.834  -6.339  16.419  1.00  0.00     0.015 A 
HETATM    4  C   UNL     1      39.418  -6.322  15.072  1.00  0.00    -0.042 A 
HETATM    5  C   UNL     1      38.557  -5.323  14.602  1.00  0.00     0.008 A 
HETATM    6  C   UNL     1      38.134  -4.310  15.457  1.00  0.00     0.001 A 
HETATM    7  C   UNL     1      38.568  -4.290  16.779  1.00  0.00     0.001 A 
HETATM    8  C   UNL     1      39.413  -5.295  17.259  1.00  0.00     0.016 A 
HETATM    9  C   UNL     1      39.892  -7.419  14.155  1.00  0.00     0.070 C 
HETATM   10  C   UNL     1      41.327  -7.839  14.512  1.00  0.00     0.035 C 
HETATM   11  C   UNL     1      41.756  -9.103  13.735  1.00  0.00     0.031 C 
HETATM   12  C   UNL     1      42.898  -8.658  12.828  1.00  0.00     0.002 C 
HETATM   13  C   UNL     1      43.566  -7.546  13.615  1.00  0.00     0.002 C 
HETATM   14  C   UNL     1      42.384  -6.767  14.173  1.00  0.00     0.031 C 
HETATM   15  N   UNL     1      41.409  -8.131  15.973  1.00  0.00    -0.365 N 
HETATM   16  H   UNL     1      42.013  -8.870  16.290  1.00  0.00     0.162 HD
HETATM   17  H   UNL     1      40.138  -7.200  18.796  1.00  0.00     0.188 HD
ENDROOT
BRANCH   1  18
HETATM   18  N   UNL     1      41.494  -8.659  18.792  1.00  0.00    -0.264 N 
HETATM   19  C   UNL     1      41.721  -8.429  20.143  1.00  0.00     0.270 C 
HETATM   20  O   UNL     1      41.251  -7.437  20.696  1.00  0.00    -0.266 OA
HETATM   21  H   UNL     1      41.789  -9.513  18.336  1.00  0.00     0.190 HD
BRANCH  19  22
HETATM   22  C   UNL     1      42.502  -9.448  20.885  1.00  0.00     0.033 A 
HETATM   23  C   UNL     1      42.420 -10.815  20.585  1.00  0.00     0.017 A 
HETATM   24  C   UNL     1      43.175 -11.732  21.320  1.00  0.00     0.001 A 
HETATM   25  C   UNL     1      44.014 -11.290  22.344  1.00  0.00     0.000 A 
HETATM   26  C   UNL     1      44.111  -9.929  22.631  1.00  0.00     0.001 A 
HETATM   27  C   UNL     1      43.362  -9.007  21.900  1.00  0.00     0.017 A 
ENDBRANCH  19  22
ENDBRANCH   1  18
TORSDOF 2
ENDMDL
