MODEL 1
REMARK VINA RESULT:      -8.6      0.000      0.000
REMARK  7 active torsions:
REMARK  status: ('A' for Active; 'I' for Inactive)
REMARK    1  A    between atoms: C_7  and  S_8 
REMARK    2  A    between atoms: S_8  and  C_9 
REMARK    3  A    between atoms: C_9  and  C_10 
REMARK    4  A    between atoms: C_18  and  C_19 
REMARK    5  A    between atoms: C_26  and  C_27 
REMARK    6  A    between atoms: C_27  and  O_28 
REMARK    7  A    between atoms: O_28  and  C_29 
ROOT
HETATM    1  C   UNL     1      39.121 -11.178   6.489  1.00  0.00     0.070 C 
HETATM    2  C   UNL     1      39.988 -12.244   5.867  1.00  0.00     0.037 A 
HETATM    3  N   UNL     1      40.241 -13.352   6.668  1.00  0.00    -0.192 N 
HETATM    4  C   UNL     1      41.108 -14.325   6.334  1.00  0.00     0.726 A 
HETATM    5  N   UNL     1      41.745 -14.272   5.127  1.00  0.00    -0.082 N 
HETATM    6  N   UNL     1      42.635 -15.278   4.998  1.00  0.00    -0.128 NA
HETATM    7  C   UNL     1      42.410 -15.956   6.131  1.00  0.00     0.226 A 
HETATM    8  N   UNL     1      41.498 -15.386   6.986  1.00  0.00    -0.035 NA
HETATM    9  C   UNL     1      41.500 -13.237   4.113  1.00  0.00     0.203 A 
HETATM   10  C   UNL     1      40.555 -12.160   4.637  1.00  0.00     0.070 A 
HETATM   11  H   UNL     1      39.811 -13.381   7.589  1.00  0.00     0.184 HD
ENDROOT
BRANCH   7  12
HETATM   12  S   UNL     1      43.189 -17.463   6.524  1.00  0.00    -0.083 SA
BRANCH  12  13
HETATM   13  C   UNL     1      44.430 -17.587   5.209  1.00  0.00     0.123 C 
BRANCH  13  14
HETATM   14  C   UNL     1      43.953 -18.498   4.100  1.00  0.00    -0.027 A 
HETATM   15  C   UNL     1      44.033 -19.899   4.180  1.00  0.00     0.041 A 
HETATM   16 CL   UNL     1      44.654 -20.708   5.575  1.00  0.00    -0.084 Cl
HETATM   17  C   UNL     1      43.611 -20.697   3.112  1.00  0.00     0.024 A 
HETATM   18  C   UNL     1      43.113 -20.112   1.949  1.00  0.00     0.002 A 
HETATM   19  C   UNL     1      43.036 -18.726   1.850  1.00  0.00     0.001 A 
HETATM   20  C   UNL     1      43.452 -17.925   2.916  1.00  0.00     0.009 A 
ENDBRANCH  13  14
ENDBRANCH  12  13
ENDBRANCH   7  12
BRANCH   9  21
HETATM   21  C   UNL     1      41.003 -13.893   2.825  1.00  0.00    -0.028 A 
HETATM   22  C   UNL     1      41.328 -13.370   1.558  1.00  0.00     0.012 A 
HETATM   23  C   UNL     1      40.843 -13.976   0.398  1.00  0.00     0.043 A 
HETATM   24  C   UNL     1      40.035 -15.100   0.496  1.00  0.00     0.116 A 
HETATM   25  F   UNL     1      39.568 -15.677  -0.620  1.00  0.00    -0.206 F 
HETATM   26  C   UNL     1      39.702 -15.636   1.733  1.00  0.00     0.043 A 
HETATM   27  C   UNL     1      40.185 -15.036   2.896  1.00  0.00     0.012 A 
ENDBRANCH   9  21
BRANCH  10  28
HETATM   28  C   UNL     1      40.365 -11.028   3.707  1.00  0.00     0.294 C 
HETATM   29  O   UNL     1      41.271 -10.275   3.387  1.00  0.00    -0.259 OA
BRANCH  28  30
HETATM   30  O   UNL     1      39.098 -11.019   3.233  1.00  0.00    -0.313 OA
BRANCH  30  31
HETATM   31  C   UNL     1      38.883 -10.466   1.921  1.00  0.00     0.124 C 
HETATM   32  C   UNL     1      38.120 -11.491   1.096  1.00  0.00     0.040 C 
HETATM   33  C   UNL     1      38.073  -9.187   2.097  1.00  0.00     0.040 C 
ENDBRANCH  30  31
ENDBRANCH  28  30
ENDBRANCH  10  28
TORSDOF 7
ENDMDL
MODEL 2
REMARK VINA RESULT:      -8.5      1.438      2.212
REMARK  7 active torsions:
REMARK  status: ('A' for Active; 'I' for Inactive)
REMARK    1  A    between atoms: C_7  and  S_8 
REMARK    2  A    between atoms: S_8  and  C_9 
REMARK    3  A    between atoms: C_9  and  C_10 
REMARK    4  A    between atoms: C_18  and  C_19 
REMARK    5  A    between atoms: C_26  and  C_27 
REMARK    6  A    between atoms: C_27  and  O_28 
REMARK    7  A    between atoms: O_28  and  C_29 
ROOT
HETATM    1  C   UNL     1      38.960 -11.051   6.576  1.00  0.00     0.070 C 
HETATM    2  C   UNL     1      39.886 -12.044   5.919  1.00  0.00     0.037 A 
HETATM    3  N   UNL     1      40.226 -13.148   6.693  1.00  0.00    -0.192 N 
HETATM    4  C   UNL     1      41.150 -14.054   6.325  1.00  0.00     0.726 A 
HETATM    5  N   UNL     1      41.762 -13.934   5.110  1.00  0.00    -0.082 N 
HETATM    6  N   UNL     1      42.716 -14.875   4.946  1.00  0.00    -0.128 NA
HETATM    7  C   UNL     1      42.556 -15.589   6.069  1.00  0.00     0.226 A 
HETATM    8  N   UNL     1      41.622 -15.099   6.949  1.00  0.00    -0.035 NA
HETATM    9  C   UNL     1      41.432 -12.898   4.122  1.00  0.00     0.203 A 
HETATM   10  C   UNL     1      40.426 -11.898   4.682  1.00  0.00     0.070 A 
HETATM   11  H   UNL     1      39.814 -13.224   7.619  1.00  0.00     0.184 HD
ENDROOT
BRANCH   7  12
HETATM   12  S   UNL     1      43.440 -17.047   6.418  1.00  0.00    -0.083 SA
BRANCH  12  13
HETATM   13  C   UNL     1      44.526 -17.172   4.972  1.00  0.00     0.123 C 
BRANCH  13  14
HETATM   14  C   UNL     1      44.148 -18.358   4.113  1.00  0.00    -0.027 A 
HETATM   15  C   UNL     1      43.594 -18.220   2.829  1.00  0.00     0.041 A 
HETATM   16 CL   UNL     1      43.329 -16.676   2.100  1.00  0.00    -0.084 Cl
HETATM   17  C   UNL     1      43.228 -19.349   2.088  1.00  0.00     0.024 A 
HETATM   18  C   UNL     1      43.400 -20.626   2.619  1.00  0.00     0.002 A 
HETATM   19  C   UNL     1      43.938 -20.780   3.894  1.00  0.00     0.001 A 
HETATM   20  C   UNL     1      44.309 -19.655   4.634  1.00  0.00     0.009 A 
ENDBRANCH  13  14
ENDBRANCH  12  13
ENDBRANCH   7  12
BRANCH   9  21
HETATM   21  C   UNL     1      40.958 -13.560   2.827  1.00  0.00    -0.028 A 
HETATM   22  C   UNL     1      40.077 -14.658   2.841  1.00  0.00     0.012 A 
HETATM   23  C   UNL     1      39.677 -15.258   1.645  1.00  0.00     0.043 A 
HETATM   24  C   UNL     1      40.153 -14.768   0.437  1.00  0.00     0.116 A 
HETATM   25  F   UNL     1      39.770 -15.348  -0.709  1.00  0.00    -0.206 F 
HETATM   26  C   UNL     1      41.022 -13.685   0.397  1.00  0.00     0.043 A 
HETATM   27  C   UNL     1      41.423 -13.080   1.589  1.00  0.00     0.012 A 
ENDBRANCH   9  21
BRANCH  10  28
HETATM   28  C   UNL     1      40.144 -10.764   3.778  1.00  0.00     0.294 C 
HETATM   29  O   UNL     1      39.179 -10.736   3.031  1.00  0.00    -0.259 OA
BRANCH  28  30
HETATM   30  O   UNL     1      41.049  -9.776   3.969  1.00  0.00    -0.313 OA
BRANCH  30  31
HETATM   31  C   UNL     1      40.549  -8.481   4.352  1.00  0.00     0.124 C 
HETATM   32  C   UNL     1      41.423  -7.952   5.480  1.00  0.00     0.040 C 
HETATM   33  C   UNL     1      40.632  -7.584   3.123  1.00  0.00     0.040 C 
ENDBRANCH  30  31
ENDBRANCH  28  30
ENDBRANCH  10  28
TORSDOF 7
ENDMDL
MODEL 3
REMARK VINA RESULT:      -8.5      4.214      7.834
REMARK  7 active torsions:
REMARK  status: ('A' for Active; 'I' for Inactive)
REMARK    1  A    between atoms: C_7  and  S_8 
REMARK    2  A    between atoms: S_8  and  C_9 
REMARK    3  A    between atoms: C_9  and  C_10 
REMARK    4  A    between atoms: C_18  and  C_19 
REMARK    5  A    between atoms: C_26  and  C_27 
REMARK    6  A    between atoms: C_27  and  O_28 
REMARK    7  A    between atoms: O_28  and  C_29 
ROOT
HETATM    1  C   UNL     1      39.861 -16.061   1.363  1.00  0.00     0.070 C 
HETATM    2  C   UNL     1      40.513 -15.287   2.482  1.00  0.00     0.037 A 
HETATM    3  N   UNL     1      39.719 -14.314   3.079  1.00  0.00    -0.192 N 
HETATM    4  C   UNL     1      40.181 -13.436   3.987  1.00  0.00     0.726 A 
HETATM    5  N   UNL     1      41.481 -13.517   4.400  1.00  0.00    -0.082 N 
HETATM    6  N   UNL     1      41.792 -12.511   5.244  1.00  0.00    -0.128 NA
HETATM    7  C   UNL     1      40.599 -11.914   5.369  1.00  0.00     0.226 A 
HETATM    8  N   UNL     1      39.595 -12.439   4.592  1.00  0.00    -0.035 NA
HETATM    9  C   UNL     1      42.419 -14.560   3.962  1.00  0.00     0.203 A 
HETATM   10  C   UNL     1      41.799 -15.447   2.887  1.00  0.00     0.070 A 
HETATM   11  H   UNL     1      38.764 -14.210   2.747  1.00  0.00     0.184 HD
ENDROOT
BRANCH   7  12
HETATM   12  S   UNL     1      40.299 -10.573   6.438  1.00  0.00    -0.083 SA
BRANCH  12  13
HETATM   13  C   UNL     1      41.886  -9.699   6.383  1.00  0.00     0.123 C 
BRANCH  13  14
HETATM   14  C   UNL     1      42.590  -9.773   7.719  1.00  0.00    -0.027 A 
HETATM   15  C   UNL     1      43.837 -10.398   7.888  1.00  0.00     0.041 A 
HETATM   16 CL   UNL     1      44.697 -11.110   6.569  1.00  0.00    -0.084 Cl
HETATM   17  C   UNL     1      44.430 -10.470   9.153  1.00  0.00     0.024 A 
HETATM   18  C   UNL     1      43.786  -9.931  10.265  1.00  0.00     0.002 A 
HETATM   19  C   UNL     1      42.546  -9.316  10.117  1.00  0.00     0.001 A 
HETATM   20  C   UNL     1      41.953  -9.238   8.855  1.00  0.00     0.009 A 
ENDBRANCH  13  14
ENDBRANCH  12  13
ENDBRANCH   7  12
BRANCH   9  21
HETATM   21  C   UNL     1      42.909 -15.349   5.177  1.00  0.00    -0.028 A 
HETATM   22  C   UNL     1      42.017 -16.053   6.008  1.00  0.00     0.012 A 
HETATM   23  C   UNL     1      42.489 -16.747   7.124  1.00  0.00     0.043 A 
HETATM   24  C   UNL     1      43.847 -16.741   7.414  1.00  0.00     0.116 A 
HETATM   25  F   UNL     1      44.296 -17.405   8.488  1.00  0.00    -0.206 F 
HETATM   26  C   UNL     1      44.747 -16.056   6.608  1.00  0.00     0.043 A 
HETATM   27  C   UNL     1      44.281 -15.362   5.491  1.00  0.00     0.012 A 
ENDBRANCH   9  21
BRANCH  10  28
HETATM   28  C   UNL     1      42.734 -16.440   2.319  1.00  0.00     0.294 C 
HETATM   29  O   UNL     1      43.570 -16.155   1.477  1.00  0.00    -0.259 OA
BRANCH  28  30
HETATM   30  O   UNL     1      42.565 -17.640   2.920  1.00  0.00    -0.313 OA
BRANCH  30  31
HETATM   31  C   UNL     1      43.679 -18.552   2.907  1.00  0.00     0.124 C 
HETATM   32  C   UNL     1      44.010 -18.914   4.348  1.00  0.00     0.040 C 
HETATM   33  C   UNL     1      43.249 -19.781   2.116  1.00  0.00     0.040 C 
ENDBRANCH  30  31
ENDBRANCH  28  30
ENDBRANCH  10  28
TORSDOF 7
ENDMDL
MODEL 4
REMARK VINA RESULT:      -8.4      3.557      5.062
REMARK  7 active torsions:
REMARK  status: ('A' for Active; 'I' for Inactive)
REMARK    1  A    between atoms: C_7  and  S_8 
REMARK    2  A    between atoms: S_8  and  C_9 
REMARK    3  A    between atoms: C_9  and  C_10 
REMARK    4  A    between atoms: C_18  and  C_19 
REMARK    5  A    between atoms: C_26  and  C_27 
REMARK    6  A    between atoms: C_27  and  O_28 
REMARK    7  A    between atoms: O_28  and  C_29 
ROOT
HETATM    1  C   UNL     1      40.205 -10.699   3.023  1.00  0.00     0.070 C 
HETATM    2  C   UNL     1      40.910 -11.505   4.087  1.00  0.00     0.037 A 
HETATM    3  N   UNL     1      41.060 -12.858   3.810  1.00  0.00    -0.192 N 
HETATM    4  C   UNL     1      41.529 -13.749   4.702  1.00  0.00     0.726 A 
HETATM    5  N   UNL     1      41.938 -13.317   5.932  1.00  0.00    -0.082 N 
HETATM    6  N   UNL     1      42.297 -14.352   6.721  1.00  0.00    -0.128 NA
HETATM    7  C   UNL     1      42.169 -15.374   5.864  1.00  0.00     0.226 A 
HETATM    8  N   UNL     1      41.676 -15.044   4.625  1.00  0.00    -0.035 NA
HETATM    9  C   UNL     1      41.961 -11.906   6.341  1.00  0.00     0.203 A 
HETATM   10  C   UNL     1      41.343 -11.009   5.274  1.00  0.00     0.070 A 
HETATM   11  H   UNL     1      40.715 -13.202   2.917  1.00  0.00     0.184 HD
ENDROOT
BRANCH   7  12
HETATM   12  S   UNL     1      42.599 -17.015   6.252  1.00  0.00    -0.083 SA
BRANCH  12  13
HETATM   13  C   UNL     1      44.098 -17.246   5.258  1.00  0.00     0.123 C 
BRANCH  13  14
HETATM   14  C   UNL     1      43.973 -18.460   4.366  1.00  0.00    -0.027 A 
HETATM   15  C   UNL     1      43.651 -18.371   3.001  1.00  0.00     0.041 A 
HETATM   16 CL   UNL     1      43.403 -16.854   2.210  1.00  0.00    -0.084 Cl
HETATM   17  C   UNL     1      43.513 -19.528   2.226  1.00  0.00     0.024 A 
HETATM   18  C   UNL     1      43.683 -20.786   2.802  1.00  0.00     0.002 A 
HETATM   19  C   UNL     1      43.993 -20.892   4.155  1.00  0.00     0.001 A 
HETATM   20  C   UNL     1      44.137 -19.740   4.930  1.00  0.00     0.009 A 
ENDBRANCH  13  14
ENDBRANCH  12  13
ENDBRANCH   7  12
BRANCH   9  21
HETATM   21  C   UNL     1      43.392 -11.504   6.704  1.00  0.00    -0.028 A 
HETATM   22  C   UNL     1      43.706 -10.951   7.960  1.00  0.00     0.012 A 
HETATM   23  C   UNL     1      45.017 -10.573   8.258  1.00  0.00     0.043 A 
HETATM   24  C   UNL     1      46.014 -10.743   7.306  1.00  0.00     0.116 A 
HETATM   25  F   UNL     1      47.270 -10.375   7.594  1.00  0.00    -0.206 F 
HETATM   26  C   UNL     1      45.730 -11.288   6.061  1.00  0.00     0.043 A 
HETATM   27  C   UNL     1      44.422 -11.670   5.759  1.00  0.00     0.012 A 
ENDBRANCH   9  21
BRANCH  10  28
HETATM   28  C   UNL     1      41.228  -9.592   5.677  1.00  0.00     0.294 C 
HETATM   29  O   UNL     1      41.957  -8.717   5.236  1.00  0.00    -0.259 OA
BRANCH  28  30
HETATM   30  O   UNL     1      40.179  -9.427   6.515  1.00  0.00    -0.313 OA
BRANCH  30  31
HETATM   31  C   UNL     1      40.341  -8.503   7.608  1.00  0.00     0.124 C 
HETATM   32  C   UNL     1      39.114  -7.603   7.651  1.00  0.00     0.040 C 
HETATM   33  C   UNL     1      40.465  -9.327   8.883  1.00  0.00     0.040 C 
ENDBRANCH  30  31
ENDBRANCH  28  30
ENDBRANCH  10  28
TORSDOF 7
ENDMDL
MODEL 5
REMARK VINA RESULT:      -8.4      4.343      7.140
REMARK  7 active torsions:
REMARK  status: ('A' for Active; 'I' for Inactive)
REMARK    1  A    between atoms: C_7  and  S_8 
REMARK    2  A    between atoms: S_8  and  C_9 
REMARK    3  A    between atoms: C_9  and  C_10 
REMARK    4  A    between atoms: C_18  and  C_19 
REMARK    5  A    between atoms: C_26  and  C_27 
REMARK    6  A    between atoms: C_27  and  O_28 
REMARK    7  A    between atoms: O_28  and  C_29 
ROOT
HETATM    1  C   UNL     1      44.079 -11.482   6.144  1.00  0.00     0.070 C 
HETATM    2  C   UNL     1      43.254 -11.990   4.987  1.00  0.00     0.037 A 
HETATM    3  N   UNL     1      43.210 -11.159   3.874  1.00  0.00    -0.192 N 
HETATM    4  C   UNL     1      42.411 -11.381   2.815  1.00  0.00     0.726 A 
HETATM    5  N   UNL     1      41.631 -12.503   2.785  1.00  0.00    -0.082 N 
HETATM    6  N   UNL     1      40.837 -12.519   1.694  1.00  0.00    -0.128 NA
HETATM    7  C   UNL     1      41.262 -11.418   1.060  1.00  0.00     0.226 A 
HETATM    8  N   UNL     1      42.208 -10.682   1.731  1.00  0.00    -0.035 NA
HETATM    9  C   UNL     1      41.649 -13.544   3.822  1.00  0.00     0.203 A 
HETATM   10  C   UNL     1      42.538 -13.143   4.995  1.00  0.00     0.070 A 
HETATM   11  H   UNL     1      43.747 -10.296   3.903  1.00  0.00     0.184 HD
ENDROOT
BRANCH   7  12
HETATM   12  S   UNL     1      40.689 -10.927  -0.508  1.00  0.00    -0.083 SA
BRANCH  12  13
HETATM   13  C   UNL     1      38.955 -11.451  -0.446  1.00  0.00     0.123 C 
BRANCH  13  14
HETATM   14  C   UNL     1      38.705 -12.605  -1.391  1.00  0.00    -0.027 A 
HETATM   15  C   UNL     1      37.711 -12.572  -2.383  1.00  0.00     0.041 A 
HETATM   16 CL   UNL     1      36.705 -11.190  -2.635  1.00  0.00    -0.084 Cl
HETATM   17  C   UNL     1      37.495 -13.680  -3.210  1.00  0.00     0.024 A 
HETATM   18  C   UNL     1      38.260 -14.836  -3.053  1.00  0.00     0.002 A 
HETATM   19  C   UNL     1      39.242 -14.888  -2.068  1.00  0.00     0.001 A 
HETATM   20  C   UNL     1      39.463 -13.782  -1.244  1.00  0.00     0.009 A 
ENDBRANCH  13  14
ENDBRANCH  12  13
ENDBRANCH   7  12
BRANCH   9  21
HETATM   21  C   UNL     1      42.052 -14.880   3.197  1.00  0.00    -0.028 A 
HETATM   22  C   UNL     1      41.286 -16.045   3.391  1.00  0.00     0.012 A 
HETATM   23  C   UNL     1      41.688 -17.258   2.826  1.00  0.00     0.043 A 
HETATM   24  C   UNL     1      42.851 -17.311   2.069  1.00  0.00     0.116 A 
HETATM   25  F   UNL     1      43.235 -18.477   1.532  1.00  0.00    -0.206 F 
HETATM   26  C   UNL     1      43.621 -16.175   1.861  1.00  0.00     0.043 A 
HETATM   27  C   UNL     1      43.224 -14.961   2.421  1.00  0.00     0.012 A 
ENDBRANCH   9  21
BRANCH  10  28
HETATM   28  C   UNL     1      42.503 -14.095   6.124  1.00  0.00     0.294 C 
HETATM   29  O   UNL     1      41.530 -14.225   6.850  1.00  0.00    -0.259 OA
BRANCH  28  30
HETATM   30  O   UNL     1      43.646 -14.817   6.164  1.00  0.00    -0.313 OA
BRANCH  30  31
HETATM   31  C   UNL     1      43.527 -16.239   6.354  1.00  0.00     0.124 C 
HETATM   32  C   UNL     1      44.479 -16.926   5.385  1.00  0.00     0.040 C 
HETATM   33  C   UNL     1      43.905 -16.536   7.800  1.00  0.00     0.040 C 
ENDBRANCH  30  31
ENDBRANCH  28  30
ENDBRANCH  10  28
TORSDOF 7
ENDMDL
MODEL 6
REMARK VINA RESULT:      -8.3      4.590      7.126
REMARK  7 active torsions:
REMARK  status: ('A' for Active; 'I' for Inactive)
REMARK    1  A    between atoms: C_7  and  S_8 
REMARK    2  A    between atoms: S_8  and  C_9 
REMARK    3  A    between atoms: C_9  and  C_10 
REMARK    4  A    between atoms: C_18  and  C_19 
REMARK    5  A    between atoms: C_26  and  C_27 
REMARK    6  A    between atoms: C_27  and  O_28 
REMARK    7  A    between atoms: O_28  and  C_29 
ROOT
HETATM    1  C   UNL     1      38.705 -10.873   2.785  1.00  0.00     0.070 C 
HETATM    2  C   UNL     1      40.048 -11.377   3.252  1.00  0.00     0.037 A 
HETATM    3  N   UNL     1      40.376 -11.072   4.568  1.00  0.00    -0.192 N 
HETATM    4  C   UNL     1      41.586 -11.312   5.104  1.00  0.00     0.726 A 
HETATM    5  N   UNL     1      42.542 -11.937   4.354  1.00  0.00    -0.082 N 
HETATM    6  N   UNL     1      43.713 -12.019   5.020  1.00  0.00    -0.128 NA
HETATM    7  C   UNL     1      43.360 -11.506   6.207  1.00  0.00     0.226 A 
HETATM    8  N   UNL     1      42.071 -11.039   6.285  1.00  0.00    -0.035 NA
HETATM    9  C   UNL     1      42.320 -12.435   2.989  1.00  0.00     0.203 A 
HETATM   10  C   UNL     1      40.939 -12.041   2.473  1.00  0.00     0.070 A 
HETATM   11  H   UNL     1      39.692 -10.563   5.123  1.00  0.00     0.184 HD
ENDROOT
BRANCH   7  12
HETATM   12  S   UNL     1      44.427 -11.431   7.580  1.00  0.00    -0.083 SA
BRANCH  12  13
HETATM   13  C   UNL     1      44.325  -9.677   8.027  1.00  0.00     0.123 C 
BRANCH  13  14
HETATM   14  C   UNL     1      43.900  -9.511   9.469  1.00  0.00    -0.027 A 
HETATM   15  C   UNL     1      43.581  -8.262  10.028  1.00  0.00     0.041 A 
HETATM   16 CL   UNL     1      43.612  -6.803   9.103  1.00  0.00    -0.084 Cl
HETATM   17  C   UNL     1      43.227  -8.157  11.378  1.00  0.00     0.024 A 
HETATM   18  C   UNL     1      43.197  -9.292  12.188  1.00  0.00     0.002 A 
HETATM   19  C   UNL     1      43.519 -10.535  11.652  1.00  0.00     0.001 A 
HETATM   20  C   UNL     1      43.868 -10.644  10.304  1.00  0.00     0.009 A 
ENDBRANCH  13  14
ENDBRANCH  12  13
ENDBRANCH   7  12
BRANCH   9  21
HETATM   21  C   UNL     1      42.563 -13.944   2.951  1.00  0.00    -0.028 A 
HETATM   22  C   UNL     1      43.355 -14.538   1.950  1.00  0.00     0.012 A 
HETATM   23  C   UNL     1      43.544 -15.921   1.926  1.00  0.00     0.043 A 
HETATM   24  C   UNL     1      42.945 -16.714   2.897  1.00  0.00     0.116 A 
HETATM   25  F   UNL     1      43.126 -18.041   2.869  1.00  0.00    -0.206 F 
HETATM   26  C   UNL     1      42.162 -16.151   3.896  1.00  0.00     0.043 A 
HETATM   27  C   UNL     1      41.972 -14.769   3.926  1.00  0.00     0.012 A 
ENDBRANCH   9  21
BRANCH  10  28
HETATM   28  C   UNL     1      40.701 -12.409   1.063  1.00  0.00     0.294 C 
HETATM   29  O   UNL     1      41.291 -11.882   0.132  1.00  0.00    -0.259 OA
BRANCH  28  30
HETATM   30  O   UNL     1      39.821 -13.434   0.988  1.00  0.00    -0.313 OA
BRANCH  30  31
HETATM   31  C   UNL     1      40.206 -14.585   0.213  1.00  0.00     0.124 C 
HETATM   32  C   UNL     1      39.859 -15.831   1.015  1.00  0.00     0.040 C 
HETATM   33  C   UNL     1      39.421 -14.534  -1.092  1.00  0.00     0.040 C 
ENDBRANCH  30  31
ENDBRANCH  28  30
ENDBRANCH  10  28
TORSDOF 7
ENDMDL
MODEL 7
REMARK VINA RESULT:      -8.1      2.995      3.845
REMARK  7 active torsions:
REMARK  status: ('A' for Active; 'I' for Inactive)
REMARK    1  A    between atoms: C_7  and  S_8 
REMARK    2  A    between atoms: S_8  and  C_9 
REMARK    3  A    between atoms: C_9  and  C_10 
REMARK    4  A    between atoms: C_18  and  C_19 
REMARK    5  A    between atoms: C_26  and  C_27 
REMARK    6  A    between atoms: C_27  and  O_28 
REMARK    7  A    between atoms: O_28  and  C_29 
ROOT
HETATM    1  C   UNL     1      40.315  -8.787   2.403  1.00  0.00     0.070 C 
HETATM    2  C   UNL     1      40.586 -10.200   1.949  1.00  0.00     0.037 A 
HETATM    3  N   UNL     1      40.437 -11.180   2.924  1.00  0.00    -0.192 N 
HETATM    4  C   UNL     1      40.777 -12.468   2.737  1.00  0.00     0.726 A 
HETATM    5  N   UNL     1      41.244 -12.870   1.518  1.00  0.00    -0.082 N 
HETATM    6  N   UNL     1      41.613 -14.168   1.538  1.00  0.00    -0.128 NA
HETATM    7  C   UNL     1      41.249 -14.511   2.781  1.00  0.00     0.226 A 
HETATM    8  N   UNL     1      40.756 -13.488   3.552  1.00  0.00    -0.035 NA
HETATM    9  C   UNL     1      41.346 -11.989   0.346  1.00  0.00     0.203 A 
HETATM   10  C   UNL     1      41.000 -10.548   0.704  1.00  0.00     0.070 A 
HETATM   11  H   UNL     1      40.136 -10.887   3.850  1.00  0.00     0.184 HD
ENDROOT
BRANCH   7  12
HETATM   12  S   UNL     1      41.364 -16.131   3.406  1.00  0.00    -0.083 SA
BRANCH  12  13
HETATM   13  C   UNL     1      43.097 -16.535   3.059  1.00  0.00     0.123 C 
BRANCH  13  14
HETATM   14  C   UNL     1      43.355 -18.014   3.243  1.00  0.00    -0.027 A 
HETATM   15  C   UNL     1      43.881 -18.552   4.429  1.00  0.00     0.041 A 
HETATM   16 CL   UNL     1      44.248 -17.570   5.803  1.00  0.00    -0.084 Cl
HETATM   17  C   UNL     1      44.134 -19.924   4.537  1.00  0.00     0.024 A 
HETATM   18  C   UNL     1      43.876 -20.774   3.462  1.00  0.00     0.002 A 
HETATM   19  C   UNL     1      43.364 -20.255   2.276  1.00  0.00     0.001 A 
HETATM   20  C   UNL     1      43.105 -18.887   2.167  1.00  0.00     0.009 A 
ENDBRANCH  13  14
ENDBRANCH  12  13
ENDBRANCH   7  12
BRANCH   9  21
HETATM   21  C   UNL     1      40.485 -12.547  -0.788  1.00  0.00    -0.028 A 
HETATM   22  C   UNL     1      39.100 -12.746  -0.632  1.00  0.00     0.012 A 
HETATM   23  C   UNL     1      38.340 -13.277  -1.676  1.00  0.00     0.043 A 
HETATM   24  C   UNL     1      38.957 -13.610  -2.875  1.00  0.00     0.116 A 
HETATM   25  F   UNL     1      38.226 -14.123  -3.873  1.00  0.00    -0.206 F 
HETATM   26  C   UNL     1      40.321 -13.421  -3.054  1.00  0.00     0.043 A 
HETATM   27  C   UNL     1      41.085 -12.889  -2.014  1.00  0.00     0.012 A 
ENDBRANCH   9  21
BRANCH  10  28
HETATM   28  C   UNL     1      41.200  -9.592  -0.404  1.00  0.00     0.294 C 
HETATM   29  O   UNL     1      42.305  -9.206  -0.754  1.00  0.00    -0.259 OA
BRANCH  28  30
HETATM   30  O   UNL     1      40.016  -9.295  -0.987  1.00  0.00    -0.313 OA
BRANCH  30  31
HETATM   31  C   UNL     1      40.032  -8.948  -2.385  1.00  0.00     0.124 C 
HETATM   32  C   UNL     1      39.051  -9.858  -3.108  1.00  0.00     0.040 C 
HETATM   33  C   UNL     1      39.611  -7.488  -2.493  1.00  0.00     0.040 C 
ENDBRANCH  30  31
ENDBRANCH  28  30
ENDBRANCH  10  28
TORSDOF 7
ENDMDL
MODEL 8
REMARK VINA RESULT:      -7.9      4.332      6.771
REMARK  7 active torsions:
REMARK  status: ('A' for Active; 'I' for Inactive)
REMARK    1  A    between atoms: C_7  and  S_8 
REMARK    2  A    between atoms: S_8  and  C_9 
REMARK    3  A    between atoms: C_9  and  C_10 
REMARK    4  A    between atoms: C_18  and  C_19 
REMARK    5  A    between atoms: C_26  and  C_27 
REMARK    6  A    between atoms: C_27  and  O_28 
REMARK    7  A    between atoms: O_28  and  C_29 
ROOT
HETATM    1  C   UNL     1      38.413 -11.582   2.003  1.00  0.00     0.070 C 
HETATM    2  C   UNL     1      39.721 -12.114   2.534  1.00  0.00     0.037 A 
HETATM    3  N   UNL     1      39.996 -11.809   3.862  1.00  0.00    -0.192 N 
HETATM    4  C   UNL     1      41.174 -12.075   4.455  1.00  0.00     0.726 A 
HETATM    5  N   UNL     1      42.148 -12.726   3.752  1.00  0.00    -0.082 N 
HETATM    6  N   UNL     1      43.285 -12.833   4.472  1.00  0.00    -0.128 NA
HETATM    7  C   UNL     1      42.890 -12.305   5.638  1.00  0.00     0.226 A 
HETATM    8  N   UNL     1      41.610 -11.807   5.656  1.00  0.00    -0.035 NA
HETATM    9  C   UNL     1      41.977 -13.227   2.381  1.00  0.00     0.203 A 
HETATM   10  C   UNL     1      40.631 -12.803   1.800  1.00  0.00     0.070 A 
HETATM   11  H   UNL     1      39.300 -11.282   4.383  1.00  0.00     0.184 HD
ENDROOT
BRANCH   7  12
HETATM   12  S   UNL     1      43.895 -12.248   7.059  1.00  0.00    -0.083 SA
BRANCH  12  13
HETATM   13  C   UNL     1      44.229 -10.471   7.199  1.00  0.00     0.123 C 
BRANCH  13  14
HETATM   14  C   UNL     1      44.107 -10.011   8.635  1.00  0.00    -0.027 A 
HETATM   15  C   UNL     1      42.919  -9.479   9.164  1.00  0.00     0.041 A 
HETATM   16 CL   UNL     1      41.475  -9.337   8.226  1.00  0.00    -0.084 Cl
HETATM   17  C   UNL     1      42.869  -9.034  10.490  1.00  0.00     0.024 A 
HETATM   18  C   UNL     1      44.001  -9.104  11.300  1.00  0.00     0.002 A 
HETATM   19  C   UNL     1      45.188  -9.620  10.788  1.00  0.00     0.001 A 
HETATM   20  C   UNL     1      45.241 -10.069   9.467  1.00  0.00     0.009 A 
ENDBRANCH  13  14
ENDBRANCH  12  13
ENDBRANCH   7  12
BRANCH   9  21
HETATM   21  C   UNL     1      42.186 -14.741   2.361  1.00  0.00    -0.028 A 
HETATM   22  C   UNL     1      41.327 -15.613   3.057  1.00  0.00     0.012 A 
HETATM   23  C   UNL     1      41.553 -16.991   3.041  1.00  0.00     0.043 A 
HETATM   24  C   UNL     1      42.633 -17.502   2.332  1.00  0.00     0.116 A 
HETATM   25  F   UNL     1      42.849 -18.824   2.321  1.00  0.00    -0.206 F 
HETATM   26  C   UNL     1      43.492 -16.663   1.635  1.00  0.00     0.043 A 
HETATM   27  C   UNL     1      43.270 -15.285   1.647  1.00  0.00     0.012 A 
ENDBRANCH   9  21
BRANCH  10  28
HETATM   28  C   UNL     1      40.450 -13.174   0.381  1.00  0.00     0.294 C 
HETATM   29  O   UNL     1      39.762 -14.118   0.027  1.00  0.00    -0.259 OA
BRANCH  28  30
HETATM   30  O   UNL     1      41.080 -12.284  -0.420  1.00  0.00    -0.313 OA
BRANCH  30  31
HETATM   31  C   UNL     1      40.369 -11.819  -1.583  1.00  0.00     0.124 C 
HETATM   32  C   UNL     1      40.269 -10.302  -1.498  1.00  0.00     0.040 C 
HETATM   33  C   UNL     1      41.170 -12.251  -2.804  1.00  0.00     0.040 C 
ENDBRANCH  30  31
ENDBRANCH  28  30
ENDBRANCH  10  28
TORSDOF 7
ENDMDL
MODEL 9
REMARK VINA RESULT:      -7.9      5.042      7.741
REMARK  7 active torsions:
REMARK  status: ('A' for Active; 'I' for Inactive)
REMARK    1  A    between atoms: C_7  and  S_8 
REMARK    2  A    between atoms: S_8  and  C_9 
REMARK    3  A    between atoms: C_9  and  C_10 
REMARK    4  A    between atoms: C_18  and  C_19 
REMARK    5  A    between atoms: C_26  and  C_27 
REMARK    6  A    between atoms: C_27  and  O_28 
REMARK    7  A    between atoms: O_28  and  C_29 
ROOT
HETATM    1  C   UNL     1      39.239 -11.763   4.573  1.00  0.00     0.070 C 
HETATM    2  C   UNL     1      40.645 -12.123   4.986  1.00  0.00     0.037 A 
HETATM    3  N   UNL     1      41.254 -11.239   5.868  1.00  0.00    -0.192 N 
HETATM    4  C   UNL     1      42.549 -11.323   6.225  1.00  0.00     0.726 A 
HETATM    5  N   UNL     1      43.311 -12.353   5.752  1.00  0.00    -0.082 N 
HETATM    6  N   UNL     1      44.597 -12.231   6.142  1.00  0.00    -0.128 NA
HETATM    7  C   UNL     1      44.516 -11.151   6.931  1.00  0.00     0.226 A 
HETATM    8  N   UNL     1      43.281 -10.553   6.984  1.00  0.00    -0.035 NA
HETATM    9  C   UNL     1      42.792 -13.440   4.910  1.00  0.00     0.203 A 
HETATM   10  C   UNL     1      41.338 -13.194   4.520  1.00  0.00     0.070 A 
HETATM   11  H   UNL     1      40.713 -10.440   6.190  1.00  0.00     0.184 HD
ENDROOT
BRANCH   7  12
HETATM   12  S   UNL     1      45.856 -10.526   7.849  1.00  0.00    -0.083 SA
BRANCH  12  13
HETATM   13  C   UNL     1      45.194  -8.941   8.429  1.00  0.00     0.123 C 
BRANCH  13  14
HETATM   14  C   UNL     1      44.406  -9.120   9.707  1.00  0.00    -0.027 A 
HETATM   15  C   UNL     1      43.602  -8.105  10.253  1.00  0.00     0.041 A 
HETATM   16 CL   UNL     1      43.414  -6.567   9.488  1.00  0.00    -0.084 Cl
HETATM   17  C   UNL     1      42.919  -8.309  11.457  1.00  0.00     0.024 A 
HETATM   18  C   UNL     1      43.037  -9.520  12.137  1.00  0.00     0.002 A 
HETATM   19  C   UNL     1      43.837 -10.532  11.615  1.00  0.00     0.001 A 
HETATM   20  C   UNL     1      44.516 -10.335  10.411  1.00  0.00     0.009 A 
ENDBRANCH  13  14
ENDBRANCH  12  13
ENDBRANCH   7  12
BRANCH   9  21
HETATM   21  C   UNL     1      43.002 -14.779   5.618  1.00  0.00    -0.028 A 
HETATM   22  C   UNL     1      43.614 -15.868   4.970  1.00  0.00     0.012 A 
HETATM   23  C   UNL     1      43.774 -17.087   5.632  1.00  0.00     0.043 A 
HETATM   24  C   UNL     1      43.325 -17.222   6.940  1.00  0.00     0.116 A 
HETATM   25  F   UNL     1      43.477 -18.393   7.572  1.00  0.00    -0.206 F 
HETATM   26  C   UNL     1      42.721 -16.161   7.602  1.00  0.00     0.043 A 
HETATM   27  C   UNL     1      42.560 -14.941   6.945  1.00  0.00     0.012 A 
ENDBRANCH   9  21
BRANCH  10  28
HETATM   28  C   UNL     1      40.795 -14.191   3.575  1.00  0.00     0.294 C 
HETATM   29  O   UNL     1      40.147 -15.161   3.936  1.00  0.00    -0.259 OA
BRANCH  28  30
HETATM   30  O   UNL     1      41.059 -13.821   2.301  1.00  0.00    -0.313 OA
BRANCH  30  31
HETATM   31  C   UNL     1      41.171 -14.866   1.316  1.00  0.00     0.124 C 
HETATM   32  C   UNL     1      40.805 -14.277  -0.039  1.00  0.00     0.040 C 
HETATM   33  C   UNL     1      42.614 -15.352   1.334  1.00  0.00     0.040 C 
ENDBRANCH  30  31
ENDBRANCH  28  30
ENDBRANCH  10  28
TORSDOF 7
ENDMDL
MODEL 10
REMARK VINA RESULT:      -7.9      4.026      5.703
REMARK  7 active torsions:
REMARK  status: ('A' for Active; 'I' for Inactive)
REMARK    1  A    between atoms: C_7  and  S_8 
REMARK    2  A    between atoms: S_8  and  C_9 
REMARK    3  A    between atoms: C_9  and  C_10 
REMARK    4  A    between atoms: C_18  and  C_19 
REMARK    5  A    between atoms: C_26  and  C_27 
REMARK    6  A    between atoms: C_27  and  O_28 
REMARK    7  A    between atoms: O_28  and  C_29 
ROOT
HETATM    1  C   UNL     1      38.307 -14.401  -3.238  1.00  0.00     0.070 C 
HETATM    2  C   UNL     1      38.783 -13.772  -1.952  1.00  0.00     0.037 A 
HETATM    3  N   UNL     1      39.421 -14.633  -1.066  1.00  0.00    -0.192 N 
HETATM    4  C   UNL     1      39.777 -14.280   0.182  1.00  0.00     0.726 A 
HETATM    5  N   UNL     1      39.561 -12.999   0.606  1.00  0.00    -0.082 N 
HETATM    6  N   UNL     1      39.900 -12.848   1.904  1.00  0.00    -0.128 NA
HETATM    7  C   UNL     1      40.405 -14.060   2.172  1.00  0.00     0.226 A 
HETATM    8  N   UNL     1      40.322 -14.971   1.147  1.00  0.00    -0.035 NA
HETATM    9  C   UNL     1      39.011 -11.934  -0.244  1.00  0.00     0.203 A 
HETATM   10  C   UNL     1      38.585 -12.475  -1.605  1.00  0.00     0.070 A 
HETATM   11  H   UNL     1      39.545 -15.601  -1.350  1.00  0.00     0.184 HD
ENDROOT
BRANCH   7  12
HETATM   12  S   UNL     1      41.134 -14.485   3.694  1.00  0.00    -0.083 SA
BRANCH  12  13
HETATM   13  C   UNL     1      42.849 -14.806   3.201  1.00  0.00     0.123 C 
BRANCH  13  14
HETATM   14  C   UNL     1      43.211 -16.258   3.419  1.00  0.00    -0.027 A 
HETATM   15  C   UNL     1      43.714 -16.741   4.639  1.00  0.00     0.041 A 
HETATM   16 CL   UNL     1      43.929 -15.720   6.016  1.00  0.00    -0.084 Cl
HETATM   17  C   UNL     1      44.067 -18.088   4.779  1.00  0.00     0.024 A 
HETATM   18  C   UNL     1      43.934 -18.966   3.704  1.00  0.00     0.002 A 
HETATM   19  C   UNL     1      43.447 -18.501   2.486  1.00  0.00     0.001 A 
HETATM   20  C   UNL     1      43.088 -17.159   2.344  1.00  0.00     0.009 A 
ENDBRANCH  13  14
ENDBRANCH  12  13
ENDBRANCH   7  12
BRANCH   9  21
HETATM   21  C   UNL     1      40.020 -10.790  -0.345  1.00  0.00    -0.028 A 
HETATM   22  C   UNL     1      39.827  -9.574   0.338  1.00  0.00     0.012 A 
HETATM   23  C   UNL     1      40.754  -8.537   0.211  1.00  0.00     0.043 A 
HETATM   24  C   UNL     1      41.871  -8.709  -0.595  1.00  0.00     0.116 A 
HETATM   25  F   UNL     1      42.756  -7.711  -0.718  1.00  0.00    -0.206 F 
HETATM   26  C   UNL     1      42.085  -9.899  -1.278  1.00  0.00     0.043 A 
HETATM   27  C   UNL     1      41.163 -10.940  -1.153  1.00  0.00     0.012 A 
ENDBRANCH   9  21
BRANCH  10  28
HETATM   28  C   UNL     1      37.913 -11.477  -2.461  1.00  0.00     0.294 C 
HETATM   29  O   UNL     1      38.469 -10.927  -3.399  1.00  0.00    -0.259 OA
BRANCH  28  30
HETATM   30  O   UNL     1      36.618 -11.341  -2.096  1.00  0.00    -0.313 OA
BRANCH  30  31
HETATM   31  C   UNL     1      35.786 -10.484  -2.901  1.00  0.00     0.124 C 
HETATM   32  C   UNL     1      34.925 -11.366  -3.795  1.00  0.00     0.040 C 
HETATM   33  C   UNL     1      34.929  -9.661  -1.948  1.00  0.00     0.040 C 
ENDBRANCH  30  31
ENDBRANCH  28  30
ENDBRANCH  10  28
TORSDOF 7
ENDMDL
