MODEL 1
REMARK VINA RESULT:      -8.6      0.000      0.000
REMARK  8 active torsions:
REMARK  status: ('A' for Active; 'I' for Inactive)
REMARK    1  A    between atoms: O_2  and  C_3 
REMARK    2  A    between atoms: C_4  and  O_5 
REMARK    3  A    between atoms: C_13  and  C_14 
REMARK    4  A    between atoms: C_14  and  N_15 
REMARK    5  A    between atoms: N_15  and  C_16 
REMARK    6  A    between atoms: C_17  and  C_18 
REMARK       I    between atoms: C_18  and  N_19 
REMARK    7  A    between atoms: N_19  and  C_20 
REMARK    8  A    between atoms: C_20  and  C_21 
ROOT
HETATM    1  N   UNL     1      42.976 -15.524   3.227  1.00  0.00    -0.285 NA
HETATM    2  H   UNL     1      43.351 -14.989   4.018  1.00  0.00     0.128 HD
ENDROOT
BRANCH   1   3
HETATM    3  C   UNL     1      41.543 -15.240   3.025  1.00  0.00     0.171 C 
BRANCH   3   4
HETATM    4  C   UNL     1      41.251 -14.248   1.905  1.00  0.00     0.120 A 
HETATM    5  N   UNL     1      41.546 -12.928   2.108  1.00  0.00    -0.310 N 
HETATM    6  C   UNL     1      41.335 -11.960   1.157  1.00  0.00     0.259 A 
HETATM    7  H   UNL     1      41.971 -12.623   2.975  1.00  0.00     0.170 HD
HETATM    8  C   UNL     1      40.769 -12.425  -0.118  1.00  0.00     0.064 A 
HETATM    9  O   UNL     1      41.604 -10.779   1.336  1.00  0.00    -0.267 OA
HETATM   10  C   UNL     1      40.500 -13.784  -0.241  1.00  0.00     0.077 A 
HETATM   11  C   UNL     1      40.535 -11.541  -1.171  1.00  0.00     0.059 A 
HETATM   12  C   UNL     1      39.977 -14.259  -1.447  1.00  0.00     0.072 A 
HETATM   13  N   UNL     1      40.741 -14.695   0.799  1.00  0.00    -0.233 NA
HETATM   14  C   UNL     1      39.721 -13.386  -2.514  1.00  0.00     0.103 A 
HETATM   15  C   UNL     1      40.039 -12.024  -2.384  1.00  0.00     0.102 A 
BRANCH  14  16
HETATM   16  O   UNL     1      39.199 -13.828  -3.702  1.00  0.00    -0.353 OA
HETATM   17  C   UNL     1      38.113 -14.743  -3.580  1.00  0.00     0.210 C 
ENDBRANCH  14  16
BRANCH  15  18
HETATM   18  O   UNL     1      39.846 -11.053  -3.333  1.00  0.00    -0.353 OA
HETATM   19  C   UNL     1      38.794 -10.133  -3.062  1.00  0.00     0.210 C 
ENDBRANCH  15  18
ENDBRANCH   3   4
ENDBRANCH   1   3
BRANCH   1  20
HETATM   20  C   UNL     1      43.334 -16.889   3.445  1.00  0.00     0.024 A 
HETATM   21  C   UNL     1      43.820 -17.326   4.704  1.00  0.00     0.053 A 
HETATM   22  C   UNL     1      44.142 -18.681   4.921  1.00  0.00     0.019 A 
HETATM   23  C   UNL     1      44.014 -19.616   3.901  1.00  0.00     0.001 A 
HETATM   24  C   UNL     1      43.561 -19.207   2.656  1.00  0.00     0.002 A 
HETATM   25  C   UNL     1      43.229 -17.864   2.432  1.00  0.00     0.024 A 
BRANCH  21  26
HETATM   26  C   UNL     1      44.068 -16.423   5.865  1.00  0.00     0.253 C 
HETATM   27  N   UNL     1      43.053 -15.555   6.180  1.00  0.00    -0.351 N 
HETATM   28  H   UNL     1      42.180 -15.632   5.669  1.00  0.00     0.163 HD
HETATM   29  O   UNL     1      45.144 -16.444   6.451  1.00  0.00    -0.268 OA
BRANCH  27  30
HETATM   30  C   UNL     1      43.175 -14.577   7.232  1.00  0.00     0.187 C 
BRANCH  30  31
HETATM   31  C   UNL     1      43.597 -13.288   6.640  1.00  0.00     0.070 A 
HETATM   32  O   UNL     1      43.243 -13.071   5.343  1.00  0.00    -0.325 OA
HETATM   33  C   UNL     1      43.756 -11.864   4.988  1.00  0.00     0.142 A 
HETATM   34  C   UNL     1      44.417 -11.291   6.048  1.00  0.00     0.027 A 
HETATM   35  C   UNL     1      44.312 -12.209   7.120  1.00  0.00     0.036 A 
ENDBRANCH  30  31
ENDBRANCH  27  30
ENDBRANCH  21  26
ENDBRANCH   1  20
TORSDOF 8
ENDMDL
MODEL 2
REMARK VINA RESULT:      -8.3      1.918      4.728
REMARK  8 active torsions:
REMARK  status: ('A' for Active; 'I' for Inactive)
REMARK    1  A    between atoms: O_2  and  C_3 
REMARK    2  A    between atoms: C_4  and  O_5 
REMARK    3  A    between atoms: C_13  and  C_14 
REMARK    4  A    between atoms: C_14  and  N_15 
REMARK    5  A    between atoms: N_15  and  C_16 
REMARK    6  A    between atoms: C_17  and  C_18 
REMARK       I    between atoms: C_18  and  N_19 
REMARK    7  A    between atoms: N_19  and  C_20 
REMARK    8  A    between atoms: C_20  and  C_21 
ROOT
HETATM    1  N   UNL     1      40.719 -13.498   5.626  1.00  0.00    -0.285 NA
HETATM    2  H   UNL     1      40.989 -14.403   5.225  1.00  0.00     0.128 HD
ENDROOT
BRANCH   1   3
HETATM    3  C   UNL     1      39.799 -12.773   4.731  1.00  0.00     0.171 C 
BRANCH   3   4
HETATM    4  C   UNL     1      39.831 -13.245   3.282  1.00  0.00     0.120 A 
HETATM    5  N   UNL     1      39.918 -14.587   3.033  1.00  0.00    -0.310 N 
HETATM    6  C   UNL     1      39.938 -15.113   1.765  1.00  0.00     0.259 A 
HETATM    7  H   UNL     1      39.934 -15.251   3.797  1.00  0.00     0.170 HD
HETATM    8  C   UNL     1      39.856 -14.140   0.665  1.00  0.00     0.064 A 
HETATM    9  O   UNL     1      40.008 -16.314   1.541  1.00  0.00    -0.267 OA
HETATM   10  C   UNL     1      39.769 -12.794   1.006  1.00  0.00     0.077 A 
HETATM   11  C   UNL     1      39.839 -14.552  -0.667  1.00  0.00     0.059 A 
HETATM   12  C   UNL     1      39.674 -11.846  -0.016  1.00  0.00     0.072 A 
HETATM   13  N   UNL     1      39.769 -12.355   2.340  1.00  0.00    -0.233 NA
HETATM   14  C   UNL     1      39.670 -12.238  -1.363  1.00  0.00     0.103 A 
HETATM   15  C   UNL     1      39.715 -13.605  -1.685  1.00  0.00     0.102 A 
BRANCH  14  16
HETATM   16  O   UNL     1      39.588 -11.325  -2.382  1.00  0.00    -0.353 OA
HETATM   17  C   UNL     1      38.264 -10.938  -2.740  1.00  0.00     0.210 C 
ENDBRANCH  14  16
BRANCH  15  18
HETATM   18  O   UNL     1      39.720 -14.139  -2.948  1.00  0.00    -0.353 OA
HETATM   19  C   UNL     1      38.478 -14.675  -3.391  1.00  0.00     0.210 C 
ENDBRANCH  15  18
ENDBRANCH   3   4
ENDBRANCH   1   3
BRANCH   1  20
HETATM   20  C   UNL     1      41.929 -12.827   5.981  1.00  0.00     0.024 A 
HETATM   21  C   UNL     1      43.063 -13.552   6.430  1.00  0.00     0.053 A 
HETATM   22  C   UNL     1      44.263 -12.886   6.748  1.00  0.00     0.019 A 
HETATM   23  C   UNL     1      44.358 -11.502   6.653  1.00  0.00     0.001 A 
HETATM   24  C   UNL     1      43.255 -10.772   6.238  1.00  0.00     0.002 A 
HETATM   25  C   UNL     1      42.060 -11.425   5.909  1.00  0.00     0.024 A 
BRANCH  21  26
HETATM   26  C   UNL     1      43.084 -15.028   6.640  1.00  0.00     0.253 C 
HETATM   27  N   UNL     1      43.893 -15.745   5.795  1.00  0.00    -0.351 N 
HETATM   28  H   UNL     1      44.480 -15.234   5.145  1.00  0.00     0.163 HD
HETATM   29  O   UNL     1      42.371 -15.545   7.492  1.00  0.00    -0.268 OA
BRANCH  27  30
HETATM   30  C   UNL     1      43.962 -17.185   5.834  1.00  0.00     0.187 C 
BRANCH  30  31
HETATM   31  C   UNL     1      43.687 -17.713   4.479  1.00  0.00     0.070 A 
HETATM   32  O   UNL     1      44.305 -18.880   4.145  1.00  0.00    -0.325 OA
HETATM   33  C   UNL     1      43.954 -19.163   2.863  1.00  0.00     0.142 A 
HETATM   34  C   UNL     1      43.098 -18.204   2.376  1.00  0.00     0.027 A 
HETATM   35  C   UNL     1      42.921 -17.266   3.421  1.00  0.00     0.036 A 
ENDBRANCH  30  31
ENDBRANCH  27  30
ENDBRANCH  21  26
ENDBRANCH   1  20
TORSDOF 8
ENDMDL
MODEL 3
REMARK VINA RESULT:      -8.2      1.815      2.563
REMARK  8 active torsions:
REMARK  status: ('A' for Active; 'I' for Inactive)
REMARK    1  A    between atoms: O_2  and  C_3 
REMARK    2  A    between atoms: C_4  and  O_5 
REMARK    3  A    between atoms: C_13  and  C_14 
REMARK    4  A    between atoms: C_14  and  N_15 
REMARK    5  A    between atoms: N_15  and  C_16 
REMARK    6  A    between atoms: C_17  and  C_18 
REMARK       I    between atoms: C_18  and  N_19 
REMARK    7  A    between atoms: N_19  and  C_20 
REMARK    8  A    between atoms: C_20  and  C_21 
ROOT
HETATM    1  N   UNL     1      40.911 -15.052   4.734  1.00  0.00    -0.285 NA
HETATM    2  H   UNL     1      40.116 -15.134   5.377  1.00  0.00     0.128 HD
ENDROOT
BRANCH   1   3
HETATM    3  C   UNL     1      40.593 -15.636   3.418  1.00  0.00     0.171 C 
BRANCH   3   4
HETATM    4  C   UNL     1      40.674 -14.650   2.258  1.00  0.00     0.120 A 
HETATM    5  N   UNL     1      41.265 -13.436   2.473  1.00  0.00    -0.310 N 
HETATM    6  C   UNL     1      41.400 -12.486   1.490  1.00  0.00     0.259 A 
HETATM    7  H   UNL     1      41.661 -13.209   3.376  1.00  0.00     0.170 HD
HETATM    8  C   UNL     1      40.871 -12.851   0.168  1.00  0.00     0.064 A 
HETATM    9  O   UNL     1      41.935 -11.401   1.679  1.00  0.00    -0.267 OA
HETATM   10  C   UNL     1      40.286 -14.106   0.036  1.00  0.00     0.077 A 
HETATM   11  C   UNL     1      40.974 -11.982  -0.919  1.00  0.00     0.059 A 
HETATM   12  C   UNL     1      39.789 -14.488  -1.213  1.00  0.00     0.072 A 
HETATM   13  N   UNL     1      40.185 -15.004   1.110  1.00  0.00    -0.233 NA
HETATM   14  C   UNL     1      39.868 -13.624  -2.315  1.00  0.00     0.103 A 
HETATM   15  C   UNL     1      40.500 -12.378  -2.171  1.00  0.00     0.102 A 
BRANCH  14  16
HETATM   16  O   UNL     1      39.377 -13.974  -3.546  1.00  0.00    -0.353 OA
HETATM   17  C   UNL     1      38.157 -14.709  -3.522  1.00  0.00     0.210 C 
ENDBRANCH  14  16
BRANCH  15  18
HETATM   18  O   UNL     1      40.653 -11.430  -3.150  1.00  0.00    -0.353 OA
HETATM   19  C   UNL     1      39.620 -10.453  -3.223  1.00  0.00     0.210 C 
ENDBRANCH  15  18
ENDBRANCH   3   4
ENDBRANCH   1   3
BRANCH   1  20
HETATM   20  C   UNL     1      42.048 -15.586   5.414  1.00  0.00     0.024 A 
HETATM   21  C   UNL     1      43.062 -14.735   5.923  1.00  0.00     0.053 A 
HETATM   22  C   UNL     1      44.165 -15.266   6.621  1.00  0.00     0.019 A 
HETATM   23  C   UNL     1      44.299 -16.638   6.804  1.00  0.00     0.001 A 
HETATM   24  C   UNL     1      43.331 -17.489   6.295  1.00  0.00     0.002 A 
HETATM   25  C   UNL     1      42.225 -16.971   5.609  1.00  0.00     0.024 A 
BRANCH  21  26
HETATM   26  C   UNL     1      43.081 -13.254   5.744  1.00  0.00     0.253 C 
HETATM   27  N   UNL     1      43.067 -12.508   6.895  1.00  0.00    -0.351 N 
HETATM   28  H   UNL     1      43.127 -12.995   7.783  1.00  0.00     0.163 HD
HETATM   29  O   UNL     1      43.059 -12.764   4.621  1.00  0.00    -0.268 OA
BRANCH  27  30
HETATM   30  C   UNL     1      43.013 -11.067   6.878  1.00  0.00     0.187 C 
BRANCH  30  31
HETATM   31  C   UNL     1      44.316 -10.534   7.335  1.00  0.00     0.070 A 
HETATM   32  O   UNL     1      44.273  -9.451   8.160  1.00  0.00    -0.325 OA
HETATM   33  C   UNL     1      45.558  -9.101   8.424  1.00  0.00     0.142 A 
HETATM   34  C   UNL     1      46.429  -9.960   7.796  1.00  0.00     0.027 A 
HETATM   35  C   UNL     1      45.627 -10.890   7.093  1.00  0.00     0.036 A 
ENDBRANCH  30  31
ENDBRANCH  27  30
ENDBRANCH  21  26
ENDBRANCH   1  20
TORSDOF 8
ENDMDL
MODEL 4
REMARK VINA RESULT:      -8.2      1.692      2.081
REMARK  8 active torsions:
REMARK  status: ('A' for Active; 'I' for Inactive)
REMARK    1  A    between atoms: O_2  and  C_3 
REMARK    2  A    between atoms: C_4  and  O_5 
REMARK    3  A    between atoms: C_13  and  C_14 
REMARK    4  A    between atoms: C_14  and  N_15 
REMARK    5  A    between atoms: N_15  and  C_16 
REMARK    6  A    between atoms: C_17  and  C_18 
REMARK       I    between atoms: C_18  and  N_19 
REMARK    7  A    between atoms: N_19  and  C_20 
REMARK    8  A    between atoms: C_20  and  C_21 
ROOT
HETATM    1  N   UNL     1      42.608 -16.758   2.453  1.00  0.00    -0.285 NA
HETATM    2  H   UNL     1      42.894 -15.992   3.074  1.00  0.00     0.128 HD
ENDROOT
BRANCH   1   3
HETATM    3  C   UNL     1      41.153 -16.741   2.223  1.00  0.00     0.171 C 
BRANCH   3   4
HETATM    4  C   UNL     1      40.588 -15.368   1.876  1.00  0.00     0.120 A 
HETATM    5  N   UNL     1      40.104 -14.586   2.888  1.00  0.00    -0.310 N 
HETATM    6  C   UNL     1      39.589 -13.329   2.681  1.00  0.00     0.259 A 
HETATM    7  H   UNL     1      40.144 -14.904   3.849  1.00  0.00     0.170 HD
HETATM    8  C   UNL     1      39.589 -12.857   1.289  1.00  0.00     0.064 A 
HETATM    9  O   UNL     1      39.161 -12.626   3.587  1.00  0.00    -0.267 OA
HETATM   10  C   UNL     1      40.100 -13.716   0.321  1.00  0.00     0.077 A 
HETATM   11  C   UNL     1      39.117 -11.587   0.955  1.00  0.00     0.059 A 
HETATM   12  C   UNL     1      40.128 -13.289  -1.009  1.00  0.00     0.072 A 
HETATM   13  N   UNL     1      40.594 -14.992   0.635  1.00  0.00    -0.233 NA
HETATM   14  C   UNL     1      39.646 -12.022  -1.369  1.00  0.00     0.103 A 
HETATM   15  C   UNL     1      39.173 -11.153  -0.371  1.00  0.00     0.102 A 
BRANCH  14  16
HETATM   16  O   UNL     1      39.655 -11.586  -2.669  1.00  0.00    -0.353 OA
HETATM   17  C   UNL     1      40.949 -11.381  -3.227  1.00  0.00     0.210 C 
ENDBRANCH  14  16
BRANCH  15  18
HETATM   18  O   UNL     1      38.672  -9.893  -0.567  1.00  0.00    -0.353 OA
HETATM   19  C   UNL     1      37.456  -9.604   0.117  1.00  0.00     0.210 C 
ENDBRANCH  15  18
ENDBRANCH   3   4
ENDBRANCH   1   3
BRANCH   1  20
HETATM   20  C   UNL     1      43.157 -17.958   3.000  1.00  0.00     0.024 A 
HETATM   21  C   UNL     1      43.692 -17.987   4.313  1.00  0.00     0.053 A 
HETATM   22  C   UNL     1      44.202 -19.183   4.857  1.00  0.00     0.019 A 
HETATM   23  C   UNL     1      44.216 -20.356   4.112  1.00  0.00     0.001 A 
HETATM   24  C   UNL     1      43.718 -20.345   2.818  1.00  0.00     0.002 A 
HETATM   25  C   UNL     1      43.199 -19.164   2.271  1.00  0.00     0.024 A 
BRANCH  21  26
HETATM   26  C   UNL     1      43.799 -16.792   5.200  1.00  0.00     0.253 C 
HETATM   27  N   UNL     1      42.730 -15.933   5.185  1.00  0.00    -0.351 N 
HETATM   28  H   UNL     1      41.911 -16.195   4.646  1.00  0.00     0.163 HD
HETATM   29  O   UNL     1      44.817 -16.592   5.853  1.00  0.00    -0.268 OA
BRANCH  27  30
HETATM   30  C   UNL     1      42.721 -14.702   5.936  1.00  0.00     0.187 C 
BRANCH  30  31
HETATM   31  C   UNL     1      42.821 -13.565   4.994  1.00  0.00     0.070 A 
HETATM   32  O   UNL     1      43.115 -13.873   3.700  1.00  0.00    -0.325 OA
HETATM   33  C   UNL     1      43.199 -12.699   3.021  1.00  0.00     0.142 A 
HETATM   34  C   UNL     1      42.941 -11.640   3.859  1.00  0.00     0.027 A 
HETATM   35  C   UNL     1      42.693 -12.198   5.135  1.00  0.00     0.036 A 
ENDBRANCH  30  31
ENDBRANCH  27  30
ENDBRANCH  21  26
ENDBRANCH   1  20
TORSDOF 8
ENDMDL
MODEL 5
REMARK VINA RESULT:      -8.2      3.170      7.065
REMARK  8 active torsions:
REMARK  status: ('A' for Active; 'I' for Inactive)
REMARK    1  A    between atoms: O_2  and  C_3 
REMARK    2  A    between atoms: C_4  and  O_5 
REMARK    3  A    between atoms: C_13  and  C_14 
REMARK    4  A    between atoms: C_14  and  N_15 
REMARK    5  A    between atoms: N_15  and  C_16 
REMARK    6  A    between atoms: C_17  and  C_18 
REMARK       I    between atoms: C_18  and  N_19 
REMARK    7  A    between atoms: N_19  and  C_20 
REMARK    8  A    between atoms: C_20  and  C_21 
ROOT
HETATM    1  N   UNL     1      42.838 -16.811   5.966  1.00  0.00    -0.285 NA
HETATM    2  H   UNL     1      41.961 -16.341   5.716  1.00  0.00     0.128 HD
ENDROOT
BRANCH   1   3
HETATM    3  C   UNL     1      43.863 -15.836   6.383  1.00  0.00     0.171 C 
BRANCH   3   4
HETATM    4  C   UNL     1      43.368 -14.396   6.452  1.00  0.00     0.120 A 
HETATM    5  N   UNL     1      42.112 -14.114   5.989  1.00  0.00    -0.310 N 
HETATM    6  C   UNL     1      41.569 -12.853   6.021  1.00  0.00     0.259 A 
HETATM    7  H   UNL     1      41.517 -14.852   5.632  1.00  0.00     0.170 HD
HETATM    8  C   UNL     1      42.422 -11.801   6.594  1.00  0.00     0.064 A 
HETATM    9  O   UNL     1      40.443 -12.600   5.613  1.00  0.00    -0.267 OA
HETATM   10  C   UNL     1      43.685 -12.174   7.042  1.00  0.00     0.077 A 
HETATM   11  C   UNL     1      41.972 -10.485   6.707  1.00  0.00     0.059 A 
HETATM   12  C   UNL     1      44.513 -11.200   7.606  1.00  0.00     0.072 A 
HETATM   13  N   UNL     1      44.154 -13.495   6.953  1.00  0.00    -0.233 NA
HETATM   14  C   UNL     1      44.087  -9.869   7.717  1.00  0.00     0.103 A 
HETATM   15  C   UNL     1      42.792  -9.521   7.298  1.00  0.00     0.102 A 
BRANCH  14  16
HETATM   16  O   UNL     1      44.886  -8.895   8.257  1.00  0.00    -0.353 OA
HETATM   17  C   UNL     1      45.541  -9.257   9.469  1.00  0.00     0.210 C 
ENDBRANCH  14  16
BRANCH  15  18
HETATM   18  O   UNL     1      42.236  -8.268   7.340  1.00  0.00    -0.353 OA
HETATM   19  C   UNL     1      41.019  -8.162   8.070  1.00  0.00     0.210 C 
ENDBRANCH  15  18
ENDBRANCH   3   4
ENDBRANCH   1   3
BRANCH   1  20
HETATM   20  C   UNL     1      43.175 -17.667   4.874  1.00  0.00     0.024 A 
HETATM   21  C   UNL     1      42.753 -17.367   3.553  1.00  0.00     0.053 A 
HETATM   22  C   UNL     1      43.116 -18.199   2.475  1.00  0.00     0.019 A 
HETATM   23  C   UNL     1      43.875 -19.346   2.683  1.00  0.00     0.001 A 
HETATM   24  C   UNL     1      44.279 -19.669   3.969  1.00  0.00     0.002 A 
HETATM   25  C   UNL     1      43.932 -18.843   5.046  1.00  0.00     0.024 A 
BRANCH  21  26
HETATM   26  C   UNL     1      41.885 -16.209   3.193  1.00  0.00     0.253 C 
HETATM   27  N   UNL     1      42.299 -15.454   2.126  1.00  0.00    -0.351 N 
HETATM   28  H   UNL     1      43.110 -15.767   1.602  1.00  0.00     0.163 HD
HETATM   29  O   UNL     1      40.893 -15.945   3.862  1.00  0.00    -0.268 OA
BRANCH  27  30
HETATM   30  C   UNL     1      41.600 -14.265   1.706  1.00  0.00     0.187 C 
BRANCH  30  31
HETATM   31  C   UNL     1      42.247 -13.086   2.323  1.00  0.00     0.070 A 
HETATM   32  O   UNL     1      41.548 -11.918   2.283  1.00  0.00    -0.325 OA
HETATM   33  C   UNL     1      42.327 -10.967   2.859  1.00  0.00     0.142 A 
HETATM   34  C   UNL     1      43.513 -11.513   3.291  1.00  0.00     0.027 A 
HETATM   35  C   UNL     1      43.462 -12.886   2.948  1.00  0.00     0.036 A 
ENDBRANCH  30  31
ENDBRANCH  27  30
ENDBRANCH  21  26
ENDBRANCH   1  20
TORSDOF 8
ENDMDL
MODEL 6
REMARK VINA RESULT:      -8.0      3.191      4.215
REMARK  8 active torsions:
REMARK  status: ('A' for Active; 'I' for Inactive)
REMARK    1  A    between atoms: O_2  and  C_3 
REMARK    2  A    between atoms: C_4  and  O_5 
REMARK    3  A    between atoms: C_13  and  C_14 
REMARK    4  A    between atoms: C_14  and  N_15 
REMARK    5  A    between atoms: N_15  and  C_16 
REMARK    6  A    between atoms: C_17  and  C_18 
REMARK       I    between atoms: C_18  and  N_19 
REMARK    7  A    between atoms: N_19  and  C_20 
REMARK    8  A    between atoms: C_20  and  C_21 
ROOT
HETATM    1  N   UNL     1      42.418 -16.016   2.844  1.00  0.00    -0.285 NA
HETATM    2  H   UNL     1      42.837 -15.226   3.347  1.00  0.00     0.128 HD
ENDROOT
BRANCH   1   3
HETATM    3  C   UNL     1      40.946 -15.941   2.868  1.00  0.00     0.171 C 
BRANCH   3   4
HETATM    4  C   UNL     1      40.393 -14.652   3.465  1.00  0.00     0.120 A 
HETATM    5  N   UNL     1      40.332 -14.536   4.826  1.00  0.00    -0.310 N 
HETATM    6  C   UNL     1      39.865 -13.411   5.461  1.00  0.00     0.259 A 
HETATM    7  H   UNL     1      40.671 -15.282   5.422  1.00  0.00     0.170 HD
HETATM    8  C   UNL     1      39.429 -12.314   4.585  1.00  0.00     0.064 A 
HETATM    9  O   UNL     1      39.816 -13.304   6.679  1.00  0.00    -0.267 OA
HETATM   10  C   UNL     1      39.526 -12.515   3.211  1.00  0.00     0.077 A 
HETATM   11  C   UNL     1      38.961 -11.110   5.110  1.00  0.00     0.059 A 
HETATM   12  C   UNL     1      39.134 -11.484   2.353  1.00  0.00     0.072 A 
HETATM   13  N   UNL     1      40.008 -13.712   2.659  1.00  0.00    -0.233 NA
HETATM   14  C   UNL     1      38.647 -10.270   2.859  1.00  0.00     0.103 A 
HETATM   15  C   UNL     1      38.597 -10.072   4.249  1.00  0.00     0.102 A 
BRANCH  14  16
HETATM   16  O   UNL     1      38.248  -9.250   2.035  1.00  0.00    -0.353 OA
HETATM   17  C   UNL     1      39.307  -8.517   1.427  1.00  0.00     0.210 C 
ENDBRANCH  14  16
BRANCH  15  18
HETATM   18  O   UNL     1      38.147  -8.947   4.891  1.00  0.00    -0.353 OA
HETATM   19  C   UNL     1      39.159  -8.063   5.360  1.00  0.00     0.210 C 
ENDBRANCH  15  18
ENDBRANCH   3   4
ENDBRANCH   1   3
BRANCH   1  20
HETATM   20  C   UNL     1      43.008 -17.203   3.376  1.00  0.00     0.024 A 
HETATM   21  C   UNL     1      43.222 -17.352   4.770  1.00  0.00     0.053 A 
HETATM   22  C   UNL     1      43.775 -18.539   5.291  1.00  0.00     0.019 A 
HETATM   23  C   UNL     1      44.146 -19.582   4.449  1.00  0.00     0.001 A 
HETATM   24  C   UNL     1      43.966 -19.448   3.081  1.00  0.00     0.002 A 
HETATM   25  C   UNL     1      43.407 -18.277   2.554  1.00  0.00     0.024 A 
BRANCH  21  26
HETATM   26  C   UNL     1      42.932 -16.294   5.780  1.00  0.00     0.253 C 
HETATM   27  N   UNL     1      43.704 -15.162   5.706  1.00  0.00    -0.351 N 
HETATM   28  H   UNL     1      44.359 -15.078   4.935  1.00  0.00     0.163 HD
HETATM   29  O   UNL     1      42.081 -16.475   6.643  1.00  0.00    -0.268 OA
BRANCH  27  30
HETATM   30  C   UNL     1      43.585 -14.085   6.657  1.00  0.00     0.187 C 
BRANCH  30  31
HETATM   31  C   UNL     1      43.297 -12.831   5.926  1.00  0.00     0.070 A 
HETATM   32  O   UNL     1      43.212 -12.924   4.570  1.00  0.00    -0.325 OA
HETATM   33  C   UNL     1      42.986 -11.670   4.098  1.00  0.00     0.142 A 
HETATM   34  C   UNL     1      42.902 -10.774   5.137  1.00  0.00     0.027 A 
HETATM   35  C   UNL     1      43.099 -11.523   6.321  1.00  0.00     0.036 A 
ENDBRANCH  30  31
ENDBRANCH  27  30
ENDBRANCH  21  26
ENDBRANCH   1  20
TORSDOF 8
ENDMDL
MODEL 7
REMARK VINA RESULT:      -7.9      2.146      3.535
REMARK  8 active torsions:
REMARK  status: ('A' for Active; 'I' for Inactive)
REMARK    1  A    between atoms: O_2  and  C_3 
REMARK    2  A    between atoms: C_4  and  O_5 
REMARK    3  A    between atoms: C_13  and  C_14 
REMARK    4  A    between atoms: C_14  and  N_15 
REMARK    5  A    between atoms: N_15  and  C_16 
REMARK    6  A    between atoms: C_17  and  C_18 
REMARK       I    between atoms: C_18  and  N_19 
REMARK    7  A    between atoms: N_19  and  C_20 
REMARK    8  A    between atoms: C_20  and  C_21 
ROOT
HETATM    1  N   UNL     1      42.871 -16.224   3.110  1.00  0.00    -0.285 NA
HETATM    2  H   UNL     1      42.000 -16.071   3.631  1.00  0.00     0.128 HD
ENDROOT
BRANCH   1   3
HETATM    3  C   UNL     1      42.732 -15.798   1.706  1.00  0.00     0.171 C 
BRANCH   3   4
HETATM    4  C   UNL     1      41.693 -14.705   1.481  1.00  0.00     0.120 A 
HETATM    5  N   UNL     1      41.131 -14.582   0.240  1.00  0.00    -0.310 N 
HETATM    6  C   UNL     1      40.177 -13.641  -0.059  1.00  0.00     0.259 A 
HETATM    7  H   UNL     1      41.384 -15.221  -0.504  1.00  0.00     0.170 HD
HETATM    8  C   UNL     1      39.778 -12.758   1.046  1.00  0.00     0.064 A 
HETATM    9  O   UNL     1      39.669 -13.535  -1.168  1.00  0.00    -0.267 OA
HETATM   10  C   UNL     1      40.398 -12.951   2.277  1.00  0.00     0.077 A 
HETATM   11  C   UNL     1      38.797 -11.781   0.875  1.00  0.00     0.059 A 
HETATM   12  C   UNL     1      40.028 -12.138   3.351  1.00  0.00     0.072 A 
HETATM   13  N   UNL     1      41.376 -13.938   2.478  1.00  0.00    -0.233 NA
HETATM   14  C   UNL     1      39.055 -11.139   3.197  1.00  0.00     0.103 A 
HETATM   15  C   UNL     1      38.410 -10.988   1.958  1.00  0.00     0.102 A 
BRANCH  14  16
HETATM   16  O   UNL     1      38.685 -10.323   4.234  1.00  0.00    -0.353 OA
HETATM   17  C   UNL     1      38.908 -10.861   5.534  1.00  0.00     0.210 C 
ENDBRANCH  14  16
BRANCH  15  18
HETATM   18  O   UNL     1      37.446 -10.062   1.655  1.00  0.00    -0.353 OA
HETATM   19  C   UNL     1      36.490 -10.470   0.681  1.00  0.00     0.210 C 
ENDBRANCH  15  18
ENDBRANCH   3   4
ENDBRANCH   1   3
BRANCH   1  20
HETATM   20  C   UNL     1      43.251 -17.583   3.332  1.00  0.00     0.024 A 
HETATM   21  C   UNL     1      43.716 -18.015   4.601  1.00  0.00     0.053 A 
HETATM   22  C   UNL     1      44.059 -19.364   4.821  1.00  0.00     0.019 A 
HETATM   23  C   UNL     1      43.973 -20.298   3.795  1.00  0.00     0.001 A 
HETATM   24  C   UNL     1      43.542 -19.893   2.542  1.00  0.00     0.002 A 
HETATM   25  C   UNL     1      43.188 -18.557   2.314  1.00  0.00     0.024 A 
BRANCH  21  26
HETATM   26  C   UNL     1      43.918 -17.111   5.770  1.00  0.00     0.253 C 
HETATM   27  N   UNL     1      42.783 -16.732   6.441  1.00  0.00    -0.351 N 
HETATM   28  H   UNL     1      41.899 -17.143   6.161  1.00  0.00     0.163 HD
HETATM   29  O   UNL     1      45.039 -16.709   6.059  1.00  0.00    -0.268 OA
BRANCH  27  30
HETATM   30  C   UNL     1      42.816 -15.807   7.548  1.00  0.00     0.187 C 
BRANCH  30  31
HETATM   31  C   UNL     1      42.839 -14.426   7.016  1.00  0.00     0.070 A 
HETATM   32  O   UNL     1      43.803 -13.601   7.511  1.00  0.00    -0.325 OA
HETATM   33  C   UNL     1      43.624 -12.386   6.930  1.00  0.00     0.142 A 
HETATM   34  C   UNL     1      42.569 -12.425   6.050  1.00  0.00     0.027 A 
HETATM   35  C   UNL     1      42.061 -13.746   6.101  1.00  0.00     0.036 A 
ENDBRANCH  30  31
ENDBRANCH  27  30
ENDBRANCH  21  26
ENDBRANCH   1  20
TORSDOF 8
ENDMDL
MODEL 8
REMARK VINA RESULT:      -7.8      2.007      3.348
REMARK  8 active torsions:
REMARK  status: ('A' for Active; 'I' for Inactive)
REMARK    1  A    between atoms: O_2  and  C_3 
REMARK    2  A    between atoms: C_4  and  O_5 
REMARK    3  A    between atoms: C_13  and  C_14 
REMARK    4  A    between atoms: C_14  and  N_15 
REMARK    5  A    between atoms: N_15  and  C_16 
REMARK    6  A    between atoms: C_17  and  C_18 
REMARK       I    between atoms: C_18  and  N_19 
REMARK    7  A    between atoms: N_19  and  C_20 
REMARK    8  A    between atoms: C_20  and  C_21 
ROOT
HETATM    1  N   UNL     1      42.210 -14.712   1.305  1.00  0.00    -0.285 NA
HETATM    2  H   UNL     1      42.385 -13.773   1.681  1.00  0.00     0.128 HD
ENDROOT
BRANCH   1   3
HETATM    3  C   UNL     1      40.797 -14.875   0.918  1.00  0.00     0.171 C 
BRANCH   3   4
HETATM    4  C   UNL     1      40.325 -13.903  -0.158  1.00  0.00     0.120 A 
HETATM    5  N   UNL     1      39.175 -14.192  -0.839  1.00  0.00    -0.310 N 
HETATM    6  C   UNL     1      38.658 -13.374  -1.814  1.00  0.00     0.259 A 
HETATM    7  H   UNL     1      38.638 -15.021  -0.615  1.00  0.00     0.170 HD
HETATM    8  C   UNL     1      39.418 -12.145  -2.090  1.00  0.00     0.064 A 
HETATM    9  O   UNL     1      37.626 -13.628  -2.421  1.00  0.00    -0.267 OA
HETATM   10  C   UNL     1      40.576 -11.929  -1.350  1.00  0.00     0.077 A 
HETATM   11  C   UNL     1      38.980 -11.221  -3.038  1.00  0.00     0.059 A 
HETATM   12  C   UNL     1      41.310 -10.762  -1.578  1.00  0.00     0.072 A 
HETATM   13  N   UNL     1      41.028 -12.836  -0.380  1.00  0.00    -0.233 NA
HETATM   14  C   UNL     1      40.896  -9.826  -2.537  1.00  0.00     0.103 A 
HETATM   15  C   UNL     1      39.701 -10.043  -3.243  1.00  0.00     0.102 A 
BRANCH  14  16
HETATM   16  O   UNL     1      41.606  -8.680  -2.784  1.00  0.00    -0.353 OA
HETATM   17  C   UNL     1      42.479  -8.273  -1.734  1.00  0.00     0.210 C 
ENDBRANCH  14  16
BRANCH  15  18
HETATM   18  O   UNL     1      39.171  -9.225  -4.207  1.00  0.00    -0.353 OA
HETATM   19  C   UNL     1      37.751  -9.116  -4.205  1.00  0.00     0.210 C 
ENDBRANCH  15  18
ENDBRANCH   3   4
ENDBRANCH   1   3
BRANCH   1  20
HETATM   20  C   UNL     1      42.724 -15.641   2.261  1.00  0.00     0.024 A 
HETATM   21  C   UNL     1      42.852 -15.288   3.629  1.00  0.00     0.053 A 
HETATM   22  C   UNL     1      43.330 -16.220   4.571  1.00  0.00     0.019 A 
HETATM   23  C   UNL     1      43.709 -17.499   4.180  1.00  0.00     0.001 A 
HETATM   24  C   UNL     1      43.613 -17.858   2.844  1.00  0.00     0.002 A 
HETATM   25  C   UNL     1      43.130 -16.942   1.901  1.00  0.00     0.024 A 
BRANCH  21  26
HETATM   26  C   UNL     1      42.544 -13.936   4.177  1.00  0.00     0.253 C 
HETATM   27  N   UNL     1      43.346 -12.911   3.740  1.00  0.00    -0.351 N 
HETATM   28  H   UNL     1      44.034 -13.113   3.022  1.00  0.00     0.163 HD
HETATM   29  O   UNL     1      41.653 -13.789   5.006  1.00  0.00    -0.268 OA
BRANCH  27  30
HETATM   30  C   UNL     1      43.211 -11.564   4.235  1.00  0.00     0.187 C 
BRANCH  30  31
HETATM   31  C   UNL     1      44.006 -11.429   5.477  1.00  0.00     0.070 A 
HETATM   32  O   UNL     1      45.339 -11.195   5.322  1.00  0.00    -0.325 OA
HETATM   33  C   UNL     1      45.881 -11.146   6.567  1.00  0.00     0.142 A 
HETATM   34  C   UNL     1      44.908 -11.323   7.522  1.00  0.00     0.027 A 
HETATM   35  C   UNL     1      43.693 -11.503   6.819  1.00  0.00     0.036 A 
ENDBRANCH  30  31
ENDBRANCH  27  30
ENDBRANCH  21  26
ENDBRANCH   1  20
TORSDOF 8
ENDMDL
MODEL 9
REMARK VINA RESULT:      -7.8      3.574      7.326
REMARK  8 active torsions:
REMARK  status: ('A' for Active; 'I' for Inactive)
REMARK    1  A    between atoms: O_2  and  C_3 
REMARK    2  A    between atoms: C_4  and  O_5 
REMARK    3  A    between atoms: C_13  and  C_14 
REMARK    4  A    between atoms: C_14  and  N_15 
REMARK    5  A    between atoms: N_15  and  C_16 
REMARK    6  A    between atoms: C_17  and  C_18 
REMARK       I    between atoms: C_18  and  N_19 
REMARK    7  A    between atoms: N_19  and  C_20 
REMARK    8  A    between atoms: C_20  and  C_21 
ROOT
HETATM    1  N   UNL     1      38.695 -13.349   2.667  1.00  0.00    -0.285 NA
HETATM    2  H   UNL     1      38.706 -13.657   3.646  1.00  0.00     0.128 HD
ENDROOT
BRANCH   1   3
HETATM    3  C   UNL     1      39.844 -13.897   1.924  1.00  0.00     0.171 C 
BRANCH   3   4
HETATM    4  C   UNL     1      40.736 -14.824   2.742  1.00  0.00     0.120 A 
HETATM    5  N   UNL     1      40.808 -14.636   4.095  1.00  0.00    -0.310 N 
HETATM    6  C   UNL     1      41.570 -15.427   4.921  1.00  0.00     0.259 A 
HETATM    7  H   UNL     1      40.261 -13.912   4.544  1.00  0.00     0.170 HD
HETATM    8  C   UNL     1      42.315 -16.510   4.263  1.00  0.00     0.064 A 
HETATM    9  O   UNL     1      41.630 -15.263   6.132  1.00  0.00    -0.267 OA
HETATM   10  C   UNL     1      42.185 -16.631   2.883  1.00  0.00     0.077 A 
HETATM   11  C   UNL     1      43.102 -17.397   4.997  1.00  0.00     0.059 A 
HETATM   12  C   UNL     1      42.868 -17.661   2.232  1.00  0.00     0.072 A 
HETATM   13  N   UNL     1      41.387 -15.761   2.124  1.00  0.00    -0.233 NA
HETATM   14  C   UNL     1      43.676 -18.556   2.949  1.00  0.00     0.103 A 
HETATM   15  C   UNL     1      43.761 -18.442   4.346  1.00  0.00     0.102 A 
BRANCH  14  16
HETATM   16  O   UNL     1      44.364 -19.567   2.329  1.00  0.00    -0.353 OA
HETATM   17  C   UNL     1      43.550 -20.565   1.720  1.00  0.00     0.210 C 
ENDBRANCH  14  16
BRANCH  15  18
HETATM   18  O   UNL     1      44.507 -19.236   5.179  1.00  0.00    -0.353 OA
HETATM   19  C   UNL     1      43.914 -20.482   5.531  1.00  0.00     0.210 C 
ENDBRANCH  15  18
ENDBRANCH   3   4
ENDBRANCH   1   3
BRANCH   1  20
HETATM   20  C   UNL     1      38.561 -11.927   2.684  1.00  0.00     0.024 A 
HETATM   21  C   UNL     1      39.026 -11.161   3.784  1.00  0.00     0.053 A 
HETATM   22  C   UNL     1      38.920  -9.756   3.779  1.00  0.00     0.019 A 
HETATM   23  C   UNL     1      38.336  -9.089   2.708  1.00  0.00     0.001 A 
HETATM   24  C   UNL     1      37.855  -9.820   1.633  1.00  0.00     0.002 A 
HETATM   25  C   UNL     1      37.965 -11.216   1.622  1.00  0.00     0.024 A 
BRANCH  21  26
HETATM   26  C   UNL     1      39.613 -11.747   5.023  1.00  0.00     0.253 C 
HETATM   27  N   UNL     1      40.858 -11.289   5.374  1.00  0.00    -0.351 N 
HETATM   28  H   UNL     1      41.264 -10.536   4.829  1.00  0.00     0.163 HD
HETATM   29  O   UNL     1      39.016 -12.620   5.642  1.00  0.00    -0.268 OA
BRANCH  27  30
HETATM   30  C   UNL     1      41.580 -11.814   6.507  1.00  0.00     0.187 C 
BRANCH  30  31
HETATM   31  C   UNL     1      43.032 -11.683   6.252  1.00  0.00     0.070 A 
HETATM   32  O   UNL     1      43.844 -11.692   7.345  1.00  0.00    -0.325 OA
HETATM   33  C   UNL     1      45.115 -11.521   6.898  1.00  0.00     0.142 A 
HETATM   34  C   UNL     1      45.134 -11.424   5.526  1.00  0.00     0.027 A 
HETATM   35  C   UNL     1      43.787 -11.532   5.106  1.00  0.00     0.036 A 
ENDBRANCH  30  31
ENDBRANCH  27  30
ENDBRANCH  21  26
ENDBRANCH   1  20
TORSDOF 8
ENDMDL
MODEL 10
REMARK VINA RESULT:      -7.8      1.631      4.232
REMARK  8 active torsions:
REMARK  status: ('A' for Active; 'I' for Inactive)
REMARK    1  A    between atoms: O_2  and  C_3 
REMARK    2  A    between atoms: C_4  and  O_5 
REMARK    3  A    between atoms: C_13  and  C_14 
REMARK    4  A    between atoms: C_14  and  N_15 
REMARK    5  A    between atoms: N_15  and  C_16 
REMARK    6  A    between atoms: C_17  and  C_18 
REMARK       I    between atoms: C_18  and  N_19 
REMARK    7  A    between atoms: N_19  and  C_20 
REMARK    8  A    between atoms: C_20  and  C_21 
ROOT
HETATM    1  N   UNL     1      42.382 -14.162   3.792  1.00  0.00    -0.285 NA
HETATM    2  H   UNL     1      42.734 -13.772   2.911  1.00  0.00     0.128 HD
ENDROOT
BRANCH   1   3
HETATM    3  C   UNL     1      40.933 -14.420   3.719  1.00  0.00     0.171 C 
BRANCH   3   4
HETATM    4  C   UNL     1      40.222 -13.690   2.585  1.00  0.00     0.120 A 
HETATM    5  N   UNL     1      39.526 -12.549   2.878  1.00  0.00    -0.310 N 
HETATM    6  C   UNL     1      38.865 -11.811   1.926  1.00  0.00     0.259 A 
HETATM    7  H   UNL     1      39.507 -12.186   3.823  1.00  0.00     0.170 HD
HETATM    8  C   UNL     1      38.949 -12.318   0.549  1.00  0.00     0.064 A 
HETATM    9  O   UNL     1      38.248 -10.786   2.186  1.00  0.00    -0.267 OA
HETATM   10  C   UNL     1      39.678 -13.484   0.339  1.00  0.00     0.077 A 
HETATM   11  C   UNL     1      38.343 -11.641  -0.510  1.00  0.00     0.059 A 
HETATM   12  C   UNL     1      39.790 -13.982  -0.962  1.00  0.00     0.072 A 
HETATM   13  N   UNL     1      40.310 -14.174   1.386  1.00  0.00    -0.233 NA
HETATM   14  C   UNL     1      39.176 -13.326  -2.039  1.00  0.00     0.103 A 
HETATM   15  C   UNL     1      38.481 -12.126  -1.812  1.00  0.00     0.102 A 
BRANCH  14  16
HETATM   16  O   UNL     1      39.264 -13.802  -3.322  1.00  0.00    -0.353 OA
HETATM   17  C   UNL     1      38.245 -14.725  -3.693  1.00  0.00     0.210 C 
ENDBRANCH  14  16
BRANCH  15  18
HETATM   18  O   UNL     1      37.831 -11.376  -2.758  1.00  0.00    -0.353 OA
HETATM   19  C   UNL     1      37.157 -10.222  -2.267  1.00  0.00     0.210 C 
ENDBRANCH  15  18
ENDBRANCH   3   4
ENDBRANCH   1   3
BRANCH   1  20
HETATM   20  C   UNL     1      42.826 -13.292   4.834  1.00  0.00     0.024 A 
HETATM   21  C   UNL     1      43.326 -13.810   6.057  1.00  0.00     0.053 A 
HETATM   22  C   UNL     1      43.792 -12.946   7.068  1.00  0.00     0.019 A 
HETATM   23  C   UNL     1      43.750 -11.566   6.903  1.00  0.00     0.001 A 
HETATM   24  C   UNL     1      43.245 -11.038   5.725  1.00  0.00     0.002 A 
HETATM   25  C   UNL     1      42.789 -11.888   4.708  1.00  0.00     0.024 A 
BRANCH  21  26
HETATM   26  C   UNL     1      43.369 -15.261   6.396  1.00  0.00     0.253 C 
HETATM   27  N   UNL     1      44.014 -16.071   5.495  1.00  0.00    -0.351 N 
HETATM   28  H   UNL     1      44.486 -15.635   4.710  1.00  0.00     0.163 HD
HETATM   29  O   UNL     1      42.809 -15.682   7.401  1.00  0.00    -0.268 OA
BRANCH  27  30
HETATM   30  C   UNL     1      44.076 -17.503   5.654  1.00  0.00     0.187 C 
BRANCH  30  31
HETATM   31  C   UNL     1      43.800 -18.141   4.348  1.00  0.00     0.070 A 
HETATM   32  O   UNL     1      43.118 -17.392   3.438  1.00  0.00    -0.325 OA
HETATM   33  C   UNL     1      42.937 -18.170   2.339  1.00  0.00     0.142 A 
HETATM   34  C   UNL     1      43.514 -19.404   2.522  1.00  0.00     0.027 A 
HETATM   35  C   UNL     1      44.077 -19.387   3.820  1.00  0.00     0.036 A 
ENDBRANCH  30  31
ENDBRANCH  27  30
ENDBRANCH  21  26
ENDBRANCH   1  20
TORSDOF 8
ENDMDL
