MODEL 1
REMARK VINA RESULT:      -8.6      0.000      0.000
REMARK  4 active torsions:
REMARK  status: ('A' for Active; 'I' for Inactive)
REMARK    1  A    between atoms: C_7  and  C_8 
REMARK    2  A    between atoms: C_8  and  N_9 
REMARK    3  A    between atoms: N_15  and  C_17 
REMARK    4  A    between atoms: C_21  and  C_22 
ROOT
HETATM    1  N   UNL     1      42.567 -16.478   5.884  1.00  0.00    -0.067 N 
HETATM    2  H   UNL     1      42.172 -17.318   6.332  1.00  0.00     0.280 HD
HETATM    3  C   UNL     1      42.523 -15.402   6.929  1.00  0.00     0.236 C 
HETATM    4  C   UNL     1      42.927 -14.053   6.338  1.00  0.00     0.039 C 
HETATM    5  C   UNL     1      42.113 -13.621   5.085  1.00  0.00    -0.013 C 
HETATM    6  C   UNL     1      40.670 -13.183   5.447  1.00  0.00     0.245 C 
HETATM    7  N   UNL     1      40.662 -11.866   6.188  1.00  0.00    -0.065 N 
HETATM    8  H   UNL     1      41.217 -11.947   7.051  1.00  0.00     0.280 HD
HETATM    9  C   UNL     1      41.283 -10.736   5.372  1.00  0.00     0.244 C 
HETATM   10  C   UNL     1      42.753 -11.060   5.046  1.00  0.00     0.045 C 
HETATM   11  C   UNL     1      42.806 -12.439   4.338  1.00  0.00     0.022 C 
HETATM   12  C   UNL     1      42.073 -14.825   4.092  1.00  0.00     0.039 C 
HETATM   13  C   UNL     1      41.692 -16.171   4.708  1.00  0.00     0.236 C 
ENDROOT
BRANCH   7  14
HETATM   14  C   UNL     1      39.271 -11.491   6.612  1.00  0.00     0.188 A 
HETATM   15  C   UNL     1      39.147 -10.574   7.796  1.00  0.00     0.035 A 
HETATM   16  C   UNL     1      38.859 -10.061   6.414  1.00  0.00     0.035 A 
ENDBRANCH   7  14
BRANCH  10  17
HETATM   17  C   UNL     1      43.758 -10.924   6.188  1.00  0.00    -0.052 A 
HETATM   18  C   UNL     1      43.434 -10.414   7.457  1.00  0.00     0.007 A 
HETATM   19  C   UNL     1      44.401 -10.320   8.465  1.00  0.00     0.001 A 
HETATM   20  C   UNL     1      45.714 -10.706   8.220  1.00  0.00     0.000 A 
HETATM   21  C   UNL     1      46.070 -11.162   6.957  1.00  0.00     0.001 A 
HETATM   22  C   UNL     1      45.105 -11.258   5.951  1.00  0.00     0.007 A 
ENDBRANCH  10  17
BRANCH   1  23
HETATM   23  C   UNL     1      43.969 -16.952   5.502  1.00  0.00     0.277 C 
BRANCH  23  24
HETATM   24  C   UNL     1      43.933 -18.211   4.723  1.00  0.00     0.011 A 
HETATM   25  C   UNL     1      43.764 -18.398   3.356  1.00  0.00     0.035 A 
HETATM   26  C   UNL     1      43.636 -17.431   2.234  1.00  0.00     0.070 C 
HETATM   27  N   UNL     1      43.764 -19.763   3.163  1.00  0.00    -0.278 N 
HETATM   28  C   UNL     1      43.634 -20.504   1.928  1.00  0.00     0.179 C 
HETATM   29  N   UNL     1      43.898 -20.448   4.310  1.00  0.00    -0.185 NA
HETATM   30  C   UNL     1      44.058 -19.518   5.243  1.00  0.00     0.149 A 
ENDBRANCH  23  24
ENDBRANCH   1  23
TORSDOF 4
ENDMDL
MODEL 2
REMARK VINA RESULT:      -8.5      4.235      6.447
REMARK  4 active torsions:
REMARK  status: ('A' for Active; 'I' for Inactive)
REMARK    1  A    between atoms: C_7  and  C_8 
REMARK    2  A    between atoms: C_8  and  N_9 
REMARK    3  A    between atoms: N_15  and  C_17 
REMARK    4  A    between atoms: C_21  and  C_22 
ROOT
HETATM    1  N   UNL     1      41.461 -14.489   0.671  1.00  0.00    -0.067 N 
HETATM    2  H   UNL     1      41.818 -14.926  -0.192  1.00  0.00     0.280 HD
HETATM    3  C   UNL     1      42.607 -14.507   1.639  1.00  0.00     0.236 C 
HETATM    4  C   UNL     1      42.159 -14.038   3.022  1.00  0.00     0.039 C 
HETATM    5  C   UNL     1      40.945 -14.812   3.609  1.00  0.00    -0.013 C 
HETATM    6  C   UNL     1      41.330 -16.242   4.071  1.00  0.00     0.245 C 
HETATM    7  N   UNL     1      42.198 -16.209   5.307  1.00  0.00    -0.065 N 
HETATM    8  H   UNL     1      43.056 -15.673   5.118  1.00  0.00     0.280 HD
HETATM    9  C   UNL     1      41.507 -15.528   6.485  1.00  0.00     0.244 C 
HETATM   10  C   UNL     1      41.170 -14.067   6.133  1.00  0.00     0.045 C 
HETATM   11  C   UNL     1      40.329 -14.058   4.830  1.00  0.00     0.022 C 
HETATM   12  C   UNL     1      39.836 -14.884   2.512  1.00  0.00     0.039 C 
HETATM   13  C   UNL     1      40.310 -15.331   1.130  1.00  0.00     0.236 C 
ENDROOT
BRANCH   7  14
HETATM   14  C   UNL     1      42.639 -17.591   5.696  1.00  0.00     0.188 A 
HETATM   15  C   UNL     1      44.104 -17.897   5.569  1.00  0.00     0.035 A 
HETATM   16  C   UNL     1      43.490 -17.714   6.927  1.00  0.00     0.035 A 
ENDBRANCH   7  14
BRANCH  10  17
HETATM   17  C   UNL     1      42.333 -13.078   6.112  1.00  0.00    -0.052 A 
HETATM   18  C   UNL     1      43.604 -13.354   6.645  1.00  0.00     0.007 A 
HETATM   19  C   UNL     1      44.631 -12.406   6.590  1.00  0.00     0.001 A 
HETATM   20  C   UNL     1      44.405 -11.154   6.028  1.00  0.00     0.000 A 
HETATM   21  C   UNL     1      43.143 -10.839   5.543  1.00  0.00     0.001 A 
HETATM   22  C   UNL     1      42.117 -11.785   5.596  1.00  0.00     0.007 A 
ENDBRANCH  10  17
BRANCH   1  23
HETATM   23  C   UNL     1      41.053 -13.101   0.177  1.00  0.00     0.277 C 
BRANCH  23  24
HETATM   24  C   UNL     1      40.097 -13.175  -0.951  1.00  0.00     0.011 A 
HETATM   25  C   UNL     1      38.802 -12.680  -1.045  1.00  0.00     0.035 A 
HETATM   26  C   UNL     1      37.982 -11.871  -0.104  1.00  0.00     0.070 C 
HETATM   27  N   UNL     1      38.345 -13.061  -2.288  1.00  0.00    -0.278 N 
HETATM   28  C   UNL     1      37.064 -12.795  -2.903  1.00  0.00     0.179 C 
HETATM   29  N   UNL     1      39.249 -13.778  -2.975  1.00  0.00    -0.185 NA
HETATM   30  C   UNL     1      40.324 -13.799  -2.198  1.00  0.00     0.149 A 
ENDBRANCH  23  24
ENDBRANCH   1  23
TORSDOF 4
ENDMDL
MODEL 3
REMARK VINA RESULT:      -8.3      1.498      2.338
REMARK  4 active torsions:
REMARK  status: ('A' for Active; 'I' for Inactive)
REMARK    1  A    between atoms: C_7  and  C_8 
REMARK    2  A    between atoms: C_8  and  N_9 
REMARK    3  A    between atoms: N_15  and  C_17 
REMARK    4  A    between atoms: C_21  and  C_22 
ROOT
HETATM    1  N   UNL     1      41.831 -15.880   2.824  1.00  0.00    -0.067 N 
HETATM    2  H   UNL     1      41.306 -16.763   2.911  1.00  0.00     0.280 HD
HETATM    3  C   UNL     1      41.694 -15.195   4.153  1.00  0.00     0.236 C 
HETATM    4  C   UNL     1      42.288 -13.789   4.104  1.00  0.00     0.039 C 
HETATM    5  C   UNL     1      41.728 -12.884   2.970  1.00  0.00    -0.013 C 
HETATM    6  C   UNL     1      40.281 -12.408   3.263  1.00  0.00     0.245 C 
HETATM    7  N   UNL     1      40.247 -11.404   4.392  1.00  0.00    -0.065 N 
HETATM    8  H   UNL     1      40.645 -11.823   5.244  1.00  0.00     0.280 HD
HETATM    9  C   UNL     1      41.078 -10.160   4.088  1.00  0.00     0.244 C 
HETATM   10  C   UNL     1      42.553 -10.543   3.871  1.00  0.00     0.045 C 
HETATM   11  C   UNL     1      42.621 -11.622   2.758  1.00  0.00     0.022 C 
HETATM   12  C   UNL     1      41.765 -13.696   1.636  1.00  0.00     0.039 C 
HETATM   13  C   UNL     1      41.188 -15.109   1.713  1.00  0.00     0.236 C 
ENDROOT
BRANCH   7  14
HETATM   14  C   UNL     1      38.837 -11.014   4.728  1.00  0.00     0.188 A 
HETATM   15  C   UNL     1      38.502 -10.873   6.186  1.00  0.00     0.035 A 
HETATM   16  C   UNL     1      38.630  -9.651   5.322  1.00  0.00     0.035 A 
ENDBRANCH   7  14
BRANCH  10  17
HETATM   17  C   UNL     1      43.361 -10.903   5.116  1.00  0.00    -0.052 A 
HETATM   18  C   UNL     1      44.644 -11.477   5.077  1.00  0.00     0.007 A 
HETATM   19  C   UNL     1      45.335 -11.778   6.255  1.00  0.00     0.001 A 
HETATM   20  C   UNL     1      44.753 -11.540   7.494  1.00  0.00     0.000 A 
HETATM   21  C   UNL     1      43.466 -11.022   7.559  1.00  0.00     0.001 A 
HETATM   22  C   UNL     1      42.775 -10.720   6.383  1.00  0.00     0.007 A 
ENDBRANCH  10  17
BRANCH   1  23
HETATM   23  C   UNL     1      43.237 -16.379   2.496  1.00  0.00     0.277 C 
BRANCH  23  24
HETATM   24  C   UNL     1      43.457 -17.764   2.972  1.00  0.00     0.011 A 
HETATM   25  C   UNL     1      43.933 -18.211   4.199  1.00  0.00     0.035 A 
HETATM   26  C   UNL     1      44.307 -17.482   5.440  1.00  0.00     0.070 C 
HETATM   27  N   UNL     1      43.986 -19.584   4.102  1.00  0.00    -0.278 N 
HETATM   28  C   UNL     1      44.397 -20.549   5.097  1.00  0.00     0.179 C 
HETATM   29  N   UNL     1      43.598 -20.034   2.896  1.00  0.00    -0.185 NA
HETATM   30  C   UNL     1      43.225 -18.946   2.235  1.00  0.00     0.149 A 
ENDBRANCH  23  24
ENDBRANCH   1  23
TORSDOF 4
ENDMDL
MODEL 4
REMARK VINA RESULT:      -8.0     15.968     18.387
REMARK  4 active torsions:
REMARK  status: ('A' for Active; 'I' for Inactive)
REMARK    1  A    between atoms: C_7  and  C_8 
REMARK    2  A    between atoms: C_8  and  N_9 
REMARK    3  A    between atoms: N_15  and  C_17 
REMARK    4  A    between atoms: C_21  and  C_22 
ROOT
HETATM    1  N   UNL     1      44.343 -30.503   2.418  1.00  0.00    -0.067 N 
HETATM    2  H   UNL     1      44.137 -31.247   3.102  1.00  0.00     0.280 HD
HETATM    3  C   UNL     1      44.724 -31.213   1.152  1.00  0.00     0.236 C 
HETATM    4  C   UNL     1      45.219 -30.221   0.101  1.00  0.00     0.039 C 
HETATM    5  C   UNL     1      46.378 -29.297   0.572  1.00  0.00    -0.013 C 
HETATM    6  C   UNL     1      47.725 -30.058   0.682  1.00  0.00     0.245 C 
HETATM    7  N   UNL     1      48.266 -30.425  -0.680  1.00  0.00    -0.065 N 
HETATM    8  H   UNL     1      47.585 -31.014  -1.180  1.00  0.00     0.280 HD
HETATM    9  C   UNL     1      48.512 -29.200  -1.557  1.00  0.00     0.244 C 
HETATM   10  C   UNL     1      47.196 -28.435  -1.786  1.00  0.00     0.045 C 
HETATM   11  C   UNL     1      46.578 -28.096  -0.405  1.00  0.00     0.022 C 
HETATM   12  C   UNL     1      45.988 -28.695   1.959  1.00  0.00     0.039 C 
HETATM   13  C   UNL     1      45.472 -29.700   2.988  1.00  0.00     0.236 C 
ENDROOT
BRANCH   7  14
HETATM   14  C   UNL     1      49.524 -31.237  -0.563  1.00  0.00     0.188 A 
HETATM   15  C   UNL     1      49.634 -32.448  -1.446  1.00  0.00     0.035 A 
HETATM   16  C   UNL     1      50.455 -31.226  -1.740  1.00  0.00     0.035 A 
ENDBRANCH   7  14
BRANCH  10  17
HETATM   17  C   UNL     1      46.199 -29.058  -2.761  1.00  0.00    -0.052 A 
HETATM   18  C   UNL     1      46.414 -30.276  -3.428  1.00  0.00     0.007 A 
HETATM   19  C   UNL     1      45.458 -30.797  -4.307  1.00  0.00     0.001 A 
HETATM   20  C   UNL     1      44.281 -30.102  -4.559  1.00  0.00     0.000 A 
HETATM   21  C   UNL     1      44.069 -28.870  -3.953  1.00  0.00     0.001 A 
HETATM   22  C   UNL     1      45.022 -28.350  -3.075  1.00  0.00     0.007 A 
ENDBRANCH  10  17
BRANCH   1  23
HETATM   23  C   UNL     1      43.015 -29.749   2.362  1.00  0.00     0.277 C 
BRANCH  23  24
HETATM   24  C   UNL     1      41.922 -30.504   3.017  1.00  0.00     0.011 A 
HETATM   25  C   UNL     1      41.166 -31.563   2.529  1.00  0.00     0.035 A 
HETATM   26  C   UNL     1      41.238 -32.325   1.253  1.00  0.00     0.070 C 
HETATM   27  N   UNL     1      40.258 -31.863   3.521  1.00  0.00    -0.278 N 
HETATM   28  C   UNL     1      39.242 -32.891   3.540  1.00  0.00     0.179 C 
HETATM   29  N   UNL     1      40.373 -31.056   4.589  1.00  0.00    -0.185 NA
HETATM   30  C   UNL     1      41.410 -30.276   4.313  1.00  0.00     0.149 A 
ENDBRANCH  23  24
ENDBRANCH   1  23
TORSDOF 4
ENDMDL
MODEL 5
REMARK VINA RESULT:      -7.9      3.549      6.758
REMARK  4 active torsions:
REMARK  status: ('A' for Active; 'I' for Inactive)
REMARK    1  A    between atoms: C_7  and  C_8 
REMARK    2  A    between atoms: C_8  and  N_9 
REMARK    3  A    between atoms: N_15  and  C_17 
REMARK    4  A    between atoms: C_21  and  C_22 
ROOT
HETATM    1  N   UNL     1      41.160 -14.496   0.858  1.00  0.00    -0.067 N 
HETATM    2  H   UNL     1      41.464 -14.633  -0.117  1.00  0.00     0.280 HD
HETATM    3  C   UNL     1      42.410 -14.203   1.635  1.00  0.00     0.236 C 
HETATM    4  C   UNL     1      42.119 -14.146   3.133  1.00  0.00     0.039 C 
HETATM    5  C   UNL     1      41.411 -15.406   3.707  1.00  0.00    -0.013 C 
HETATM    6  C   UNL     1      42.368 -16.623   3.803  1.00  0.00     0.245 C 
HETATM    7  N   UNL     1      43.401 -16.429   4.887  1.00  0.00    -0.065 N 
HETATM    8  H   UNL     1      43.952 -15.580   4.699  1.00  0.00     0.280 HD
HETATM    9  C   UNL     1      42.771 -16.244   6.265  1.00  0.00     0.244 C 
HETATM   10  C   UNL     1      41.869 -14.996   6.275  1.00  0.00     0.045 C 
HETATM   11  C   UNL     1      40.831 -15.131   5.130  1.00  0.00     0.022 C 
HETATM   12  C   UNL     1      40.200 -15.748   2.782  1.00  0.00     0.039 C 
HETATM   13  C   UNL     1      40.507 -15.775   1.285  1.00  0.00     0.236 C 
ENDROOT
BRANCH   7  14
HETATM   14  C   UNL     1      44.377 -17.570   4.916  1.00  0.00     0.188 A 
HETATM   15  C   UNL     1      43.846 -18.906   5.353  1.00  0.00     0.035 A 
HETATM   16  C   UNL     1      44.177 -18.665   3.908  1.00  0.00     0.035 A 
ENDBRANCH   7  14
BRANCH  10  17
HETATM   17  C   UNL     1      42.570 -13.640   6.303  1.00  0.00    -0.052 A 
HETATM   18  C   UNL     1      43.928 -13.468   6.621  1.00  0.00     0.007 A 
HETATM   19  C   UNL     1      44.514 -12.198   6.623  1.00  0.00     0.001 A 
HETATM   20  C   UNL     1      43.752 -11.071   6.335  1.00  0.00     0.000 A 
HETATM   21  C   UNL     1      42.396 -11.209   6.069  1.00  0.00     0.001 A 
HETATM   22  C   UNL     1      41.811 -12.477   6.066  1.00  0.00     0.007 A 
ENDBRANCH  10  17
BRANCH   1  23
HETATM   23  C   UNL     1      40.190 -13.322   0.726  1.00  0.00     0.277 C 
BRANCH  23  24
HETATM   24  C   UNL     1      40.738 -12.248  -0.133  1.00  0.00     0.011 A 
HETATM   25  C   UNL     1      41.256 -11.009   0.226  1.00  0.00     0.035 A 
HETATM   26  C   UNL     1      41.497 -10.385   1.555  1.00  0.00     0.070 C 
HETATM   27  N   UNL     1      41.582 -10.383  -0.957  1.00  0.00    -0.278 N 
HETATM   28  C   UNL     1      42.169  -9.077  -1.161  1.00  0.00     0.179 C 
HETATM   29  N   UNL     1      41.287 -11.127  -2.036  1.00  0.00    -0.185 NA
HETATM   30  C   UNL     1      40.833 -12.272  -1.542  1.00  0.00     0.149 A 
ENDBRANCH  23  24
ENDBRANCH   1  23
TORSDOF 4
ENDMDL
MODEL 6
REMARK VINA RESULT:      -7.6      3.800      5.746
REMARK  4 active torsions:
REMARK  status: ('A' for Active; 'I' for Inactive)
REMARK    1  A    between atoms: C_7  and  C_8 
REMARK    2  A    between atoms: C_8  and  N_9 
REMARK    3  A    between atoms: N_15  and  C_17 
REMARK    4  A    between atoms: C_21  and  C_22 
ROOT
HETATM    1  N   UNL     1      43.305 -15.352   3.044  1.00  0.00    -0.067 N 
HETATM    2  H   UNL     1      44.225 -15.393   3.506  1.00  0.00     0.280 HD
HETATM    3  C   UNL     1      43.382 -14.197   2.089  1.00  0.00     0.236 C 
HETATM    4  C   UNL     1      42.019 -13.921   1.457  1.00  0.00     0.039 C 
HETATM    5  C   UNL     1      40.863 -13.704   2.474  1.00  0.00    -0.013 C 
HETATM    6  C   UNL     1      40.961 -12.330   3.187  1.00  0.00     0.245 C 
HETATM    7  N   UNL     1      40.649 -11.193   2.242  1.00  0.00    -0.065 N 
HETATM    8  H   UNL     1      41.304 -11.209   1.447  1.00  0.00     0.280 HD
HETATM    9  C   UNL     1      39.245 -11.295   1.653  1.00  0.00     0.244 C 
HETATM   10  C   UNL     1      39.096 -12.601   0.850  1.00  0.00     0.045 C 
HETATM   11  C   UNL     1      39.470 -13.790   1.774  1.00  0.00     0.022 C 
HETATM   12  C   UNL     1      40.915 -14.858   3.524  1.00  0.00     0.039 C 
HETATM   13  C   UNL     1      42.292 -15.135   4.126  1.00  0.00     0.236 C 
ENDROOT
BRANCH   7  14
HETATM   14  C   UNL     1      40.831  -9.863   2.915  1.00  0.00     0.188 A 
HETATM   15  C   UNL     1      40.685  -8.641   2.053  1.00  0.00     0.035 A 
HETATM   16  C   UNL     1      39.615  -8.993   3.046  1.00  0.00     0.035 A 
ENDBRANCH   7  14
BRANCH  10  17
HETATM   17  C   UNL     1      39.781 -12.652  -0.513  1.00  0.00    -0.052 A 
HETATM   18  C   UNL     1      40.557 -11.605  -1.039  1.00  0.00     0.007 A 
HETATM   19  C   UNL     1      41.164 -11.716  -2.294  1.00  0.00     0.001 A 
HETATM   20  C   UNL     1      40.987 -12.860  -3.063  1.00  0.00     0.000 A 
HETATM   21  C   UNL     1      40.182 -13.887  -2.589  1.00  0.00     0.001 A 
HETATM   22  C   UNL     1      39.576 -13.778  -1.335  1.00  0.00     0.007 A 
ENDBRANCH  10  17
BRANCH   1  23
HETATM   23  C   UNL     1      43.220 -16.730   2.387  1.00  0.00     0.277 C 
BRANCH  23  24
HETATM   24  C   UNL     1      43.592 -17.813   3.325  1.00  0.00     0.011 A 
HETATM   25  C   UNL     1      43.588 -19.189   3.130  1.00  0.00     0.035 A 
HETATM   26  C   UNL     1      43.287 -20.017   1.932  1.00  0.00     0.070 C 
HETATM   27  N   UNL     1      43.977 -19.738   4.332  1.00  0.00    -0.278 N 
HETATM   28  C   UNL     1      44.153 -21.131   4.679  1.00  0.00     0.179 C 
HETATM   29  N   UNL     1      44.205 -18.810   5.276  1.00  0.00    -0.185 NA
HETATM   30  C   UNL     1      44.031 -17.650   4.657  1.00  0.00     0.149 A 
ENDBRANCH  23  24
ENDBRANCH   1  23
TORSDOF 4
ENDMDL
MODEL 7
REMARK VINA RESULT:      -7.5      2.579      3.589
REMARK  4 active torsions:
REMARK  status: ('A' for Active; 'I' for Inactive)
REMARK    1  A    between atoms: C_7  and  C_8 
REMARK    2  A    between atoms: C_8  and  N_9 
REMARK    3  A    between atoms: N_15  and  C_17 
REMARK    4  A    between atoms: C_21  and  C_22 
ROOT
HETATM    1  N   UNL     1      42.268 -15.789   3.701  1.00  0.00    -0.067 N 
HETATM    2  H   UNL     1      41.897 -16.750   3.660  1.00  0.00     0.280 HD
HETATM    3  C   UNL     1      41.114 -14.927   4.123  1.00  0.00     0.236 C 
HETATM    4  C   UNL     1      41.488 -13.447   4.059  1.00  0.00     0.039 C 
HETATM    5  C   UNL     1      42.040 -12.975   2.684  1.00  0.00    -0.013 C 
HETATM    6  C   UNL     1      40.927 -12.878   1.608  1.00  0.00     0.245 C 
HETATM    7  N   UNL     1      39.989 -11.727   1.885  1.00  0.00    -0.065 N 
HETATM    8  H   UNL     1      39.555 -11.843   2.811  1.00  0.00     0.280 HD
HETATM    9  C   UNL     1      40.711 -10.382   1.907  1.00  0.00     0.244 C 
HETATM   10  C   UNL     1      41.780 -10.368   3.015  1.00  0.00     0.045 C 
HETATM   11  C   UNL     1      42.727 -11.578   2.799  1.00  0.00     0.022 C 
HETATM   12  C   UNL     1      43.140 -13.985   2.227  1.00  0.00     0.039 C 
HETATM   13  C   UNL     1      42.755 -15.461   2.323  1.00  0.00     0.236 C 
ENDROOT
BRANCH   7  14
HETATM   14  C   UNL     1      38.864 -11.692   0.890  1.00  0.00     0.188 A 
HETATM   15  C   UNL     1      37.490 -11.418   1.431  1.00  0.00     0.035 A 
HETATM   16  C   UNL     1      38.212 -10.362   0.644  1.00  0.00     0.035 A 
ENDBRANCH   7  14
BRANCH  10  17
HETATM   17  C   UNL     1      41.280 -10.237   4.452  1.00  0.00    -0.052 A 
HETATM   18  C   UNL     1      39.927 -10.081   4.798  1.00  0.00     0.007 A 
HETATM   19  C   UNL     1      39.532  -9.972   6.136  1.00  0.00     0.001 A 
HETATM   20  C   UNL     1      40.479  -9.989   7.153  1.00  0.00     0.000 A 
HETATM   21  C   UNL     1      41.827 -10.089   6.833  1.00  0.00     0.001 A 
HETATM   22  C   UNL     1      42.222 -10.200   5.498  1.00  0.00     0.007 A 
ENDBRANCH  10  17
BRANCH   1  23
HETATM   23  C   UNL     1      43.386 -15.925   4.734  1.00  0.00     0.277 C 
BRANCH  23  24
HETATM   24  C   UNL     1      43.521 -17.317   5.221  1.00  0.00     0.011 A 
HETATM   25  C   UNL     1      43.869 -18.466   4.522  1.00  0.00     0.035 A 
HETATM   26  C   UNL     1      44.280 -18.677   3.108  1.00  0.00     0.070 C 
HETATM   27  N   UNL     1      43.802 -19.495   5.436  1.00  0.00    -0.278 N 
HETATM   28  C   UNL     1      44.079 -20.901   5.241  1.00  0.00     0.179 C 
HETATM   29  N   UNL     1      43.417 -19.081   6.654  1.00  0.00    -0.185 NA
HETATM   30  C   UNL     1      43.303 -17.764   6.543  1.00  0.00     0.149 A 
ENDBRANCH  23  24
ENDBRANCH   1  23
TORSDOF 4
ENDMDL
MODEL 8
REMARK VINA RESULT:      -7.5      4.978      7.294
REMARK  4 active torsions:
REMARK  status: ('A' for Active; 'I' for Inactive)
REMARK    1  A    between atoms: C_7  and  C_8 
REMARK    2  A    between atoms: C_8  and  N_9 
REMARK    3  A    between atoms: N_15  and  C_17 
REMARK    4  A    between atoms: C_21  and  C_22 
ROOT
HETATM    1  N   UNL     1      41.577 -12.112   3.826  1.00  0.00    -0.067 N 
HETATM    2  H   UNL     1      42.419 -12.141   4.420  1.00  0.00     0.280 HD
HETATM    3  C   UNL     1      42.079 -12.111   2.412  1.00  0.00     0.236 C 
HETATM    4  C   UNL     1      40.930 -11.900   1.427  1.00  0.00     0.039 C 
HETATM    5  C   UNL     1      40.068 -10.634   1.695  1.00  0.00    -0.013 C 
HETATM    6  C   UNL     1      40.813  -9.328   1.314  1.00  0.00     0.245 C 
HETATM    7  N   UNL     1      40.959  -9.191  -0.183  1.00  0.00    -0.065 N 
HETATM    8  H   UNL     1      41.477  -9.997  -0.559  1.00  0.00     0.280 HD
HETATM    9  C   UNL     1      39.611  -9.165  -0.899  1.00  0.00     0.244 C 
HETATM   10  C   UNL     1      38.844 -10.475  -0.640  1.00  0.00     0.045 C 
HETATM   11  C   UNL     1      38.729 -10.680   0.893  1.00  0.00     0.022 C 
HETATM   12  C   UNL     1      39.690 -10.613   3.210  1.00  0.00     0.039 C 
HETATM   13  C   UNL     1      40.849 -10.851   4.178  1.00  0.00     0.236 C 
ENDROOT
BRANCH   7  14
HETATM   14  C   UNL     1      41.757  -7.970  -0.541  1.00  0.00     0.188 A 
HETATM   15  C   UNL     1      42.959  -8.178  -1.418  1.00  0.00     0.035 A 
HETATM   16  C   UNL     1      41.724  -7.529  -1.976  1.00  0.00     0.035 A 
ENDBRANCH   7  14
BRANCH  10  17
HETATM   17  C   UNL     1      39.330 -11.716  -1.385  1.00  0.00    -0.052 A 
HETATM   18  C   UNL     1      40.358 -11.701  -2.342  1.00  0.00     0.007 A 
HETATM   19  C   UNL     1      40.762 -12.875  -2.987  1.00  0.00     0.001 A 
HETATM   20  C   UNL     1      40.130 -14.082  -2.711  1.00  0.00     0.000 A 
HETATM   21  C   UNL     1      39.076 -14.114  -1.808  1.00  0.00     0.001 A 
HETATM   22  C   UNL     1      38.673 -12.942  -1.162  1.00  0.00     0.007 A 
ENDBRANCH  10  17
BRANCH   1  23
HETATM   23  C   UNL     1      40.846 -13.386   4.252  1.00  0.00     0.277 C 
BRANCH  23  24
HETATM   24  C   UNL     1      41.633 -14.602   3.946  1.00  0.00     0.011 A 
HETATM   25  C   UNL     1      41.399 -15.588   2.994  1.00  0.00     0.035 A 
HETATM   26  C   UNL     1      40.355 -15.720   1.944  1.00  0.00     0.070 C 
HETATM   27  N   UNL     1      42.406 -16.514   3.161  1.00  0.00    -0.278 N 
HETATM   28  C   UNL     1      42.647 -17.734   2.422  1.00  0.00     0.179 C 
HETATM   29  N   UNL     1      43.243 -16.195   4.161  1.00  0.00    -0.185 NA
HETATM   30  C   UNL     1      42.815 -15.018   4.598  1.00  0.00     0.149 A 
ENDBRANCH  23  24
ENDBRANCH   1  23
TORSDOF 4
ENDMDL
MODEL 9
REMARK VINA RESULT:      -7.3      2.783      8.303
REMARK  4 active torsions:
REMARK  status: ('A' for Active; 'I' for Inactive)
REMARK    1  A    between atoms: C_7  and  C_8 
REMARK    2  A    between atoms: C_8  and  N_9 
REMARK    3  A    between atoms: N_15  and  C_17 
REMARK    4  A    between atoms: C_21  and  C_22 
ROOT
HETATM    1  N   UNL     1      45.004 -10.083   8.775  1.00  0.00    -0.067 N 
HETATM    2  H   UNL     1      45.294 -10.132   9.763  1.00  0.00     0.280 HD
HETATM    3  C   UNL     1      43.684 -10.792   8.705  1.00  0.00     0.236 C 
HETATM    4  C   UNL     1      43.221 -10.938   7.257  1.00  0.00     0.039 C 
HETATM    5  C   UNL     1      44.250 -11.619   6.311  1.00  0.00    -0.013 C 
HETATM    6  C   UNL     1      44.363 -13.145   6.570  1.00  0.00     0.245 C 
HETATM    7  N   UNL     1      43.120 -13.876   6.119  1.00  0.00    -0.065 N 
HETATM    8  H   UNL     1      42.298 -13.508   6.617  1.00  0.00     0.280 HD
HETATM    9  C   UNL     1      42.847 -13.693   4.628  1.00  0.00     0.244 C 
HETATM   10  C   UNL     1      42.635 -12.202   4.304  1.00  0.00     0.045 C 
HETATM   11  C   UNL     1      43.868 -11.409   4.812  1.00  0.00     0.022 C 
HETATM   12  C   UNL     1      45.637 -10.936   6.526  1.00  0.00     0.039 C 
HETATM   13  C   UNL     1      46.070 -10.776   7.983  1.00  0.00     0.236 C 
ENDROOT
BRANCH   7  14
HETATM   14  C   UNL     1      43.201 -15.338   6.452  1.00  0.00     0.188 A 
HETATM   15  C   UNL     1      42.035 -15.929   7.194  1.00  0.00     0.035 A 
HETATM   16  C   UNL     1      42.245 -16.253   5.743  1.00  0.00     0.035 A 
ENDBRANCH   7  14
BRANCH  10  17
HETATM   17  C   UNL     1      41.302 -11.589   4.727  1.00  0.00    -0.052 A 
HETATM   18  C   UNL     1      40.299 -12.295   5.413  1.00  0.00     0.007 A 
HETATM   19  C   UNL     1      39.100 -11.673   5.778  1.00  0.00     0.001 A 
HETATM   20  C   UNL     1      38.865 -10.345   5.444  1.00  0.00     0.000 A 
HETATM   21  C   UNL     1      39.819  -9.641   4.720  1.00  0.00     0.001 A 
HETATM   22  C   UNL     1      41.017 -10.260   4.356  1.00  0.00     0.007 A 
ENDBRANCH  10  17
BRANCH   1  23
HETATM   23  C   UNL     1      44.942  -8.574   8.539  1.00  0.00     0.277 C 
BRANCH  23  24
HETATM   24  C   UNL     1      43.717  -7.975   9.116  1.00  0.00     0.011 A 
HETATM   25  C   UNL     1      43.243  -8.023  10.422  1.00  0.00     0.035 A 
HETATM   26  C   UNL     1      43.816  -8.610  11.662  1.00  0.00     0.070 C 
HETATM   27  N   UNL     1      42.044  -7.343  10.409  1.00  0.00    -0.278 N 
HETATM   28  C   UNL     1      41.138  -7.081  11.505  1.00  0.00     0.179 C 
HETATM   29  N   UNL     1      41.718  -6.890   9.187  1.00  0.00    -0.185 NA
HETATM   30  C   UNL     1      42.750  -7.218   8.419  1.00  0.00     0.149 A 
ENDBRANCH  23  24
ENDBRANCH   1  23
TORSDOF 4
ENDMDL
MODEL 10
REMARK VINA RESULT:      -7.2      3.523      6.545
REMARK  4 active torsions:
REMARK  status: ('A' for Active; 'I' for Inactive)
REMARK    1  A    between atoms: C_7  and  C_8 
REMARK    2  A    between atoms: C_8  and  N_9 
REMARK    3  A    between atoms: N_15  and  C_17 
REMARK    4  A    between atoms: C_21  and  C_22 
ROOT
HETATM    1  N   UNL     1      39.386  -9.736   6.355  1.00  0.00    -0.067 N 
HETATM    2  H   UNL     1      38.552 -10.337   6.283  1.00  0.00     0.280 HD
HETATM    3  C   UNL     1      39.900  -9.922   7.753  1.00  0.00     0.236 C 
HETATM    4  C   UNL     1      41.043  -8.953   8.045  1.00  0.00     0.039 C 
HETATM    5  C   UNL     1      40.710  -7.456   7.788  1.00  0.00    -0.013 C 
HETATM    6  C   UNL     1      39.761  -6.874   8.868  1.00  0.00     0.245 C 
HETATM    7  N   UNL     1      40.462  -6.726  10.198  1.00  0.00    -0.065 N 
HETATM    8  H   UNL     1      40.812  -7.641  10.513  1.00  0.00     0.280 HD
HETATM    9  C   UNL     1      41.672  -5.799  10.117  1.00  0.00     0.244 C 
HETATM   10  C   UNL     1      42.707  -6.359   9.123  1.00  0.00     0.045 C 
HETATM   11  C   UNL     1      42.004  -6.584   7.758  1.00  0.00     0.022 C 
HETATM   12  C   UNL     1      40.050  -7.340   6.377  1.00  0.00     0.039 C 
HETATM   13  C   UNL     1      38.926  -8.335   6.095  1.00  0.00     0.236 C 
ENDROOT
BRANCH   7  14
HETATM   14  C   UNL     1      39.515  -6.245  11.260  1.00  0.00     0.188 A 
HETATM   15  C   UNL     1      39.200  -7.204  12.372  1.00  0.00     0.035 A 
HETATM   16  C   UNL     1      40.084  -6.019  12.631  1.00  0.00     0.035 A 
ENDBRANCH   7  14
BRANCH  10  17
HETATM   17  C   UNL     1      43.529  -7.558   9.588  1.00  0.00    -0.052 A 
HETATM   18  C   UNL     1      43.371  -8.176  10.840  1.00  0.00     0.007 A 
HETATM   19  C   UNL     1      44.154  -9.278  11.205  1.00  0.00     0.001 A 
HETATM   20  C   UNL     1      45.127  -9.767  10.342  1.00  0.00     0.000 A 
HETATM   21  C   UNL     1      45.339  -9.140   9.120  1.00  0.00     0.001 A 
HETATM   22  C   UNL     1      44.557  -8.041   8.754  1.00  0.00     0.007 A 
ENDBRANCH  10  17
BRANCH   1  23
HETATM   23  C   UNL     1      40.282 -10.305   5.255  1.00  0.00     0.277 C 
BRANCH  23  24
HETATM   24  C   UNL     1      40.795 -11.651   5.602  1.00  0.00     0.011 A 
HETATM   25  C   UNL     1      42.078 -12.038   5.970  1.00  0.00     0.035 A 
HETATM   26  C   UNL     1      43.319 -11.252   6.204  1.00  0.00     0.070 C 
HETATM   27  N   UNL     1      42.023 -13.404   6.138  1.00  0.00    -0.278 N 
HETATM   28  C   UNL     1      43.076 -14.313   6.532  1.00  0.00     0.179 C 
HETATM   29  N   UNL     1      40.804 -13.909   5.881  1.00  0.00    -0.185 NA
HETATM   30  C   UNL     1      40.050 -12.850   5.615  1.00  0.00     0.149 A 
ENDBRANCH  23  24
ENDBRANCH   1  23
TORSDOF 4
ENDMDL
