MODEL 1
REMARK VINA RESULT:      -9.1      0.000      0.000
REMARK  8 active torsions:
REMARK  status: ('A' for Active; 'I' for Inactive)
REMARK    1  A    between atoms: C_4  and  N_5 
REMARK    2  A    between atoms: C_8  and  C_9 
REMARK    3  A    between atoms: C_9  and  N_10 
REMARK       I    between atoms: N_10  and  C_11 
REMARK       I    between atoms: C_11  and  N_12 
REMARK    4  A    between atoms: N_12  and  C_13 
REMARK    5  A    between atoms: C_13  and  C_14 
REMARK    6  A    between atoms: C_14  and  N_15 
REMARK       I    between atoms: N_15  and  C_16 
REMARK    7  A    between atoms: C_16  and  C_17 
REMARK    8  A    between atoms: C_18  and  O_19 
ROOT
HETATM    1  N   UNL     1      44.127 -12.446   5.825  1.00  0.00    -0.339 N 
HETATM    2  C   UNL     1      44.753 -11.896   6.909  1.00  0.00     0.316 C 
HETATM    3  N   UNL     1      45.839 -11.150   6.555  1.00  0.00    -0.342 N 
HETATM    4  O   UNL     1      44.352 -12.022   8.059  1.00  0.00    -0.248 OA
HETATM    5  H   UNL     1      44.668 -12.571   4.985  1.00  0.00     0.164 HD
HETATM    6  H   UNL     1      46.248 -11.278   5.643  1.00  0.00     0.164 HD
ENDROOT
BRANCH   1   7
HETATM    7  C   UNL     1      42.965 -13.278   6.018  1.00  0.00     0.166 C 
BRANCH   7   8
HETATM    8  C   UNL     1      43.349 -14.699   5.839  1.00  0.00    -0.004 A 
HETATM    9  C   UNL     1      44.020 -15.528   6.757  1.00  0.00     0.149 A 
HETATM   10  N   UNL     1      44.208 -16.765   6.301  1.00  0.00    -0.180 NA
HETATM   11  N   UNL     1      43.640 -16.770   5.065  1.00  0.00    -0.245 N 
HETATM   12  C   UNL     1      43.118 -15.530   4.760  1.00  0.00     0.129 A 
BRANCH  11  13
HETATM   13  C   UNL     1      43.636 -17.948   4.267  1.00  0.00     0.058 A 
HETATM   14  C   UNL     1      43.187 -17.879   2.938  1.00  0.00     0.031 A 
HETATM   15  C   UNL     1      43.177 -19.023   2.136  1.00  0.00     0.002 A 
HETATM   16  C   UNL     1      43.613 -20.241   2.653  1.00  0.00     0.000 A 
HETATM   17  C   UNL     1      44.059 -20.318   3.971  1.00  0.00     0.002 A 
HETATM   18  C   UNL     1      44.074 -19.177   4.779  1.00  0.00     0.031 A 
ENDBRANCH  11  13
ENDBRANCH   7   8
ENDBRANCH   1   7
BRANCH   3  19
HETATM   19  C   UNL     1      46.661 -10.484   7.552  1.00  0.00     0.144 C 
BRANCH  19  20
HETATM   20  C   UNL     1      46.061  -9.150   8.011  1.00  0.00     0.142 C 
BRANCH  20  21
HETATM   21  N   UNL     1      45.425  -9.221   9.316  1.00  0.00    -0.355 N 
HETATM   22  C   UNL     1      44.164  -8.722   9.548  1.00  0.00     0.254 C 
HETATM   23  O   UNL     1      43.551  -8.070   8.709  1.00  0.00    -0.268 OA
HETATM   24  H   UNL     1      45.823  -9.833  10.024  1.00  0.00     0.162 HD
BRANCH  22  25
HETATM   25  C   UNL     1      43.552  -8.997  10.887  1.00  0.00     0.065 A 
HETATM   26  C   UNL     1      43.300 -10.278  11.403  1.00  0.00     0.081 A 
HETATM   27  C   UNL     1      42.715 -10.435  12.664  1.00  0.00     0.037 A 
HETATM   28  C   UNL     1      42.376  -9.313  13.422  1.00  0.00     0.003 A 
HETATM   29  C   UNL     1      42.618  -8.036  12.924  1.00  0.00     0.001 A 
HETATM   30  C   UNL     1      43.199  -7.880  11.665  1.00  0.00     0.020 A 
BRANCH  26  31
HETATM   31  O   UNL     1      43.615 -11.403  10.684  1.00  0.00    -0.360 OA
HETATM   32  H   UNL     1      44.386 -11.208  10.121  1.00  0.00     0.217 HD
ENDBRANCH  26  31
ENDBRANCH  22  25
ENDBRANCH  20  21
ENDBRANCH  19  20
ENDBRANCH   3  19
TORSDOF 8
ENDMDL
MODEL 2
REMARK VINA RESULT:      -8.7      1.273      1.548
REMARK  8 active torsions:
REMARK  status: ('A' for Active; 'I' for Inactive)
REMARK    1  A    between atoms: C_4  and  N_5 
REMARK    2  A    between atoms: C_8  and  C_9 
REMARK    3  A    between atoms: C_9  and  N_10 
REMARK       I    between atoms: N_10  and  C_11 
REMARK       I    between atoms: C_11  and  N_12 
REMARK    4  A    between atoms: N_12  and  C_13 
REMARK    5  A    between atoms: C_13  and  C_14 
REMARK    6  A    between atoms: C_14  and  N_15 
REMARK       I    between atoms: N_15  and  C_16 
REMARK    7  A    between atoms: C_16  and  C_17 
REMARK    8  A    between atoms: C_18  and  O_19 
ROOT
HETATM    1  N   UNL     1      43.768 -12.110   5.389  1.00  0.00    -0.339 N 
HETATM    2  C   UNL     1      44.426 -11.903   6.569  1.00  0.00     0.316 C 
HETATM    3  N   UNL     1      45.529 -11.113   6.413  1.00  0.00    -0.342 N 
HETATM    4  O   UNL     1      44.040 -12.337   7.647  1.00  0.00    -0.248 OA
HETATM    5  H   UNL     1      44.292 -12.008   4.535  1.00  0.00     0.164 HD
HETATM    6  H   UNL     1      45.920 -10.989   5.493  1.00  0.00     0.164 HD
ENDROOT
BRANCH   1   7
HETATM    7  C   UNL     1      42.585 -12.935   5.368  1.00  0.00     0.166 C 
BRANCH   7   8
HETATM    8  C   UNL     1      42.827 -14.110   4.497  1.00  0.00    -0.004 A 
HETATM    9  C   UNL     1      42.990 -14.121   3.099  1.00  0.00     0.149 A 
HETATM   10  N   UNL     1      43.208 -15.341   2.610  1.00  0.00    -0.180 NA
HETATM   11  N   UNL     1      43.206 -16.157   3.698  1.00  0.00    -0.245 N 
HETATM   12  C   UNL     1      42.973 -15.438   4.851  1.00  0.00     0.129 A 
BRANCH  11  13
HETATM   13  C   UNL     1      43.425 -17.557   3.562  1.00  0.00     0.058 A 
HETATM   14  C   UNL     1      43.085 -18.194   2.358  1.00  0.00     0.031 A 
HETATM   15  C   UNL     1      43.294 -19.566   2.202  1.00  0.00     0.002 A 
HETATM   16  C   UNL     1      43.839 -20.312   3.244  1.00  0.00     0.000 A 
HETATM   17  C   UNL     1      44.177 -19.688   4.444  1.00  0.00     0.002 A 
HETATM   18  C   UNL     1      43.974 -18.314   4.606  1.00  0.00     0.031 A 
ENDBRANCH  11  13
ENDBRANCH   7   8
ENDBRANCH   1   7
BRANCH   3  19
HETATM   19  C   UNL     1      46.385 -10.775   7.538  1.00  0.00     0.144 C 
BRANCH  19  20
HETATM   20  C   UNL     1      46.163  -9.340   8.033  1.00  0.00     0.142 C 
BRANCH  20  21
HETATM   21  N   UNL     1      45.064  -9.218   8.976  1.00  0.00    -0.355 N 
HETATM   22  C   UNL     1      45.013  -9.942  10.144  1.00  0.00     0.254 C 
HETATM   23  O   UNL     1      45.820 -10.830  10.403  1.00  0.00    -0.268 OA
HETATM   24  H   UNL     1      44.421  -8.436   8.883  1.00  0.00     0.162 HD
BRANCH  22  25
HETATM   25  C   UNL     1      43.917  -9.614  11.110  1.00  0.00     0.065 A 
HETATM   26  C   UNL     1      43.303 -10.541  11.967  1.00  0.00     0.081 A 
HETATM   27  C   UNL     1      42.278 -10.141  12.832  1.00  0.00     0.037 A 
HETATM   28  C   UNL     1      41.857  -8.810  12.848  1.00  0.00     0.003 A 
HETATM   29  C   UNL     1      42.454  -7.879  12.003  1.00  0.00     0.001 A 
HETATM   30  C   UNL     1      43.475  -8.279  11.139  1.00  0.00     0.020 A 
BRANCH  26  31
HETATM   31  O   UNL     1      43.687 -11.858  11.975  1.00  0.00    -0.360 OA
HETATM   32  H   UNL     1      42.959 -12.393  12.337  1.00  0.00     0.217 HD
ENDBRANCH  26  31
ENDBRANCH  22  25
ENDBRANCH  20  21
ENDBRANCH  19  20
ENDBRANCH   3  19
TORSDOF 8
ENDMDL
MODEL 3
REMARK VINA RESULT:      -8.7      1.450      1.764
REMARK  8 active torsions:
REMARK  status: ('A' for Active; 'I' for Inactive)
REMARK    1  A    between atoms: C_4  and  N_5 
REMARK    2  A    between atoms: C_8  and  C_9 
REMARK    3  A    between atoms: C_9  and  N_10 
REMARK       I    between atoms: N_10  and  C_11 
REMARK       I    between atoms: C_11  and  N_12 
REMARK    4  A    between atoms: N_12  and  C_13 
REMARK    5  A    between atoms: C_13  and  C_14 
REMARK    6  A    between atoms: C_14  and  N_15 
REMARK       I    between atoms: N_15  and  C_16 
REMARK    7  A    between atoms: C_16  and  C_17 
REMARK    8  A    between atoms: C_18  and  O_19 
ROOT
HETATM    1  N   UNL     1      42.613 -12.869   6.774  1.00  0.00    -0.339 N 
HETATM    2  C   UNL     1      43.313 -11.701   6.649  1.00  0.00     0.316 C 
HETATM    3  N   UNL     1      43.639 -11.162   7.860  1.00  0.00    -0.342 N 
HETATM    4  O   UNL     1      43.648 -11.223   5.573  1.00  0.00    -0.248 OA
HETATM    5  H   UNL     1      42.110 -13.025   7.632  1.00  0.00     0.164 HD
HETATM    6  H   UNL     1      43.143 -11.464   8.683  1.00  0.00     0.164 HD
ENDROOT
BRANCH   1   7
HETATM    7  C   UNL     1      42.175 -13.567   5.590  1.00  0.00     0.166 C 
BRANCH   7   8
HETATM    8  C   UNL     1      42.877 -14.871   5.508  1.00  0.00    -0.004 A 
HETATM    9  C   UNL     1      43.952 -15.317   6.299  1.00  0.00     0.149 A 
HETATM   10  N   UNL     1      44.353 -16.547   5.986  1.00  0.00    -0.180 NA
HETATM   11  N   UNL     1      43.524 -16.939   4.981  1.00  0.00    -0.245 N 
HETATM   12  C   UNL     1      42.625 -15.941   4.671  1.00  0.00     0.129 A 
BRANCH  11  13
HETATM   13  C   UNL     1      43.647 -18.229   4.392  1.00  0.00     0.058 A 
HETATM   14  C   UNL     1      43.440 -18.378   3.011  1.00  0.00     0.031 A 
HETATM   15  C   UNL     1      43.558 -19.634   2.412  1.00  0.00     0.002 A 
HETATM   16  C   UNL     1      43.881 -20.748   3.183  1.00  0.00     0.000 A 
HETATM   17  C   UNL     1      44.087 -20.608   4.555  1.00  0.00     0.002 A 
HETATM   18  C   UNL     1      43.973 -19.354   5.162  1.00  0.00     0.031 A 
ENDBRANCH  11  13
ENDBRANCH   7   8
ENDBRANCH   1   7
BRANCH   3  19
HETATM   19  C   UNL     1      44.374  -9.912   7.961  1.00  0.00     0.144 C 
BRANCH  19  20
HETATM   20  C   UNL     1      45.125  -9.780   9.292  1.00  0.00     0.142 C 
BRANCH  20  21
HETATM   21  N   UNL     1      44.322  -9.196  10.353  1.00  0.00    -0.355 N 
HETATM   22  C   UNL     1      43.682  -9.963  11.298  1.00  0.00     0.254 C 
HETATM   23  O   UNL     1      43.639 -11.188  11.230  1.00  0.00    -0.268 OA
HETATM   24  H   UNL     1      44.397  -8.198  10.533  1.00  0.00     0.162 HD
BRANCH  22  25
HETATM   25  C   UNL     1      43.019  -9.246  12.433  1.00  0.00     0.065 A 
HETATM   26  C   UNL     1      41.877  -9.703  13.110  1.00  0.00     0.081 A 
HETATM   27  C   UNL     1      41.323  -8.958  14.156  1.00  0.00     0.037 A 
HETATM   28  C   UNL     1      41.904  -7.747  14.535  1.00  0.00     0.003 A 
HETATM   29  C   UNL     1      43.035  -7.278  13.872  1.00  0.00     0.001 A 
HETATM   30  C   UNL     1      43.587  -8.022  12.828  1.00  0.00     0.020 A 
BRANCH  26  31
HETATM   31  O   UNL     1      41.277 -10.887  12.761  1.00  0.00    -0.360 OA
HETATM   32  H   UNL     1      41.518 -11.564  13.417  1.00  0.00     0.217 HD
ENDBRANCH  26  31
ENDBRANCH  22  25
ENDBRANCH  20  21
ENDBRANCH  19  20
ENDBRANCH   3  19
TORSDOF 8
ENDMDL
MODEL 4
REMARK VINA RESULT:      -8.3      1.293      2.202
REMARK  8 active torsions:
REMARK  status: ('A' for Active; 'I' for Inactive)
REMARK    1  A    between atoms: C_4  and  N_5 
REMARK    2  A    between atoms: C_8  and  C_9 
REMARK    3  A    between atoms: C_9  and  N_10 
REMARK       I    between atoms: N_10  and  C_11 
REMARK       I    between atoms: C_11  and  N_12 
REMARK    4  A    between atoms: N_12  and  C_13 
REMARK    5  A    between atoms: C_13  and  C_14 
REMARK    6  A    between atoms: C_14  and  N_15 
REMARK       I    between atoms: N_15  and  C_16 
REMARK    7  A    between atoms: C_16  and  C_17 
REMARK    8  A    between atoms: C_18  and  O_19 
ROOT
HETATM    1  N   UNL     1      43.313 -13.280   6.165  1.00  0.00    -0.339 N 
HETATM    2  C   UNL     1      44.069 -12.179   5.873  1.00  0.00     0.316 C 
HETATM    3  N   UNL     1      45.067 -11.981   6.784  1.00  0.00    -0.342 N 
HETATM    4  O   UNL     1      43.898 -11.481   4.882  1.00  0.00    -0.248 OA
HETATM    5  H   UNL     1      43.298 -13.599   7.120  1.00  0.00     0.164 HD
HETATM    6  H   UNL     1      45.009 -12.434   7.683  1.00  0.00     0.164 HD
ENDROOT
BRANCH   1   7
HETATM    7  C   UNL     1      42.204 -13.629   5.311  1.00  0.00     0.166 C 
BRANCH   7   8
HETATM    8  C   UNL     1      42.590 -14.779   4.459  1.00  0.00    -0.004 A 
HETATM    9  C   UNL     1      42.924 -14.759   3.092  1.00  0.00     0.149 A 
HETATM   10  N   UNL     1      43.241 -15.961   2.615  1.00  0.00    -0.180 NA
HETATM   11  N   UNL     1      43.134 -16.798   3.682  1.00  0.00    -0.245 N 
HETATM   12  C   UNL     1      42.737 -16.108   4.808  1.00  0.00     0.129 A 
BRANCH  11  13
HETATM   13  C   UNL     1      43.414 -18.187   3.554  1.00  0.00     0.058 A 
HETATM   14  C   UNL     1      43.200 -18.823   2.320  1.00  0.00     0.031 A 
HETATM   15  C   UNL     1      43.471 -20.184   2.170  1.00  0.00     0.002 A 
HETATM   16  C   UNL     1      43.956 -20.922   3.249  1.00  0.00     0.000 A 
HETATM   17  C   UNL     1      44.170 -20.299   4.477  1.00  0.00     0.002 A 
HETATM   18  C   UNL     1      43.903 -18.935   4.634  1.00  0.00     0.031 A 
ENDBRANCH  11  13
ENDBRANCH   7   8
ENDBRANCH   1   7
BRANCH   3  19
HETATM   19  C   UNL     1      45.984 -10.859   6.674  1.00  0.00     0.144 C 
BRANCH  19  20
HETATM   20  C   UNL     1      46.495 -10.383   8.040  1.00  0.00     0.142 C 
BRANCH  20  21
HETATM   21  N   UNL     1      45.616  -9.420   8.682  1.00  0.00    -0.355 N 
HETATM   22  C   UNL     1      44.591  -9.801   9.516  1.00  0.00     0.254 C 
HETATM   23  O   UNL     1      44.270 -10.976   9.668  1.00  0.00    -0.268 OA
HETATM   24  H   UNL     1      45.882  -8.439   8.687  1.00  0.00     0.162 HD
BRANCH  22  25
HETATM   25  C   UNL     1      43.857  -8.718  10.244  1.00  0.00     0.065 A 
HETATM   26  C   UNL     1      43.401  -7.527   9.656  1.00  0.00     0.081 A 
HETATM   27  C   UNL     1      42.730  -6.567  10.422  1.00  0.00     0.037 A 
HETATM   28  C   UNL     1      42.507  -6.788  11.782  1.00  0.00     0.003 A 
HETATM   29  C   UNL     1      42.955  -7.963  12.380  1.00  0.00     0.001 A 
HETATM   30  C   UNL     1      43.627  -8.919  11.616  1.00  0.00     0.020 A 
BRANCH  26  31
HETATM   31  O   UNL     1      43.606  -7.274   8.324  1.00  0.00    -0.360 OA
HETATM   32  H   UNL     1      42.743  -7.129   7.897  1.00  0.00     0.217 HD
ENDBRANCH  26  31
ENDBRANCH  22  25
ENDBRANCH  20  21
ENDBRANCH  19  20
ENDBRANCH   3  19
TORSDOF 8
ENDMDL
MODEL 5
REMARK VINA RESULT:      -8.2      4.731      5.983
REMARK  8 active torsions:
REMARK  status: ('A' for Active; 'I' for Inactive)
REMARK    1  A    between atoms: C_4  and  N_5 
REMARK    2  A    between atoms: C_8  and  C_9 
REMARK    3  A    between atoms: C_9  and  N_10 
REMARK       I    between atoms: N_10  and  C_11 
REMARK       I    between atoms: C_11  and  N_12 
REMARK    4  A    between atoms: N_12  and  C_13 
REMARK    5  A    between atoms: C_13  and  C_14 
REMARK    6  A    between atoms: C_14  and  N_15 
REMARK       I    between atoms: N_15  and  C_16 
REMARK    7  A    between atoms: C_16  and  C_17 
REMARK    8  A    between atoms: C_18  and  O_19 
ROOT
HETATM    1  N   UNL     1      41.312 -12.354   0.818  1.00  0.00    -0.339 N 
HETATM    2  C   UNL     1      40.792 -11.622   1.849  1.00  0.00     0.316 C 
HETATM    3  N   UNL     1      41.604 -10.583   2.206  1.00  0.00    -0.342 N 
HETATM    4  O   UNL     1      39.701 -11.845   2.357  1.00  0.00    -0.248 OA
HETATM    5  H   UNL     1      42.309 -12.321   0.676  1.00  0.00     0.164 HD
HETATM    6  H   UNL     1      42.571 -10.594   1.922  1.00  0.00     0.164 HD
ENDROOT
BRANCH   1   7
HETATM    7  C   UNL     1      40.590 -13.500   0.322  1.00  0.00     0.166 C 
BRANCH   7   8
HETATM    8  C   UNL     1      40.856 -14.661   1.204  1.00  0.00    -0.004 A 
HETATM    9  C   UNL     1      39.915 -15.438   1.907  1.00  0.00     0.149 A 
HETATM   10  N   UNL     1      40.473 -16.425   2.605  1.00  0.00    -0.180 NA
HETATM   11  N   UNL     1      41.806 -16.320   2.354  1.00  0.00    -0.245 N 
HETATM   12  C   UNL     1      42.064 -15.257   1.513  1.00  0.00     0.129 A 
BRANCH  11  13
HETATM   13  C   UNL     1      42.734 -17.233   2.930  1.00  0.00     0.058 A 
HETATM   14  C   UNL     1      43.414 -16.874   4.105  1.00  0.00     0.031 A 
HETATM   15  C   UNL     1      44.327 -17.755   4.689  1.00  0.00     0.002 A 
HETATM   16  C   UNL     1      44.568 -18.997   4.106  1.00  0.00     0.000 A 
HETATM   17  C   UNL     1      43.897 -19.361   2.939  1.00  0.00     0.002 A 
HETATM   18  C   UNL     1      42.980 -18.484   2.350  1.00  0.00     0.031 A 
ENDBRANCH  11  13
ENDBRANCH   7   8
ENDBRANCH   1   7
BRANCH   3  19
HETATM   19  C   UNL     1      41.250  -9.681   3.289  1.00  0.00     0.144 C 
BRANCH  19  20
HETATM   20  C   UNL     1      42.011  -9.993   4.584  1.00  0.00     0.142 C 
BRANCH  20  21
HETATM   21  N   UNL     1      41.709 -11.306   5.129  1.00  0.00    -0.355 N 
HETATM   22  C   UNL     1      42.548 -12.383   4.962  1.00  0.00     0.254 C 
HETATM   23  O   UNL     1      43.535 -12.340   4.234  1.00  0.00    -0.268 OA
HETATM   24  H   UNL     1      40.971 -11.392   5.824  1.00  0.00     0.162 HD
BRANCH  22  25
HETATM   25  C   UNL     1      42.211 -13.640   5.703  1.00  0.00     0.065 A 
HETATM   26  C   UNL     1      41.011 -14.354   5.561  1.00  0.00     0.081 A 
HETATM   27  C   UNL     1      40.783 -15.517   6.305  1.00  0.00     0.037 A 
HETATM   28  C   UNL     1      41.752 -15.977   7.198  1.00  0.00     0.003 A 
HETATM   29  C   UNL     1      42.946 -15.279   7.352  1.00  0.00     0.001 A 
HETATM   30  C   UNL     1      43.173 -14.118   6.611  1.00  0.00     0.020 A 
BRANCH  26  31
HETATM   31  O   UNL     1      40.035 -13.929   4.697  1.00  0.00    -0.360 OA
HETATM   32  H   UNL     1      39.391 -14.649   4.574  1.00  0.00     0.217 HD
ENDBRANCH  26  31
ENDBRANCH  22  25
ENDBRANCH  20  21
ENDBRANCH  19  20
ENDBRANCH   3  19
TORSDOF 8
ENDMDL
MODEL 6
REMARK VINA RESULT:      -8.2      2.355     10.527
REMARK  8 active torsions:
REMARK  status: ('A' for Active; 'I' for Inactive)
REMARK    1  A    between atoms: C_4  and  N_5 
REMARK    2  A    between atoms: C_8  and  C_9 
REMARK    3  A    between atoms: C_9  and  N_10 
REMARK       I    between atoms: N_10  and  C_11 
REMARK       I    between atoms: C_11  and  N_12 
REMARK    4  A    between atoms: N_12  and  C_13 
REMARK    5  A    between atoms: C_13  and  C_14 
REMARK    6  A    between atoms: C_14  and  N_15 
REMARK       I    between atoms: N_15  and  C_16 
REMARK    7  A    between atoms: C_16  and  C_17 
REMARK    8  A    between atoms: C_18  and  O_19 
ROOT
HETATM    1  N   UNL     1      44.310 -12.284   7.144  1.00  0.00    -0.339 N 
HETATM    2  C   UNL     1      43.685 -12.222   5.929  1.00  0.00     0.316 C 
HETATM    3  N   UNL     1      42.918 -13.325   5.686  1.00  0.00    -0.342 N 
HETATM    4  O   UNL     1      43.767 -11.264   5.172  1.00  0.00    -0.248 OA
HETATM    5  H   UNL     1      44.457 -13.194   7.550  1.00  0.00     0.164 HD
HETATM    6  H   UNL     1      43.076 -14.163   6.224  1.00  0.00     0.164 HD
ENDROOT
BRANCH   1   7
HETATM    7  C   UNL     1      45.173 -11.205   7.557  1.00  0.00     0.166 C 
BRANCH   7   8
HETATM    8  C   UNL     1      44.430 -10.316   8.482  1.00  0.00    -0.004 A 
HETATM    9  C   UNL     1      43.790  -9.100   8.175  1.00  0.00     0.149 A 
HETATM   10  N   UNL     1      43.195  -8.544   9.228  1.00  0.00    -0.180 NA
HETATM   11  N   UNL     1      43.425  -9.408  10.254  1.00  0.00    -0.245 N 
HETATM   12  C   UNL     1      44.174 -10.485   9.829  1.00  0.00     0.129 A 
BRANCH  11  13
HETATM   13  C   UNL     1      42.918  -9.146  11.558  1.00  0.00     0.058 A 
HETATM   14  C   UNL     1      41.823  -9.885  12.034  1.00  0.00     0.031 A 
HETATM   15  C   UNL     1      41.312  -9.647  13.311  1.00  0.00     0.002 A 
HETATM   16  C   UNL     1      41.886  -8.670  14.121  1.00  0.00     0.000 A 
HETATM   17  C   UNL     1      42.972  -7.930  13.656  1.00  0.00     0.002 A 
HETATM   18  C   UNL     1      43.491  -8.165  12.379  1.00  0.00     0.031 A 
ENDBRANCH  11  13
ENDBRANCH   7   8
ENDBRANCH   1   7
BRANCH   3  19
HETATM   19  C   UNL     1      42.175 -13.475   4.446  1.00  0.00     0.144 C 
BRANCH  19  20
HETATM   20  C   UNL     1      42.962 -14.246   3.379  1.00  0.00     0.142 C 
BRANCH  20  21
HETATM   21  N   UNL     1      43.047 -15.672   3.642  1.00  0.00    -0.355 N 
HETATM   22  C   UNL     1      43.309 -16.589   2.652  1.00  0.00     0.254 C 
HETATM   23  O   UNL     1      43.358 -16.279   1.465  1.00  0.00    -0.268 OA
HETATM   24  H   UNL     1      43.121 -15.991   4.605  1.00  0.00     0.162 HD
BRANCH  22  25
HETATM   25  C   UNL     1      43.532 -18.010   3.070  1.00  0.00     0.065 A 
HETATM   26  C   UNL     1      44.078 -18.404   4.301  1.00  0.00     0.081 A 
HETATM   27  C   UNL     1      44.255 -19.759   4.600  1.00  0.00     0.037 A 
HETATM   28  C   UNL     1      43.888 -20.734   3.671  1.00  0.00     0.003 A 
HETATM   29  C   UNL     1      43.347 -20.359   2.444  1.00  0.00     0.001 A 
HETATM   30  C   UNL     1      43.172 -19.007   2.146  1.00  0.00     0.020 A 
BRANCH  26  31
HETATM   31  O   UNL     1      44.454 -17.474   5.237  1.00  0.00    -0.360 OA
HETATM   32  H   UNL     1      44.031 -17.695   6.085  1.00  0.00     0.217 HD
ENDBRANCH  26  31
ENDBRANCH  22  25
ENDBRANCH  20  21
ENDBRANCH  19  20
ENDBRANCH   3  19
TORSDOF 8
ENDMDL
MODEL 7
REMARK VINA RESULT:      -8.0      2.817      9.845
REMARK  8 active torsions:
REMARK  status: ('A' for Active; 'I' for Inactive)
REMARK    1  A    between atoms: C_4  and  N_5 
REMARK    2  A    between atoms: C_8  and  C_9 
REMARK    3  A    between atoms: C_9  and  N_10 
REMARK       I    between atoms: N_10  and  C_11 
REMARK       I    between atoms: C_11  and  N_12 
REMARK    4  A    between atoms: N_12  and  C_13 
REMARK    5  A    between atoms: C_13  and  C_14 
REMARK    6  A    between atoms: C_14  and  N_15 
REMARK       I    between atoms: N_15  and  C_16 
REMARK    7  A    between atoms: C_16  and  C_17 
REMARK    8  A    between atoms: C_18  and  O_19 
ROOT
HETATM    1  N   UNL     1      42.849 -12.462   5.064  1.00  0.00    -0.339 N 
HETATM    2  C   UNL     1      41.923 -12.337   4.066  1.00  0.00     0.316 C 
HETATM    3  N   UNL     1      40.894 -13.224   4.203  1.00  0.00    -0.342 N 
HETATM    4  O   UNL     1      41.988 -11.494   3.181  1.00  0.00    -0.248 OA
HETATM    5  H   UNL     1      42.904 -13.344   5.546  1.00  0.00     0.164 HD
HETATM    6  H   UNL     1      41.013 -14.029   4.797  1.00  0.00     0.164 HD
ENDROOT
BRANCH   1   7
HETATM    7  C   UNL     1      44.013 -11.609   5.067  1.00  0.00     0.166 C 
BRANCH   7   8
HETATM    8  C   UNL     1      44.283 -11.160   6.453  1.00  0.00    -0.004 A 
HETATM    9  C   UNL     1      45.409 -11.453   7.245  1.00  0.00     0.149 A 
HETATM   10  N   UNL     1      45.361 -10.886   8.449  1.00  0.00    -0.180 NA
HETATM   11  N   UNL     1      44.193 -10.189   8.459  1.00  0.00    -0.245 N 
HETATM   12  C   UNL     1      43.520 -10.343   7.265  1.00  0.00     0.129 A 
BRANCH  11  13
HETATM   13  C   UNL     1      43.803  -9.432   9.599  1.00  0.00     0.058 A 
HETATM   14  C   UNL     1      43.364  -8.108   9.431  1.00  0.00     0.031 A 
HETATM   15  C   UNL     1      42.974  -7.348  10.535  1.00  0.00     0.002 A 
HETATM   16  C   UNL     1      43.020  -7.900  11.813  1.00  0.00     0.000 A 
HETATM   17  C   UNL     1      43.455  -9.212  11.989  1.00  0.00     0.002 A 
HETATM   18  C   UNL     1      43.845  -9.980  10.888  1.00  0.00     0.031 A 
ENDBRANCH  11  13
ENDBRANCH   7   8
ENDBRANCH   1   7
BRANCH   3  19
HETATM   19  C   UNL     1      39.803 -13.275   3.244  1.00  0.00     0.144 C 
BRANCH  19  20
HETATM   20  C   UNL     1      39.806 -14.567   2.419  1.00  0.00     0.142 C 
BRANCH  20  21
HETATM   21  N   UNL     1      40.694 -15.588   2.950  1.00  0.00    -0.355 N 
HETATM   22  C   UNL     1      41.852 -15.962   2.310  1.00  0.00     0.254 C 
HETATM   23  O   UNL     1      42.144 -15.554   1.189  1.00  0.00    -0.268 OA
HETATM   24  H   UNL     1      40.574 -15.891   3.914  1.00  0.00     0.162 HD
BRANCH  22  25
HETATM   25  C   UNL     1      42.764 -16.905   3.032  1.00  0.00     0.065 A 
HETATM   26  C   UNL     1      43.321 -16.667   4.298  1.00  0.00     0.081 A 
HETATM   27  C   UNL     1      44.171 -17.607   4.891  1.00  0.00     0.037 A 
HETATM   28  C   UNL     1      44.473 -18.795   4.223  1.00  0.00     0.003 A 
HETATM   29  C   UNL     1      43.931 -19.045   2.965  1.00  0.00     0.001 A 
HETATM   30  C   UNL     1      43.084 -18.106   2.374  1.00  0.00     0.020 A 
BRANCH  26  31
HETATM   31  O   UNL     1      43.050 -15.508   4.982  1.00  0.00    -0.360 OA
HETATM   32  H   UNL     1      43.267 -14.751   4.410  1.00  0.00     0.217 HD
ENDBRANCH  26  31
ENDBRANCH  22  25
ENDBRANCH  20  21
ENDBRANCH  19  20
ENDBRANCH   3  19
TORSDOF 8
ENDMDL
MODEL 8
REMARK VINA RESULT:      -8.0      2.098      2.822
REMARK  8 active torsions:
REMARK  status: ('A' for Active; 'I' for Inactive)
REMARK    1  A    between atoms: C_4  and  N_5 
REMARK    2  A    between atoms: C_8  and  C_9 
REMARK    3  A    between atoms: C_9  and  N_10 
REMARK       I    between atoms: N_10  and  C_11 
REMARK       I    between atoms: C_11  and  N_12 
REMARK    4  A    between atoms: N_12  and  C_13 
REMARK    5  A    between atoms: C_13  and  C_14 
REMARK    6  A    between atoms: C_14  and  N_15 
REMARK       I    between atoms: N_15  and  C_16 
REMARK    7  A    between atoms: C_16  and  C_17 
REMARK    8  A    between atoms: C_18  and  O_19 
ROOT
HETATM    1  N   UNL     1      42.051 -12.587   3.330  1.00  0.00    -0.339 N 
HETATM    2  C   UNL     1      41.742 -11.971   4.511  1.00  0.00     0.316 C 
HETATM    3  N   UNL     1      42.637 -10.992   4.832  1.00  0.00    -0.342 N 
HETATM    4  O   UNL     1      40.749 -12.237   5.176  1.00  0.00    -0.248 OA
HETATM    5  H   UNL     1      43.007 -12.550   3.018  1.00  0.00     0.164 HD
HETATM    6  H   UNL     1      43.539 -10.982   4.383  1.00  0.00     0.164 HD
ENDROOT
BRANCH   1   7
HETATM    7  C   UNL     1      41.215 -13.658   2.845  1.00  0.00     0.166 C 
BRANCH   7   8
HETATM    8  C   UNL     1      42.052 -14.859   2.613  1.00  0.00    -0.004 A 
HETATM    9  C   UNL     1      43.109 -15.004   1.694  1.00  0.00     0.149 A 
HETATM   10  N   UNL     1      43.674 -16.209   1.737  1.00  0.00    -0.180 NA
HETATM   11  N   UNL     1      42.997 -16.877   2.709  1.00  0.00    -0.245 N 
HETATM   12  C   UNL     1      42.007 -16.084   3.251  1.00  0.00     0.129 A 
BRANCH  11  13
HETATM   13  C   UNL     1      43.338 -18.216   3.050  1.00  0.00     0.058 A 
HETATM   14  C   UNL     1      43.836 -18.495   4.333  1.00  0.00     0.031 A 
HETATM   15  C   UNL     1      44.175 -19.802   4.690  1.00  0.00     0.002 A 
HETATM   16  C   UNL     1      44.022 -20.838   3.772  1.00  0.00     0.000 A 
HETATM   17  C   UNL     1      43.530 -20.569   2.495  1.00  0.00     0.002 A 
HETATM   18  C   UNL     1      43.186 -19.263   2.132  1.00  0.00     0.031 A 
ENDBRANCH  11  13
ENDBRANCH   7   8
ENDBRANCH   1   7
BRANCH   3  19
HETATM   19  C   UNL     1      42.507 -10.216   6.055  1.00  0.00     0.144 C 
BRANCH  19  20
HETATM   20  C   UNL     1      43.529 -10.629   7.122  1.00  0.00     0.142 C 
BRANCH  20  21
HETATM   21  N   UNL     1      43.134 -10.261   8.472  1.00  0.00    -0.355 N 
HETATM   22  C   UNL     1      44.005 -10.315   9.534  1.00  0.00     0.254 C 
HETATM   23  O   UNL     1      45.129 -10.799   9.438  1.00  0.00    -0.268 OA
HETATM   24  H   UNL     1      42.261  -9.756   8.608  1.00  0.00     0.162 HD
BRANCH  22  25
HETATM   25  C   UNL     1      43.531  -9.759  10.842  1.00  0.00     0.065 A 
HETATM   26  C   UNL     1      43.328 -10.518  12.006  1.00  0.00     0.081 A 
HETATM   27  C   UNL     1      42.875  -9.910  13.181  1.00  0.00     0.037 A 
HETATM   28  C   UNL     1      42.619  -8.538  13.205  1.00  0.00     0.003 A 
HETATM   29  C   UNL     1      42.813  -7.773  12.059  1.00  0.00     0.001 A 
HETATM   30  C   UNL     1      43.264  -8.380  10.885  1.00  0.00     0.020 A 
BRANCH  26  31
HETATM   31  O   UNL     1      43.565 -11.869  12.018  1.00  0.00    -0.360 OA
HETATM   32  H   UNL     1      44.020 -12.099  12.847  1.00  0.00     0.217 HD
ENDBRANCH  26  31
ENDBRANCH  22  25
ENDBRANCH  20  21
ENDBRANCH  19  20
ENDBRANCH   3  19
TORSDOF 8
ENDMDL
MODEL 9
REMARK VINA RESULT:      -7.9      4.806      8.538
REMARK  8 active torsions:
REMARK  status: ('A' for Active; 'I' for Inactive)
REMARK    1  A    between atoms: C_4  and  N_5 
REMARK    2  A    between atoms: C_8  and  C_9 
REMARK    3  A    between atoms: C_9  and  N_10 
REMARK       I    between atoms: N_10  and  C_11 
REMARK       I    between atoms: C_11  and  N_12 
REMARK    4  A    between atoms: N_12  and  C_13 
REMARK    5  A    between atoms: C_13  and  C_14 
REMARK    6  A    between atoms: C_14  and  N_15 
REMARK       I    between atoms: N_15  and  C_16 
REMARK    7  A    between atoms: C_16  and  C_17 
REMARK    8  A    between atoms: C_18  and  O_19 
ROOT
HETATM    1  N   UNL     1      42.699 -13.156   5.443  1.00  0.00    -0.339 N 
HETATM    2  C   UNL     1      41.355 -12.904   5.423  1.00  0.00     0.316 C 
HETATM    3  N   UNL     1      40.966 -12.272   4.277  1.00  0.00    -0.342 N 
HETATM    4  O   UNL     1      40.586 -13.251   6.309  1.00  0.00    -0.248 OA
HETATM    5  H   UNL     1      43.292 -12.582   4.867  1.00  0.00     0.164 HD
HETATM    6  H   UNL     1      41.659 -11.810   3.710  1.00  0.00     0.164 HD
ENDROOT
BRANCH   1   7
HETATM    7  C   UNL     1      43.284 -13.809   6.589  1.00  0.00     0.166 C 
BRANCH   7   8
HETATM    8  C   UNL     1      43.483 -15.245   6.280  1.00  0.00    -0.004 A 
HETATM    9  C   UNL     1      43.807 -16.278   7.180  1.00  0.00     0.149 A 
HETATM   10  N   UNL     1      43.904 -17.469   6.592  1.00  0.00    -0.180 NA
HETATM   11  N   UNL     1      43.626 -17.234   5.281  1.00  0.00    -0.245 N 
HETATM   12  C   UNL     1      43.373 -15.895   5.066  1.00  0.00     0.129 A 
BRANCH  11  13
HETATM   13  C   UNL     1      43.622 -18.295   4.332  1.00  0.00     0.058 A 
HETATM   14  C   UNL     1      43.988 -19.587   4.742  1.00  0.00     0.031 A 
HETATM   15  C   UNL     1      43.989 -20.643   3.828  1.00  0.00     0.002 A 
HETATM   16  C   UNL     1      43.627 -20.418   2.502  1.00  0.00     0.000 A 
HETATM   17  C   UNL     1      43.264 -19.138   2.087  1.00  0.00     0.002 A 
HETATM   18  C   UNL     1      43.259 -18.076   2.996  1.00  0.00     0.031 A 
ENDBRANCH  11  13
ENDBRANCH   7   8
ENDBRANCH   1   7
BRANCH   3  19
HETATM   19  C   UNL     1      39.580 -11.896   4.051  1.00  0.00     0.144 C 
BRANCH  19  20
HETATM   20  C   UNL     1      38.845 -12.887   3.139  1.00  0.00     0.142 C 
BRANCH  20  21
HETATM   21  N   UNL     1      39.157 -12.716   1.730  1.00  0.00    -0.355 N 
HETATM   22  C   UNL     1      40.183 -13.395   1.116  1.00  0.00     0.254 C 
HETATM   23  O   UNL     1      40.981 -14.086   1.743  1.00  0.00    -0.268 OA
HETATM   24  H   UNL     1      38.482 -12.248   1.131  1.00  0.00     0.162 HD
BRANCH  22  25
HETATM   25  C   UNL     1      40.306 -13.260  -0.370  1.00  0.00     0.065 A 
HETATM   26  C   UNL     1      39.786 -14.172  -1.302  1.00  0.00     0.081 A 
HETATM   27  C   UNL     1      39.959 -13.964  -2.674  1.00  0.00     0.037 A 
HETATM   28  C   UNL     1      40.653 -12.842  -3.130  1.00  0.00     0.003 A 
HETATM   29  C   UNL     1      41.176 -11.929  -2.218  1.00  0.00     0.001 A 
HETATM   30  C   UNL     1      41.005 -12.138  -0.849  1.00  0.00     0.020 A 
BRANCH  26  31
HETATM   31  O   UNL     1      39.103 -15.289  -0.890  1.00  0.00    -0.360 OA
HETATM   32  H   UNL     1      39.540 -16.076  -1.261  1.00  0.00     0.217 HD
ENDBRANCH  26  31
ENDBRANCH  22  25
ENDBRANCH  20  21
ENDBRANCH  19  20
ENDBRANCH   3  19
TORSDOF 8
ENDMDL
MODEL 10
REMARK VINA RESULT:      -7.8      3.888      6.635
REMARK  8 active torsions:
REMARK  status: ('A' for Active; 'I' for Inactive)
REMARK    1  A    between atoms: C_4  and  N_5 
REMARK    2  A    between atoms: C_8  and  C_9 
REMARK    3  A    between atoms: C_9  and  N_10 
REMARK       I    between atoms: N_10  and  C_11 
REMARK       I    between atoms: C_11  and  N_12 
REMARK    4  A    between atoms: N_12  and  C_13 
REMARK    5  A    between atoms: C_13  and  C_14 
REMARK    6  A    between atoms: C_14  and  N_15 
REMARK       I    between atoms: N_15  and  C_16 
REMARK    7  A    between atoms: C_16  and  C_17 
REMARK    8  A    between atoms: C_18  and  O_19 
ROOT
HETATM    1  N   UNL     1      42.934 -12.891   6.844  1.00  0.00    -0.339 N 
HETATM    2  C   UNL     1      43.081 -11.711   6.170  1.00  0.00     0.316 C 
HETATM    3  N   UNL     1      41.983 -10.909   6.285  1.00  0.00    -0.342 N 
HETATM    4  O   UNL     1      44.102 -11.394   5.572  1.00  0.00    -0.248 OA
HETATM    5  H   UNL     1      41.997 -13.213   7.027  1.00  0.00     0.164 HD
HETATM    6  H   UNL     1      41.107 -11.312   6.579  1.00  0.00     0.164 HD
ENDROOT
BRANCH   1   7
HETATM    7  C   UNL     1      43.997 -13.866   6.816  1.00  0.00     0.166 C 
BRANCH   7   8
HETATM    8  C   UNL     1      43.484 -15.127   6.230  1.00  0.00    -0.004 A 
HETATM    9  C   UNL     1      42.145 -15.462   5.953  1.00  0.00     0.149 A 
HETATM   10  N   UNL     1      42.013 -16.671   5.411  1.00  0.00    -0.180 NA
HETATM   11  N   UNL     1      43.282 -17.148   5.307  1.00  0.00    -0.245 N 
HETATM   12  C   UNL     1      44.190 -16.234   5.800  1.00  0.00     0.129 A 
BRANCH  11  13
HETATM   13  C   UNL     1      43.539 -18.432   4.750  1.00  0.00     0.058 A 
HETATM   14  C   UNL     1      43.566 -18.585   3.355  1.00  0.00     0.031 A 
HETATM   15  C   UNL     1      43.818 -19.836   2.787  1.00  0.00     0.002 A 
HETATM   16  C   UNL     1      44.043 -20.941   3.604  1.00  0.00     0.000 A 
HETATM   17  C   UNL     1      44.016 -20.798   4.991  1.00  0.00     0.002 A 
HETATM   18  C   UNL     1      43.766 -19.548   5.567  1.00  0.00     0.031 A 
ENDBRANCH  11  13
ENDBRANCH   7   8
ENDBRANCH   1   7
BRANCH   3  19
HETATM   19  C   UNL     1      41.919  -9.610   5.636  1.00  0.00     0.144 C 
BRANCH  19  20
HETATM   20  C   UNL     1      41.608  -9.718   4.138  1.00  0.00     0.142 C 
BRANCH  20  21
HETATM   21  N   UNL     1      41.585 -11.087   3.650  1.00  0.00    -0.355 N 
HETATM   22  C   UNL     1      41.955 -11.417   2.367  1.00  0.00     0.254 C 
HETATM   23  O   UNL     1      42.200 -10.568   1.515  1.00  0.00    -0.268 OA
HETATM   24  H   UNL     1      41.496 -11.846   4.321  1.00  0.00     0.162 HD
BRANCH  22  25
HETATM   25  C   UNL     1      42.045 -12.874   2.030  1.00  0.00     0.065 A 
HETATM   26  C   UNL     1      41.159 -13.553   1.179  1.00  0.00     0.081 A 
HETATM   27  C   UNL     1      41.319 -14.920   0.930  1.00  0.00     0.037 A 
HETATM   28  C   UNL     1      42.366 -15.622   1.529  1.00  0.00     0.003 A 
HETATM   29  C   UNL     1      43.252 -14.963   2.377  1.00  0.00     0.001 A 
HETATM   30  C   UNL     1      43.091 -13.599   2.627  1.00  0.00     0.020 A 
BRANCH  26  31
HETATM   31  O   UNL     1      40.115 -12.897   0.577  1.00  0.00    -0.360 OA
HETATM   32  H   UNL     1      40.349 -11.956   0.486  1.00  0.00     0.217 HD
ENDBRANCH  26  31
ENDBRANCH  22  25
ENDBRANCH  20  21
ENDBRANCH  19  20
ENDBRANCH   3  19
TORSDOF 8
ENDMDL
