MODEL 1
REMARK VINA RESULT:      -8.7      0.000      0.000
REMARK  6 active torsions:
REMARK  status: ('A' for Active; 'I' for Inactive)
REMARK    1  A    between atoms: C_2  and  C_3 
REMARK    2  A    between atoms: C_7  and  N_8 
REMARK    3  A    between atoms: N_8  and  C_9 
REMARK    4  A    between atoms: C_12  and  N_13 
REMARK       I    between atoms: N_13  and  C_14 
REMARK       I    between atoms: C_14  and  N_15 
REMARK    5  A    between atoms: N_15  and  C_16 
REMARK    6  A    between atoms: N_24  and  C_25 
ROOT
HETATM    1  C   UNL     1      42.311 -15.901   2.459  1.00  0.00     0.130 A 
HETATM    2  N   UNL     1      41.600 -15.429   1.421  1.00  0.00    -0.213 NA
HETATM    3  C   UNL     1      41.517 -14.084   1.407  1.00  0.00     0.169 A 
HETATM    4  C   UNL     1      42.094 -13.237   2.341  1.00  0.00     0.078 A 
HETATM    5  C   UNL     1      42.870 -13.817   3.360  1.00  0.00     0.121 A 
HETATM    6  N   UNL     1      42.947 -15.166   3.394  1.00  0.00    -0.221 NA
HETATM    7  N   UNL     1      40.874 -13.268   0.478  1.00  0.00    -0.214 N 
HETATM    8  N   UNL     1      40.963 -11.949   0.833  1.00  0.00    -0.170 NA
HETATM    9  C   UNL     1      41.694 -11.938   1.950  1.00  0.00     0.069 A 
HETATM   10  C   UNL     1      41.983 -10.643   2.616  1.00  0.00     0.073 C 
ENDROOT
BRANCH   5  11
HETATM   11  N   UNL     1      43.547 -13.044   4.307  1.00  0.00    -0.272 NA
HETATM   12  H   UNL     1      44.528 -12.972   4.065  1.00  0.00     0.129 HD
BRANCH  11  13
HETATM   13  C   UNL     1      43.319 -13.362   5.724  1.00  0.00     0.062 C 
HETATM   14  C   UNL     1      44.281 -12.520   6.574  1.00  0.00     0.022 C 
HETATM   15  C   UNL     1      43.981 -11.022   6.514  1.00  0.00     0.027 C 
HETATM   16  C   UNL     1      42.506 -10.637   6.695  1.00  0.00     0.086 C 
HETATM   17  C   UNL     1      41.506 -11.594   6.035  1.00  0.00     0.027 C 
HETATM   18  C   UNL     1      41.868 -13.076   6.120  1.00  0.00     0.022 C 
BRANCH  16  19
HETATM   19  N   UNL     1      42.161 -10.278   8.069  1.00  0.00    -0.339 N 
HETATM   20  C   UNL     1      42.781  -9.334   8.844  1.00  0.00     0.317 C 
HETATM   21  N   UNL     1      42.127  -9.213  10.049  1.00  0.00    -0.335 N 
HETATM   22  O   UNL     1      43.751  -8.676   8.509  1.00  0.00    -0.247 OA
HETATM   23  H   UNL     1      41.147  -9.450   9.979  1.00  0.00     0.165 HD
HETATM   24  H   UNL     1      41.709 -11.003   8.606  1.00  0.00     0.164 HD
BRANCH  21  25
HETATM   25  C   UNL     1      42.460  -8.206  11.069  1.00  0.00     0.023 C 
HETATM   26  C   UNL     1      42.632  -6.819  10.429  1.00  0.00     0.037 C 
HETATM   27  C   UNL     1      41.287  -8.146  12.065  1.00  0.00     0.037 C 
HETATM   28  C   UNL     1      43.728  -8.591  11.848  1.00  0.00     0.037 C 
ENDBRANCH  21  25
ENDBRANCH  16  19
ENDBRANCH  11  13
ENDBRANCH   5  11
BRANCH   1  29
HETATM   29  C   UNL     1      42.446 -17.396   2.566  1.00  0.00     0.076 C 
HETATM   30  C   UNL     1      43.601 -17.783   3.476  1.00  0.00     0.013 C 
ENDBRANCH   1  29
BRANCH   7  31
HETATM   31  C   UNL     1      40.200 -13.619  -0.734  1.00  0.00     0.060 A 
HETATM   32  C   UNL     1      40.119 -12.744  -1.822  1.00  0.00     0.032 A 
HETATM   33  C   UNL     1      39.424 -13.117  -2.980  1.00  0.00     0.009 A 
HETATM   34  C   UNL     1      38.809 -14.369  -3.074  1.00  0.00    -0.062 A 
HETATM   35  C   UNL     1      38.031 -14.756  -4.296  1.00  0.00     0.048 C 
HETATM   36  C   UNL     1      38.884 -15.243  -1.986  1.00  0.00     0.009 A 
HETATM   37  C   UNL     1      39.577 -14.875  -0.829  1.00  0.00     0.032 A 
ENDBRANCH   7  31
TORSDOF 6
ENDMDL
MODEL 2
REMARK VINA RESULT:      -8.7      3.523     10.017
REMARK  6 active torsions:
REMARK  status: ('A' for Active; 'I' for Inactive)
REMARK    1  A    between atoms: C_2  and  C_3 
REMARK    2  A    between atoms: C_7  and  N_8 
REMARK    3  A    between atoms: N_8  and  C_9 
REMARK    4  A    between atoms: C_12  and  N_13 
REMARK       I    between atoms: N_13  and  C_14 
REMARK       I    between atoms: C_14  and  N_15 
REMARK    5  A    between atoms: N_15  and  C_16 
REMARK    6  A    between atoms: N_24  and  C_25 
ROOT
HETATM    1  C   UNL     1      42.936 -14.984   3.229  1.00  0.00     0.130 A 
HETATM    2  N   UNL     1      43.254 -14.006   4.095  1.00  0.00    -0.213 NA
HETATM    3  C   UNL     1      42.939 -12.777   3.641  1.00  0.00     0.169 A 
HETATM    4  C   UNL     1      42.342 -12.504   2.419  1.00  0.00     0.078 A 
HETATM    5  C   UNL     1      41.991 -13.594   1.604  1.00  0.00     0.121 A 
HETATM    6  N   UNL     1      42.317 -14.831   2.041  1.00  0.00    -0.221 NA
HETATM    7  N   UNL     1      43.115 -11.550   4.277  1.00  0.00    -0.214 N 
HETATM    8  N   UNL     1      42.722 -10.515   3.473  1.00  0.00    -0.170 NA
HETATM    9  C   UNL     1      42.261 -11.093   2.362  1.00  0.00     0.069 A 
HETATM   10  C   UNL     1      41.750 -10.243   1.258  1.00  0.00     0.073 C 
ENDROOT
BRANCH   5  11
HETATM   11  N   UNL     1      41.325 -13.425   0.387  1.00  0.00    -0.272 NA
HETATM   12  H   UNL     1      41.500 -12.499   0.017  1.00  0.00     0.129 HD
BRANCH  11  13
HETATM   13  C   UNL     1      39.908 -13.813   0.335  1.00  0.00     0.062 C 
HETATM   14  C   UNL     1      39.050 -12.543   0.423  1.00  0.00     0.022 C 
HETATM   15  C   UNL     1      39.194 -11.635  -0.798  1.00  0.00     0.027 C 
HETATM   16  C   UNL     1      39.106 -12.340  -2.159  1.00  0.00     0.086 C 
HETATM   17  C   UNL     1      39.770 -13.721  -2.212  1.00  0.00     0.027 C 
HETATM   18  C   UNL     1      39.599 -14.575  -0.957  1.00  0.00     0.022 C 
BRANCH  16  19
HETATM   19  N   UNL     1      37.769 -12.305  -2.748  1.00  0.00    -0.339 N 
HETATM   20  C   UNL     1      36.993 -11.193  -2.940  1.00  0.00     0.317 C 
HETATM   21  N   UNL     1      35.835 -11.538  -3.599  1.00  0.00    -0.335 N 
HETATM   22  O   UNL     1      37.291 -10.061  -2.604  1.00  0.00    -0.247 OA
HETATM   23  H   UNL     1      35.955 -12.351  -4.186  1.00  0.00     0.165 HD
HETATM   24  H   UNL     1      37.234 -13.157  -2.661  1.00  0.00     0.164 HD
BRANCH  21  25
HETATM   25  C   UNL     1      34.833 -10.566  -4.067  1.00  0.00     0.023 C 
HETATM   26  C   UNL     1      35.488  -9.491  -4.950  1.00  0.00     0.037 C 
HETATM   27  C   UNL     1      33.798 -11.333  -4.911  1.00  0.00     0.037 C 
HETATM   28  C   UNL     1      34.095  -9.907  -2.890  1.00  0.00     0.037 C 
ENDBRANCH  21  25
ENDBRANCH  16  19
ENDBRANCH  11  13
ENDBRANCH   5  11
BRANCH   1  29
HETATM   29  C   UNL     1      43.265 -16.393   3.645  1.00  0.00     0.076 C 
HETATM   30  C   UNL     1      43.220 -17.343   2.459  1.00  0.00     0.013 C 
ENDBRANCH   1  29
BRANCH   7  31
HETATM   31  C   UNL     1      43.603 -11.264   5.592  1.00  0.00     0.060 A 
HETATM   32  C   UNL     1      42.775 -10.763   6.601  1.00  0.00     0.032 A 
HETATM   33  C   UNL     1      43.299 -10.470   7.867  1.00  0.00     0.009 A 
HETATM   34  C   UNL     1      44.653 -10.681   8.147  1.00  0.00    -0.062 A 
HETATM   35  C   UNL     1      45.226 -10.330   9.488  1.00  0.00     0.048 C 
HETATM   36  C   UNL     1      45.484 -11.177   7.138  1.00  0.00     0.009 A 
HETATM   37  C   UNL     1      44.964 -11.470   5.874  1.00  0.00     0.032 A 
ENDBRANCH   7  31
TORSDOF 6
ENDMDL
MODEL 3
REMARK VINA RESULT:      -8.6      3.812      7.280
REMARK  6 active torsions:
REMARK  status: ('A' for Active; 'I' for Inactive)
REMARK    1  A    between atoms: C_2  and  C_3 
REMARK    2  A    between atoms: C_7  and  N_8 
REMARK    3  A    between atoms: N_8  and  C_9 
REMARK    4  A    between atoms: C_12  and  N_13 
REMARK       I    between atoms: N_13  and  C_14 
REMARK       I    between atoms: C_14  and  N_15 
REMARK    5  A    between atoms: N_15  and  C_16 
REMARK    6  A    between atoms: N_24  and  C_25 
ROOT
HETATM    1  C   UNL     1      40.458  -9.547   7.046  1.00  0.00     0.130 A 
HETATM    2  N   UNL     1      41.149 -10.414   6.286  1.00  0.00    -0.213 NA
HETATM    3  C   UNL     1      42.370 -10.694   6.784  1.00  0.00     0.169 A 
HETATM    4  C   UNL     1      42.895 -10.171   7.956  1.00  0.00     0.078 A 
HETATM    5  C   UNL     1      42.077  -9.318   8.717  1.00  0.00     0.121 A 
HETATM    6  N   UNL     1      40.857  -9.016   8.219  1.00  0.00    -0.221 NA
HETATM    7  N   UNL     1      43.337 -11.553   6.266  1.00  0.00    -0.214 N 
HETATM    8  N   UNL     1      44.474 -11.532   7.026  1.00  0.00    -0.170 NA
HETATM    9  C   UNL     1      44.203 -10.703   8.036  1.00  0.00     0.069 A 
HETATM   10  C   UNL     1      45.243 -10.444   9.063  1.00  0.00     0.073 C 
ENDROOT
BRANCH   5  11
HETATM   11  N   UNL     1      42.491  -8.796   9.946  1.00  0.00    -0.272 NA
HETATM   12  H   UNL     1      43.341  -8.258   9.830  1.00  0.00     0.129 HD
BRANCH  11  13
HETATM   13  C   UNL     1      42.538  -9.720  11.088  1.00  0.00     0.062 C 
HETATM   14  C   UNL     1      43.463  -9.124  12.160  1.00  0.00     0.022 C 
HETATM   15  C   UNL     1      42.909  -7.844  12.785  1.00  0.00     0.027 C 
HETATM   16  C   UNL     1      41.436  -7.901  13.211  1.00  0.00     0.086 C 
HETATM   17  C   UNL     1      40.522  -8.686  12.263  1.00  0.00     0.027 C 
HETATM   18  C   UNL     1      41.137  -9.949  11.662  1.00  0.00     0.022 C 
BRANCH  16  19
HETATM   19  N   UNL     1      41.249  -8.235  14.622  1.00  0.00    -0.339 N 
HETATM   20  C   UNL     1      41.377  -7.381  15.684  1.00  0.00     0.317 C 
HETATM   21  N   UNL     1      41.041  -8.030  16.851  1.00  0.00    -0.335 N 
HETATM   22  O   UNL     1      41.712  -6.212  15.611  1.00  0.00    -0.247 OA
HETATM   23  H   UNL     1      40.377  -8.775  16.698  1.00  0.00     0.165 HD
HETATM   24  H   UNL     1      41.409  -9.202  14.863  1.00  0.00     0.164 HD
BRANCH  21  25
HETATM   25  C   UNL     1      40.957  -7.372  18.165  1.00  0.00     0.023 C 
HETATM   26  C   UNL     1      40.194  -6.041  18.059  1.00  0.00     0.037 C 
HETATM   27  C   UNL     1      40.181  -8.310  19.108  1.00  0.00     0.037 C 
HETATM   28  C   UNL     1      42.352  -7.136  18.767  1.00  0.00     0.037 C 
ENDBRANCH  21  25
ENDBRANCH  16  19
ENDBRANCH  11  13
ENDBRANCH   5  11
BRANCH   1  29
HETATM   29  C   UNL     1      39.086  -9.162   6.560  1.00  0.00     0.076 C 
HETATM   30  C   UNL     1      38.582 -10.132   5.504  1.00  0.00     0.013 C 
ENDBRANCH   1  29
BRANCH   7  31
HETATM   31  C   UNL     1      43.278 -12.414   5.125  1.00  0.00     0.060 A 
HETATM   32  C   UNL     1      43.456 -11.939   3.823  1.00  0.00     0.032 A 
HETATM   33  C   UNL     1      43.361 -12.812   2.731  1.00  0.00     0.009 A 
HETATM   34  C   UNL     1      43.097 -14.172   2.923  1.00  0.00    -0.062 A 
HETATM   35  C   UNL     1      42.955 -15.102   1.755  1.00  0.00     0.048 C 
HETATM   36  C   UNL     1      42.913 -14.649   4.224  1.00  0.00     0.009 A 
HETATM   37  C   UNL     1      43.007 -13.780   5.316  1.00  0.00     0.032 A 
ENDBRANCH   7  31
TORSDOF 6
ENDMDL
MODEL 4
REMARK VINA RESULT:      -8.6      2.481      5.251
REMARK  6 active torsions:
REMARK  status: ('A' for Active; 'I' for Inactive)
REMARK    1  A    between atoms: C_2  and  C_3 
REMARK    2  A    between atoms: C_7  and  N_8 
REMARK    3  A    between atoms: N_8  and  C_9 
REMARK    4  A    between atoms: C_12  and  N_13 
REMARK       I    between atoms: N_13  and  C_14 
REMARK       I    between atoms: C_14  and  N_15 
REMARK    5  A    between atoms: N_15  and  C_16 
REMARK    6  A    between atoms: N_24  and  C_25 
ROOT
HETATM    1  C   UNL     1      40.355 -13.336   3.304  1.00  0.00     0.130 A 
HETATM    2  N   UNL     1      41.123 -14.439   3.274  1.00  0.00    -0.213 NA
HETATM    3  C   UNL     1      41.952 -14.533   4.333  1.00  0.00     0.169 A 
HETATM    4  C   UNL     1      42.033 -13.615   5.369  1.00  0.00     0.078 A 
HETATM    5  C   UNL     1      41.150 -12.522   5.347  1.00  0.00     0.121 A 
HETATM    6  N   UNL     1      40.325 -12.408   4.282  1.00  0.00    -0.221 NA
HETATM    7  N   UNL     1      42.867 -15.542   4.626  1.00  0.00    -0.214 N 
HETATM    8  N   UNL     1      43.570 -15.256   5.764  1.00  0.00    -0.170 NA
HETATM    9  C   UNL     1      43.066 -14.101   6.204  1.00  0.00     0.069 A 
HETATM   10  C   UNL     1      43.616 -13.492   7.441  1.00  0.00     0.073 C 
ENDROOT
BRANCH   5  11
HETATM   11  N   UNL     1      41.108 -11.582   6.380  1.00  0.00    -0.272 NA
HETATM   12  H   UNL     1      40.221 -11.632   6.865  1.00  0.00     0.129 HD
BRANCH  11  13
HETATM   13  C   UNL     1      41.517 -10.207   6.056  1.00  0.00     0.062 C 
HETATM   14  C   UNL     1      40.425  -9.245   6.544  1.00  0.00     0.022 C 
HETATM   15  C   UNL     1      40.294  -9.207   8.067  1.00  0.00     0.027 C 
HETATM   16  C   UNL     1      41.614  -9.076   8.839  1.00  0.00     0.086 C 
HETATM   17  C   UNL     1      42.789  -9.859   8.242  1.00  0.00     0.027 C 
HETATM   18  C   UNL     1      42.858  -9.868   6.715  1.00  0.00     0.022 C 
BRANCH  16  19
HETATM   19  N   UNL     1      41.944  -7.699   9.200  1.00  0.00    -0.339 N 
HETATM   20  C   UNL     1      41.475  -7.006  10.283  1.00  0.00     0.317 C 
HETATM   21  N   UNL     1      42.073  -5.768  10.343  1.00  0.00    -0.335 N 
HETATM   22  O   UNL     1      40.668  -7.429  11.093  1.00  0.00    -0.247 OA
HETATM   23  H   UNL     1      42.991  -5.764   9.923  1.00  0.00     0.165 HD
HETATM   24  H   UNL     1      42.220  -7.104   8.432  1.00  0.00     0.164 HD
BRANCH  21  25
HETATM   25  C   UNL     1      41.882  -4.814  11.448  1.00  0.00     0.023 C 
HETATM   26  C   UNL     1      42.264  -5.454  12.793  1.00  0.00     0.037 C 
HETATM   27  C   UNL     1      42.813  -3.613  11.194  1.00  0.00     0.037 C 
HETATM   28  C   UNL     1      40.436  -4.294  11.501  1.00  0.00     0.037 C 
ENDBRANCH  21  25
ENDBRANCH  16  19
ENDBRANCH  11  13
ENDBRANCH   5  11
BRANCH   1  29
HETATM   29  C   UNL     1      39.406 -13.138   2.153  1.00  0.00     0.076 C 
HETATM   30  C   UNL     1      39.854 -13.917   0.927  1.00  0.00     0.013 C 
ENDBRANCH   1  29
BRANCH   7  31
HETATM   31  C   UNL     1      43.125 -16.770   3.938  1.00  0.00     0.060 A 
HETATM   32  C   UNL     1      42.538 -17.071   2.705  1.00  0.00     0.032 A 
HETATM   33  C   UNL     1      42.794 -18.297   2.079  1.00  0.00     0.009 A 
HETATM   34  C   UNL     1      43.646 -19.237   2.668  1.00  0.00    -0.062 A 
HETATM   35  C   UNL     1      43.892 -20.567   2.020  1.00  0.00     0.048 C 
HETATM   36  C   UNL     1      44.230 -18.941   3.903  1.00  0.00     0.009 A 
HETATM   37  C   UNL     1      43.976 -17.717   4.530  1.00  0.00     0.032 A 
ENDBRANCH   7  31
TORSDOF 6
ENDMDL
MODEL 5
REMARK VINA RESULT:      -8.5      2.958     11.103
REMARK  6 active torsions:
REMARK  status: ('A' for Active; 'I' for Inactive)
REMARK    1  A    between atoms: C_2  and  C_3 
REMARK    2  A    between atoms: C_7  and  N_8 
REMARK    3  A    between atoms: N_8  and  C_9 
REMARK    4  A    between atoms: C_12  and  N_13 
REMARK       I    between atoms: N_13  and  C_14 
REMARK       I    between atoms: C_14  and  N_15 
REMARK    5  A    between atoms: N_15  and  C_16 
REMARK    6  A    between atoms: N_24  and  C_25 
ROOT
HETATM    1  C   UNL     1      44.231 -10.460   7.454  1.00  0.00     0.130 A 
HETATM    2  N   UNL     1      43.803  -9.836   8.564  1.00  0.00    -0.213 NA
HETATM    3  C   UNL     1      42.507  -9.472   8.497  1.00  0.00     0.169 A 
HETATM    4  C   UNL     1      41.666  -9.703   7.419  1.00  0.00     0.078 A 
HETATM    5  C   UNL     1      42.184 -10.416   6.324  1.00  0.00     0.121 A 
HETATM    6  N   UNL     1      43.488 -10.772   6.373  1.00  0.00    -0.221 NA
HETATM    7  N   UNL     1      41.741  -8.823   9.464  1.00  0.00    -0.214 N 
HETATM    8  N   UNL     1      40.476  -8.573   9.006  1.00  0.00    -0.170 NA
HETATM    9  C   UNL     1      40.438  -9.102   7.781  1.00  0.00     0.069 A 
HETATM   10  C   UNL     1      39.189  -9.001   6.985  1.00  0.00     0.073 C 
ENDROOT
BRANCH   5  11
HETATM   11  N   UNL     1      41.396 -10.758   5.222  1.00  0.00    -0.272 NA
HETATM   12  H   UNL     1      40.419 -10.787   5.484  1.00  0.00     0.129 HD
BRANCH  11  13
HETATM   13  C   UNL     1      41.820 -11.919   4.426  1.00  0.00     0.062 C 
HETATM   14  C   UNL     1      40.714 -12.983   4.489  1.00  0.00     0.022 C 
HETATM   15  C   UNL     1      39.424 -12.551   3.793  1.00  0.00     0.027 C 
HETATM   16  C   UNL     1      39.601 -11.935   2.399  1.00  0.00     0.086 C 
HETATM   17  C   UNL     1      40.832 -11.034   2.245  1.00  0.00     0.027 C 
HETATM   18  C   UNL     1      42.086 -11.516   2.972  1.00  0.00     0.022 C 
BRANCH  16  19
HETATM   19  N   UNL     1      39.433 -12.897   1.311  1.00  0.00    -0.339 N 
HETATM   20  C   UNL     1      39.029 -12.618   0.033  1.00  0.00     0.317 C 
HETATM   21  N   UNL     1      39.072 -13.761  -0.733  1.00  0.00    -0.335 N 
HETATM   22  O   UNL     1      38.706 -11.517  -0.378  1.00  0.00    -0.247 OA
HETATM   23  H   UNL     1      39.765 -14.417  -0.403  1.00  0.00     0.165 HD
HETATM   24  H   UNL     1      39.233 -13.844   1.597  1.00  0.00     0.164 HD
BRANCH  21  25
HETATM   25  C   UNL     1      38.814 -13.791  -2.181  1.00  0.00     0.023 C 
HETATM   26  C   UNL     1      39.947 -13.095  -2.952  1.00  0.00     0.037 C 
HETATM   27  C   UNL     1      38.761 -15.269  -2.615  1.00  0.00     0.037 C 
HETATM   28  C   UNL     1      37.462 -13.144  -2.527  1.00  0.00     0.037 C 
ENDBRANCH  21  25
ENDBRANCH  16  19
ENDBRANCH  11  13
ENDBRANCH   5  11
BRANCH   1  29
HETATM   29  C   UNL     1      45.673 -10.891   7.430  1.00  0.00     0.076 C 
HETATM   30  C   UNL     1      46.598  -9.746   7.810  1.00  0.00     0.013 C 
ENDBRANCH   1  29
BRANCH   7  31
HETATM   31  C   UNL     1      42.089  -8.436  10.796  1.00  0.00     0.060 A 
HETATM   32  C   UNL     1      42.316  -9.372  11.809  1.00  0.00     0.032 A 
HETATM   33  C   UNL     1      42.627  -8.949  13.108  1.00  0.00     0.009 A 
HETATM   34  C   UNL     1      42.724  -7.588  13.413  1.00  0.00    -0.062 A 
HETATM   35  C   UNL     1      43.017  -7.131  14.811  1.00  0.00     0.048 C 
HETATM   36  C   UNL     1      42.492  -6.650  12.404  1.00  0.00     0.009 A 
HETATM   37  C   UNL     1      42.182  -7.068  11.106  1.00  0.00     0.032 A 
ENDBRANCH   7  31
TORSDOF 6
ENDMDL
MODEL 6
REMARK VINA RESULT:      -8.2      3.782      6.073
REMARK  6 active torsions:
REMARK  status: ('A' for Active; 'I' for Inactive)
REMARK    1  A    between atoms: C_2  and  C_3 
REMARK    2  A    between atoms: C_7  and  N_8 
REMARK    3  A    between atoms: N_8  and  C_9 
REMARK    4  A    between atoms: C_12  and  N_13 
REMARK       I    between atoms: N_13  and  C_14 
REMARK       I    between atoms: C_14  and  N_15 
REMARK    5  A    between atoms: N_15  and  C_16 
REMARK    6  A    between atoms: N_24  and  C_25 
ROOT
HETATM    1  C   UNL     1      44.437 -11.370   6.543  1.00  0.00     0.130 A 
HETATM    2  N   UNL     1      44.055 -12.505   5.933  1.00  0.00    -0.213 NA
HETATM    3  C   UNL     1      42.719 -12.598   5.779  1.00  0.00     0.169 A 
HETATM    4  C   UNL     1      41.800 -11.643   6.185  1.00  0.00     0.078 A 
HETATM    5  C   UNL     1      42.294 -10.459   6.760  1.00  0.00     0.121 A 
HETATM    6  N   UNL     1      43.631 -10.363   6.935  1.00  0.00    -0.221 NA
HETATM    7  N   UNL     1      41.988 -13.624   5.184  1.00  0.00    -0.214 N 
HETATM    8  N   UNL     1      40.643 -13.384   5.267  1.00  0.00    -0.170 NA
HETATM    9  C   UNL     1      40.538 -12.197   5.868  1.00  0.00     0.069 A 
HETATM   10  C   UNL     1      39.190 -11.629   6.124  1.00  0.00     0.073 C 
ENDROOT
BRANCH   5  11
HETATM   11  N   UNL     1      41.452  -9.410   7.138  1.00  0.00    -0.272 NA
HETATM   12  H   UNL     1      40.851  -9.147   6.366  1.00  0.00     0.129 HD
BRANCH  11  13
HETATM   13  C   UNL     1      42.070  -8.260   7.812  1.00  0.00     0.062 C 
HETATM   14  C   UNL     1      41.031  -7.132   7.904  1.00  0.00     0.022 C 
HETATM   15  C   UNL     1      39.858  -7.470   8.824  1.00  0.00     0.027 C 
HETATM   16  C   UNL     1      40.238  -8.065  10.186  1.00  0.00     0.086 C 
HETATM   17  C   UNL     1      41.425  -9.035  10.157  1.00  0.00     0.027 C 
HETATM   18  C   UNL     1      42.560  -8.646   9.211  1.00  0.00     0.022 C 
BRANCH  16  19
HETATM   19  N   UNL     1      40.313  -7.071  11.255  1.00  0.00    -0.339 N 
HETATM   20  C   UNL     1      39.886  -7.230  12.547  1.00  0.00     0.317 C 
HETATM   21  N   UNL     1      40.201  -6.112  13.286  1.00  0.00    -0.335 N 
HETATM   22  O   UNL     1      39.335  -8.223  12.988  1.00  0.00    -0.247 OA
HETATM   23  H   UNL     1      41.016  -5.634  12.929  1.00  0.00     0.165 HD
HETATM   24  H   UNL     1      40.324  -6.108  10.953  1.00  0.00     0.164 HD
BRANCH  21  25
HETATM   25  C   UNL     1      39.989  -5.999  14.738  1.00  0.00     0.023 C 
HETATM   26  C   UNL     1      40.680  -7.154  15.481  1.00  0.00     0.037 C 
HETATM   27  C   UNL     1      40.619  -4.671  15.199  1.00  0.00     0.037 C 
HETATM   28  C   UNL     1      38.492  -5.964  15.088  1.00  0.00     0.037 C 
ENDBRANCH  21  25
ENDBRANCH  16  19
ENDBRANCH  11  13
ENDBRANCH   5  11
BRANCH   1  29
HETATM   29  C   UNL     1      45.913 -11.185   6.772  1.00  0.00     0.076 C 
HETATM   30  C   UNL     1      46.178 -10.181   7.882  1.00  0.00     0.013 C 
ENDBRANCH   1  29
BRANCH   7  31
HETATM   31  C   UNL     1      42.445 -14.805   4.519  1.00  0.00     0.060 A 
HETATM   32  C   UNL     1      42.745 -14.823   3.154  1.00  0.00     0.032 A 
HETATM   33  C   UNL     1      43.163 -16.010   2.536  1.00  0.00     0.009 A 
HETATM   34  C   UNL     1      43.296 -17.191   3.272  1.00  0.00    -0.062 A 
HETATM   35  C   UNL     1      43.704 -18.472   2.607  1.00  0.00     0.048 C 
HETATM   36  C   UNL     1      42.992 -17.177   4.636  1.00  0.00     0.009 A 
HETATM   37  C   UNL     1      42.575 -15.995   5.256  1.00  0.00     0.032 A 
ENDBRANCH   7  31
TORSDOF 6
ENDMDL
MODEL 7
REMARK VINA RESULT:      -8.1      4.339      9.357
REMARK  6 active torsions:
REMARK  status: ('A' for Active; 'I' for Inactive)
REMARK    1  A    between atoms: C_2  and  C_3 
REMARK    2  A    between atoms: C_7  and  N_8 
REMARK    3  A    between atoms: N_8  and  C_9 
REMARK    4  A    between atoms: C_12  and  N_13 
REMARK       I    between atoms: N_13  and  C_14 
REMARK       I    between atoms: C_14  and  N_15 
REMARK    5  A    between atoms: N_15  and  C_16 
REMARK    6  A    between atoms: N_24  and  C_25 
ROOT
HETATM    1  C   UNL     1      42.930 -12.128   3.417  1.00  0.00     0.130 A 
HETATM    2  N   UNL     1      42.979 -13.470   3.470  1.00  0.00    -0.213 NA
HETATM    3  C   UNL     1      42.257 -14.063   2.498  1.00  0.00     0.169 A 
HETATM    4  C   UNL     1      41.531 -13.397   1.523  1.00  0.00     0.078 A 
HETATM    5  C   UNL     1      41.585 -11.992   1.509  1.00  0.00     0.121 A 
HETATM    6  N   UNL     1      42.292 -11.386   2.489  1.00  0.00    -0.221 NA
HETATM    7  N   UNL     1      42.098 -15.425   2.250  1.00  0.00    -0.214 N 
HETATM    8  N   UNL     1      41.241 -15.639   1.205  1.00  0.00    -0.170 NA
HETATM    9  C   UNL     1      40.905 -14.421   0.774  1.00  0.00     0.069 A 
HETATM   10  C   UNL     1      39.967 -14.287  -0.368  1.00  0.00     0.073 C 
ENDROOT
BRANCH   5  11
HETATM   11  N   UNL     1      40.943 -11.235   0.526  1.00  0.00    -0.272 NA
HETATM   12  H   UNL     1      41.616 -10.889  -0.146  1.00  0.00     0.129 HD
BRANCH  11  13
HETATM   13  C   UNL     1      39.994 -10.208   0.979  1.00  0.00     0.062 C 
HETATM   14  C   UNL     1      39.683  -9.275  -0.200  1.00  0.00     0.022 C 
HETATM   15  C   UNL     1      38.916  -9.967  -1.327  1.00  0.00     0.027 C 
HETATM   16  C   UNL     1      37.716 -10.815  -0.885  1.00  0.00     0.086 C 
HETATM   17  C   UNL     1      37.923 -11.592   0.421  1.00  0.00     0.027 C 
HETATM   18  C   UNL     1      38.705 -10.850   1.503  1.00  0.00     0.022 C 
BRANCH  16  19
HETATM   19  N   UNL     1      36.442 -10.102  -0.952  1.00  0.00    -0.339 N 
HETATM   20  C   UNL     1      35.581 -10.071  -2.016  1.00  0.00     0.317 C 
HETATM   21  N   UNL     1      34.446  -9.369  -1.681  1.00  0.00    -0.335 N 
HETATM   22  O   UNL     1      35.775 -10.607  -3.093  1.00  0.00    -0.247 OA
HETATM   23  H   UNL     1      34.248  -9.410  -0.691  1.00  0.00     0.165 HD
HETATM   24  H   UNL     1      36.365  -9.294  -0.351  1.00  0.00     0.164 HD
BRANCH  21  25
HETATM   25  C   UNL     1      33.267  -9.244  -2.554  1.00  0.00     0.023 C 
HETATM   26  C   UNL     1      32.744 -10.630  -2.965  1.00  0.00     0.037 C 
HETATM   27  C   UNL     1      32.168  -8.521  -1.752  1.00  0.00     0.037 C 
HETATM   28  C   UNL     1      33.578  -8.403  -3.803  1.00  0.00     0.037 C 
ENDBRANCH  21  25
ENDBRANCH  16  19
ENDBRANCH  11  13
ENDBRANCH   5  11
BRANCH   1  29
HETATM   29  C   UNL     1      43.696 -11.378   4.474  1.00  0.00     0.076 C 
HETATM   30  C   UNL     1      43.872 -12.218   5.729  1.00  0.00     0.013 C 
ENDBRANCH   1  29
BRANCH   7  31
HETATM   31  C   UNL     1      42.701 -16.548   2.898  1.00  0.00     0.060 A 
HETATM   32  C   UNL     1      43.202 -17.640   2.183  1.00  0.00     0.032 A 
HETATM   33  C   UNL     1      43.759 -18.734   2.859  1.00  0.00     0.009 A 
HETATM   34  C   UNL     1      43.834 -18.750   4.255  1.00  0.00    -0.062 A 
HETATM   35  C   UNL     1      44.393 -19.935   4.984  1.00  0.00     0.048 C 
HETATM   36  C   UNL     1      43.329 -17.661   4.973  1.00  0.00     0.009 A 
HETATM   37  C   UNL     1      42.772 -16.569   4.301  1.00  0.00     0.032 A 
ENDBRANCH   7  31
TORSDOF 6
ENDMDL
MODEL 8
REMARK VINA RESULT:      -8.1      2.828      5.814
REMARK  6 active torsions:
REMARK  status: ('A' for Active; 'I' for Inactive)
REMARK    1  A    between atoms: C_2  and  C_3 
REMARK    2  A    between atoms: C_7  and  N_8 
REMARK    3  A    between atoms: N_8  and  C_9 
REMARK    4  A    between atoms: C_12  and  N_13 
REMARK       I    between atoms: N_13  and  C_14 
REMARK       I    between atoms: C_14  and  N_15 
REMARK    5  A    between atoms: N_15  and  C_16 
REMARK    6  A    between atoms: N_24  and  C_25 
ROOT
HETATM    1  C   UNL     1      41.063 -13.838   2.942  1.00  0.00     0.130 A 
HETATM    2  N   UNL     1      41.723 -14.850   3.531  1.00  0.00    -0.213 NA
HETATM    3  C   UNL     1      42.463 -14.454   4.586  1.00  0.00     0.169 A 
HETATM    4  C   UNL     1      42.557 -13.152   5.053  1.00  0.00     0.078 A 
HETATM    5  C   UNL     1      41.784 -12.168   4.411  1.00  0.00     0.121 A 
HETATM    6  N   UNL     1      41.051 -12.550   3.341  1.00  0.00    -0.221 NA
HETATM    7  N   UNL     1      43.256 -15.233   5.426  1.00  0.00    -0.214 N 
HETATM    8  N   UNL     1      43.900 -14.461   6.354  1.00  0.00    -0.170 NA
HETATM    9  C   UNL     1      43.478 -13.216   6.124  1.00  0.00     0.069 A 
HETATM   10  C   UNL     1      43.994 -12.107   6.965  1.00  0.00     0.073 C 
ENDROOT
BRANCH   5  11
HETATM   11  N   UNL     1      41.759 -10.842   4.851  1.00  0.00    -0.272 NA
HETATM   12  H   UNL     1      42.412 -10.713   5.614  1.00  0.00     0.129 HD
BRANCH  11  13
HETATM   13  C   UNL     1      40.441 -10.242   5.105  1.00  0.00     0.062 C 
HETATM   14  C   UNL     1      39.917 -10.766   6.450  1.00  0.00     0.022 C 
HETATM   15  C   UNL     1      40.742 -10.285   7.644  1.00  0.00     0.027 C 
HETATM   16  C   UNL     1      41.070  -8.786   7.658  1.00  0.00     0.086 C 
HETATM   17  C   UNL     1      41.384  -8.184   6.283  1.00  0.00     0.027 C 
HETATM   18  C   UNL     1      40.533  -8.713   5.130  1.00  0.00     0.022 C 
BRANCH  16  19
HETATM   19  N   UNL     1      40.135  -7.991   8.451  1.00  0.00    -0.339 N 
HETATM   20  C   UNL     1      40.234  -7.712   9.788  1.00  0.00     0.317 C 
HETATM   21  N   UNL     1      39.217  -6.865  10.166  1.00  0.00    -0.335 N 
HETATM   22  O   UNL     1      41.107  -8.126  10.531  1.00  0.00    -0.247 OA
HETATM   23  H   UNL     1      38.902  -6.280   9.406  1.00  0.00     0.165 HD
HETATM   24  H   UNL     1      39.187  -7.965   8.105  1.00  0.00     0.164 HD
BRANCH  21  25
HETATM   25  C   UNL     1      39.095  -6.273  11.509  1.00  0.00     0.023 C 
HETATM   26  C   UNL     1      40.361  -5.479  11.871  1.00  0.00     0.037 C 
HETATM   27  C   UNL     1      37.898  -5.304  11.485  1.00  0.00     0.037 C 
HETATM   28  C   UNL     1      38.819  -7.346  12.575  1.00  0.00     0.037 C 
ENDBRANCH  21  25
ENDBRANCH  16  19
ENDBRANCH  11  13
ENDBRANCH   5  11
BRANCH   1  29
HETATM   29  C   UNL     1      40.220 -14.183   1.744  1.00  0.00     0.076 C 
HETATM   30  C   UNL     1      39.835 -15.654   1.745  1.00  0.00     0.013 C 
ENDBRANCH   1  29
BRANCH   7  31
HETATM   31  C   UNL     1      43.444 -16.651   5.448  1.00  0.00     0.060 A 
HETATM   32  C   UNL     1      43.153 -17.424   6.577  1.00  0.00     0.032 A 
HETATM   33  C   UNL     1      43.379 -18.807   6.566  1.00  0.00     0.009 A 
HETATM   34  C   UNL     1      43.889 -19.439   5.427  1.00  0.00    -0.062 A 
HETATM   35  C   UNL     1      44.170 -20.913   5.425  1.00  0.00     0.048 C 
HETATM   36  C   UNL     1      44.185 -18.669   4.300  1.00  0.00     0.009 A 
HETATM   37  C   UNL     1      43.961 -17.289   4.307  1.00  0.00     0.032 A 
ENDBRANCH   7  31
TORSDOF 6
ENDMDL
MODEL 9
REMARK VINA RESULT:      -7.9      2.903     11.149
REMARK  6 active torsions:
REMARK  status: ('A' for Active; 'I' for Inactive)
REMARK    1  A    between atoms: C_2  and  C_3 
REMARK    2  A    between atoms: C_7  and  N_8 
REMARK    3  A    between atoms: N_8  and  C_9 
REMARK    4  A    between atoms: C_12  and  N_13 
REMARK       I    between atoms: N_13  and  C_14 
REMARK       I    between atoms: C_14  and  N_15 
REMARK    5  A    between atoms: N_15  and  C_16 
REMARK    6  A    between atoms: N_24  and  C_25 
ROOT
HETATM    1  C   UNL     1      40.343  -8.556   7.359  1.00  0.00     0.130 A 
HETATM    2  N   UNL     1      40.834  -8.685   8.604  1.00  0.00    -0.213 NA
HETATM    3  C   UNL     1      41.964  -9.419   8.651  1.00  0.00     0.169 A 
HETATM    4  C   UNL     1      42.591  -9.993   7.556  1.00  0.00     0.078 A 
HETATM    5  C   UNL     1      42.039  -9.755   6.285  1.00  0.00     0.121 A 
HETATM    6  N   UNL     1      40.896  -9.035   6.227  1.00  0.00    -0.221 NA
HETATM    7  N   UNL     1      42.739  -9.740   9.764  1.00  0.00    -0.214 N 
HETATM    8  N   UNL     1      43.784 -10.554   9.420  1.00  0.00    -0.170 NA
HETATM    9  C   UNL     1      43.689 -10.702   8.097  1.00  0.00     0.069 A 
HETATM   10  C   UNL     1      44.683 -11.545   7.387  1.00  0.00     0.073 C 
ENDROOT
BRANCH   5  11
HETATM   11  N   UNL     1      42.636 -10.234   5.116  1.00  0.00    -0.272 NA
HETATM   12  H   UNL     1      42.452  -9.605   4.345  1.00  0.00     0.129 HD
BRANCH  11  13
HETATM   13  C   UNL     1      42.418 -11.648   4.778  1.00  0.00     0.062 C 
HETATM   14  C   UNL     1      40.907 -11.919   4.766  1.00  0.00     0.022 C 
HETATM   15  C   UNL     1      40.175 -11.188   3.641  1.00  0.00     0.027 C 
HETATM   16  C   UNL     1      40.826 -11.289   2.255  1.00  0.00     0.086 C 
HETATM   17  C   UNL     1      42.358 -11.242   2.259  1.00  0.00     0.027 C 
HETATM   18  C   UNL     1      43.030 -11.983   3.414  1.00  0.00     0.022 C 
BRANCH  16  19
HETATM   19  N   UNL     1      40.270 -12.357   1.427  1.00  0.00    -0.339 N 
HETATM   20  C   UNL     1      39.825 -12.240   0.137  1.00  0.00     0.317 C 
HETATM   21  N   UNL     1      39.453 -13.474  -0.345  1.00  0.00    -0.335 N 
HETATM   22  O   UNL     1      39.788 -11.203  -0.502  1.00  0.00    -0.247 OA
HETATM   23  H   UNL     1      39.960 -14.227   0.096  1.00  0.00     0.165 HD
HETATM   24  H   UNL     1      39.839 -13.118   1.931  1.00  0.00     0.164 HD
BRANCH  21  25
HETATM   25  C   UNL     1      39.039 -13.724  -1.736  1.00  0.00     0.023 C 
HETATM   26  C   UNL     1      37.721 -12.997  -2.050  1.00  0.00     0.037 C 
HETATM   27  C   UNL     1      40.139 -13.166  -2.658  1.00  0.00     0.037 C 
HETATM   28  C   UNL     1      38.895 -15.228  -2.019  1.00  0.00     0.037 C 
ENDBRANCH  21  25
ENDBRANCH  16  19
ENDBRANCH  11  13
ENDBRANCH   5  11
BRANCH   1  29
HETATM   29  C   UNL     1      39.072  -7.763   7.209  1.00  0.00     0.076 C 
HETATM   30  C   UNL     1      38.539  -7.838   5.788  1.00  0.00     0.013 C 
ENDBRANCH   1  29
BRANCH   7  31
HETATM   31  C   UNL     1      42.595  -9.329  11.126  1.00  0.00     0.060 A 
HETATM   32  C   UNL     1      41.624  -9.874  11.972  1.00  0.00     0.032 A 
HETATM   33  C   UNL     1      41.499  -9.421  13.292  1.00  0.00     0.009 A 
HETATM   34  C   UNL     1      42.347  -8.427  13.790  1.00  0.00    -0.062 A 
HETATM   35  C   UNL     1      42.190  -7.911  15.190  1.00  0.00     0.048 C 
HETATM   36  C   UNL     1      43.315  -7.877  12.946  1.00  0.00     0.009 A 
HETATM   37  C   UNL     1      43.442  -8.326  11.628  1.00  0.00     0.032 A 
ENDBRANCH   7  31
TORSDOF 6
ENDMDL
MODEL 10
REMARK VINA RESULT:      -7.9      2.854     10.800
REMARK  6 active torsions:
REMARK  status: ('A' for Active; 'I' for Inactive)
REMARK    1  A    between atoms: C_2  and  C_3 
REMARK    2  A    between atoms: C_7  and  N_8 
REMARK    3  A    between atoms: N_8  and  C_9 
REMARK    4  A    between atoms: C_12  and  N_13 
REMARK       I    between atoms: N_13  and  C_14 
REMARK       I    between atoms: C_14  and  N_15 
REMARK    5  A    between atoms: N_15  and  C_16 
REMARK    6  A    between atoms: N_24  and  C_25 
ROOT
HETATM    1  C   UNL     1      43.444  -8.987   8.564  1.00  0.00     0.130 A 
HETATM    2  N   UNL     1      42.365  -8.619   9.275  1.00  0.00    -0.213 NA
HETATM    3  C   UNL     1      41.211  -9.094   8.766  1.00  0.00     0.169 A 
HETATM    4  C   UNL     1      41.104  -9.889   7.635  1.00  0.00     0.078 A 
HETATM    5  C   UNL     1      42.291 -10.274   6.989  1.00  0.00     0.121 A 
HETATM    6  N   UNL     1      43.454  -9.789   7.480  1.00  0.00    -0.221 NA
HETATM    7  N   UNL     1      39.916  -8.920   9.251  1.00  0.00    -0.214 N 
HETATM    8  N   UNL     1      38.996  -9.510   8.428  1.00  0.00    -0.170 NA
HETATM    9  C   UNL     1      39.714 -10.088   7.461  1.00  0.00     0.069 A 
HETATM   10  C   UNL     1      39.015 -10.825   6.379  1.00  0.00     0.073 C 
ENDROOT
BRANCH   5  11
HETATM   11  N   UNL     1      42.290 -11.128   5.883  1.00  0.00    -0.272 NA
HETATM   12  H   UNL     1      42.686 -12.026   6.132  1.00  0.00     0.129 HD
BRANCH  11  13
HETATM   13  C   UNL     1      42.815 -10.593   4.618  1.00  0.00     0.062 C 
HETATM   14  C   UNL     1      43.623 -11.696   3.919  1.00  0.00     0.022 C 
HETATM   15  C   UNL     1      42.760 -12.869   3.455  1.00  0.00     0.027 C 
HETATM   16  C   UNL     1      41.473 -12.488   2.711  1.00  0.00     0.086 C 
HETATM   17  C   UNL     1      40.758 -11.247   3.257  1.00  0.00     0.027 C 
HETATM   18  C   UNL     1      41.675 -10.114   3.714  1.00  0.00     0.022 C 
BRANCH  16  19
HETATM   19  N   UNL     1      41.617 -12.495   1.256  1.00  0.00    -0.339 N 
HETATM   20  C   UNL     1      40.636 -12.773   0.342  1.00  0.00     0.317 C 
HETATM   21  N   UNL     1      41.121 -12.596  -0.934  1.00  0.00    -0.335 N 
HETATM   22  O   UNL     1      39.495 -13.102   0.614  1.00  0.00    -0.247 OA
HETATM   23  H   UNL     1      41.863 -11.912  -0.971  1.00  0.00     0.165 HD
HETATM   24  H   UNL     1      42.549 -12.679   0.913  1.00  0.00     0.164 HD
BRANCH  21  25
HETATM   25  C   UNL     1      40.296 -12.697  -2.149  1.00  0.00     0.023 C 
HETATM   26  C   UNL     1      39.876 -14.153  -2.403  1.00  0.00     0.037 C 
HETATM   27  C   UNL     1      39.028 -11.852  -1.923  1.00  0.00     0.037 C 
HETATM   28  C   UNL     1      41.031 -12.136  -3.377  1.00  0.00     0.037 C 
ENDBRANCH  21  25
ENDBRANCH  16  19
ENDBRANCH  11  13
ENDBRANCH   5  11
BRANCH   1  29
HETATM   29  C   UNL     1      44.779  -8.489   9.050  1.00  0.00     0.076 C 
HETATM   30  C   UNL     1      45.922  -9.147   8.293  1.00  0.00     0.013 C 
ENDBRANCH   1  29
BRANCH   7  31
HETATM   31  C   UNL     1      39.467  -8.262  10.439  1.00  0.00     0.060 A 
HETATM   32  C   UNL     1      38.775  -7.048  10.403  1.00  0.00     0.032 A 
HETATM   33  C   UNL     1      38.378  -6.423  11.592  1.00  0.00     0.009 A 
HETATM   34  C   UNL     1      38.656  -7.005  12.834  1.00  0.00    -0.062 A 
HETATM   35  C   UNL     1      38.268  -6.319  14.110  1.00  0.00     0.048 C 
HETATM   36  C   UNL     1      39.352  -8.216  12.873  1.00  0.00     0.009 A 
HETATM   37  C   UNL     1      39.750  -8.842  11.688  1.00  0.00     0.032 A 
ENDBRANCH   7  31
TORSDOF 6
ENDMDL
