MODEL 1
REMARK VINA RESULT:      -9.0      0.000      0.000
REMARK  5 active torsions:
REMARK  status: ('A' for Active; 'I' for Inactive)
REMARK    1  A    between atoms: C_7  and  C_8 
REMARK       I    between atoms: C_8  and  N_9 
REMARK    2  A    between atoms: N_9  and  C_10 
REMARK    3  A    between atoms: C_10  and  C_11 
REMARK    4  A    between atoms: C_11  and  O_12 
REMARK    5  A    between atoms: C_11  and  C_13 
ROOT
HETATM    1  C   UNL     1      42.893 -15.578   3.241  1.00  0.00     0.254 C 
HETATM    2  N   UNL     1      41.717 -15.011   3.676  1.00  0.00    -0.354 N 
HETATM    3  O   UNL     1      43.481 -15.159   2.248  1.00  0.00    -0.268 OA
HETATM    4  H   UNL     1      41.180 -15.478   4.391  1.00  0.00     0.162 HD
ENDROOT
BRANCH   2   5
HETATM    5  C   UNL     1      41.139 -13.843   3.029  1.00  0.00     0.159 C 
BRANCH   5   6
HETATM    6  C   UNL     1      39.932 -14.193   2.135  1.00  0.00     0.175 C 
BRANCH   6   7
HETATM    7  O   UNL     1      38.745 -13.603   2.680  1.00  0.00    -0.389 OA
HETATM    8  H   UNL     1      39.007 -13.239   3.543  1.00  0.00     0.210 HD
ENDBRANCH   6   7
BRANCH   6   9
HETATM    9  C   UNL     1      40.090 -13.714   0.717  1.00  0.00     0.049 A 
HETATM   10  C   UNL     1      39.839 -14.577  -0.352  1.00  0.00     0.128 A 
HETATM   11  F   UNL     1      39.458 -15.841  -0.118  1.00  0.00    -0.205 F 
HETATM   12  C   UNL     1      39.978 -14.165  -1.678  1.00  0.00     0.043 A 
HETATM   13  C   UNL     1      40.377 -12.862  -1.962  1.00  0.00     0.006 A 
HETATM   14  C   UNL     1      40.631 -11.982  -0.914  1.00  0.00     0.043 A 
HETATM   15  C   UNL     1      40.484 -12.409   0.407  1.00  0.00     0.128 A 
HETATM   16  F   UNL     1      40.748 -11.532   1.385  1.00  0.00    -0.205 F 
ENDBRANCH   6   9
ENDBRANCH   5   6
ENDBRANCH   2   5
BRANCH   1  17
HETATM   17  C   UNL     1      43.357 -16.736   4.011  1.00  0.00     0.066 A 
HETATM   18  C   UNL     1      43.852 -16.766   5.315  1.00  0.00     0.022 A 
HETATM   19  C   UNL     1      44.118 -15.700   6.319  1.00  0.00     0.069 C 
HETATM   20  N   UNL     1      44.161 -18.073   5.613  1.00  0.00    -0.358 N 
HETATM   21  H   UNL     1      44.544 -18.394   6.492  1.00  0.00     0.166 HD
HETATM   22  C   UNL     1      43.931 -18.890   4.536  1.00  0.00     0.043 A 
HETATM   23  C   UNL     1      43.433 -18.086   3.514  1.00  0.00     0.008 A 
HETATM   24  C   UNL     1      44.136 -20.268   4.393  1.00  0.00     0.030 A 
HETATM   25  C   UNL     1      43.120 -18.700   2.281  1.00  0.00     0.015 A 
HETATM   26  C   UNL     1      43.318 -20.075   2.118  1.00  0.00     0.001 A 
HETATM   27  C   UNL     1      43.820 -20.847   3.162  1.00  0.00     0.002 A 
ENDBRANCH   1  17
TORSDOF 5
ENDMDL
MODEL 2
REMARK VINA RESULT:      -8.9      0.088      1.684
REMARK  5 active torsions:
REMARK  status: ('A' for Active; 'I' for Inactive)
REMARK    1  A    between atoms: C_7  and  C_8 
REMARK       I    between atoms: C_8  and  N_9 
REMARK    2  A    between atoms: N_9  and  C_10 
REMARK    3  A    between atoms: C_10  and  C_11 
REMARK    4  A    between atoms: C_11  and  O_12 
REMARK    5  A    between atoms: C_11  and  C_13 
ROOT
HETATM    1  C   UNL     1      42.878 -15.629   3.187  1.00  0.00     0.254 C 
HETATM    2  N   UNL     1      41.767 -15.001   3.700  1.00  0.00    -0.354 N 
HETATM    3  O   UNL     1      43.386 -15.273   2.128  1.00  0.00    -0.268 OA
HETATM    4  H   UNL     1      41.282 -15.417   4.480  1.00  0.00     0.162 HD
ENDROOT
BRANCH   2   5
HETATM    5  C   UNL     1      41.172 -13.838   3.058  1.00  0.00     0.159 C 
BRANCH   5   6
HETATM    6  C   UNL     1      39.967 -14.202   2.165  1.00  0.00     0.175 C 
BRANCH   6   7
HETATM    7  O   UNL     1      38.780 -13.598   2.694  1.00  0.00    -0.389 OA
HETATM    8  H   UNL     1      39.058 -12.729   3.031  1.00  0.00     0.210 HD
ENDBRANCH   6   7
BRANCH   6   9
HETATM    9  C   UNL     1      40.134 -13.750   0.739  1.00  0.00     0.049 A 
HETATM   10  C   UNL     1      40.591 -12.461   0.456  1.00  0.00     0.128 A 
HETATM   11  F   UNL     1      40.881 -11.617   1.457  1.00  0.00    -0.205 F 
HETATM   12  C   UNL     1      40.755 -12.010  -0.855  1.00  0.00     0.043 A 
HETATM   13  C   UNL     1      40.459 -12.855  -1.921  1.00  0.00     0.006 A 
HETATM   14  C   UNL     1      40.004 -14.145  -1.665  1.00  0.00     0.043 A 
HETATM   15  C   UNL     1      39.848 -14.581  -0.348  1.00  0.00     0.128 A 
HETATM   16  F   UNL     1      39.399 -15.828  -0.146  1.00  0.00    -0.205 F 
ENDBRANCH   6   9
ENDBRANCH   5   6
ENDBRANCH   2   5
BRANCH   1  17
HETATM   17  C   UNL     1      43.370 -16.772   3.962  1.00  0.00     0.066 A 
HETATM   18  C   UNL     1      43.901 -16.778   5.252  1.00  0.00     0.022 A 
HETATM   19  C   UNL     1      44.186 -15.694   6.232  1.00  0.00     0.069 C 
HETATM   20  N   UNL     1      44.226 -18.078   5.562  1.00  0.00    -0.358 N 
HETATM   21  H   UNL     1      44.634 -18.383   6.435  1.00  0.00     0.166 HD
HETATM   22  C   UNL     1      43.973 -18.914   4.505  1.00  0.00     0.043 A 
HETATM   23  C   UNL     1      43.442 -18.129   3.483  1.00  0.00     0.008 A 
HETATM   24  C   UNL     1      44.183 -20.293   4.378  1.00  0.00     0.030 A 
HETATM   25  C   UNL     1      43.100 -18.764   2.269  1.00  0.00     0.015 A 
HETATM   26  C   UNL     1      43.304 -20.140   2.122  1.00  0.00     0.001 A 
HETATM   27  C   UNL     1      43.839 -20.893   3.164  1.00  0.00     0.002 A 
ENDBRANCH   1  17
TORSDOF 5
ENDMDL
MODEL 3
REMARK VINA RESULT:      -8.3      1.681      2.707
REMARK  5 active torsions:
REMARK  status: ('A' for Active; 'I' for Inactive)
REMARK    1  A    between atoms: C_7  and  C_8 
REMARK       I    between atoms: C_8  and  N_9 
REMARK    2  A    between atoms: N_9  and  C_10 
REMARK    3  A    between atoms: C_10  and  C_11 
REMARK    4  A    between atoms: C_11  and  O_12 
REMARK    5  A    between atoms: C_11  and  C_13 
ROOT
HETATM    1  C   UNL     1      42.818 -15.905   2.365  1.00  0.00     0.254 C 
HETATM    2  N   UNL     1      41.490 -15.967   2.012  1.00  0.00    -0.354 N 
HETATM    3  O   UNL     1      43.601 -15.151   1.793  1.00  0.00    -0.268 OA
HETATM    4  H   UNL     1      40.915 -16.706   2.387  1.00  0.00     0.162 HD
ENDROOT
BRANCH   2   5
HETATM    5  C   UNL     1      40.921 -15.098   0.992  1.00  0.00     0.159 C 
BRANCH   5   6
HETATM    6  C   UNL     1      40.036 -13.982   1.586  1.00  0.00     0.175 C 
BRANCH   6   7
HETATM    7  O   UNL     1      39.117 -14.550   2.528  1.00  0.00    -0.389 OA
HETATM    8  H   UNL     1      38.766 -13.797   3.034  1.00  0.00     0.210 HD
ENDBRANCH   6   7
BRANCH   6   9
HETATM    9  C   UNL     1      40.830 -12.911   2.285  1.00  0.00     0.049 A 
HETATM   10  C   UNL     1      41.299 -11.804   1.574  1.00  0.00     0.128 A 
HETATM   11  F   UNL     1      41.048 -11.693   0.262  1.00  0.00    -0.205 F 
HETATM   12  C   UNL     1      42.039 -10.794   2.192  1.00  0.00     0.043 A 
HETATM   13  C   UNL     1      42.325 -10.876   3.552  1.00  0.00     0.006 A 
HETATM   14  C   UNL     1      41.866 -11.968   4.282  1.00  0.00     0.043 A 
HETATM   15  C   UNL     1      41.125 -12.968   3.650  1.00  0.00     0.128 A 
HETATM   16  F   UNL     1      40.710 -14.007   4.389  1.00  0.00    -0.205 F 
ENDBRANCH   6   9
ENDBRANCH   5   6
ENDBRANCH   2   5
BRANCH   1  17
HETATM   17  C   UNL     1      43.233 -16.829   3.425  1.00  0.00     0.066 A 
HETATM   18  C   UNL     1      43.548 -16.537   4.752  1.00  0.00     0.022 A 
HETATM   19  C   UNL     1      43.620 -15.263   5.517  1.00  0.00     0.069 C 
HETATM   20  N   UNL     1      43.881 -17.721   5.370  1.00  0.00    -0.358 N 
HETATM   21  H   UNL     1      44.158 -17.814   6.338  1.00  0.00     0.166 HD
HETATM   22  C   UNL     1      43.842 -18.766   4.484  1.00  0.00     0.043 A 
HETATM   23  C   UNL     1      43.446 -18.244   3.254  1.00  0.00     0.008 A 
HETATM   24  C   UNL     1      44.136 -20.122   4.678  1.00  0.00     0.030 A 
HETATM   25  C   UNL     1      43.335 -19.131   2.162  1.00  0.00     0.015 A 
HETATM   26  C   UNL     1      43.625 -20.489   2.335  1.00  0.00     0.001 A 
HETATM   27  C   UNL     1      44.020 -20.975   3.578  1.00  0.00     0.002 A 
ENDBRANCH   1  17
TORSDOF 5
ENDMDL
MODEL 4
REMARK VINA RESULT:      -8.2      1.950      3.440
REMARK  5 active torsions:
REMARK  status: ('A' for Active; 'I' for Inactive)
REMARK    1  A    between atoms: C_7  and  C_8 
REMARK       I    between atoms: C_8  and  N_9 
REMARK    2  A    between atoms: N_9  and  C_10 
REMARK    3  A    between atoms: C_10  and  C_11 
REMARK    4  A    between atoms: C_11  and  O_12 
REMARK    5  A    between atoms: C_11  and  C_13 
ROOT
HETATM    1  C   UNL     1      42.913 -15.952   2.427  1.00  0.00     0.254 C 
HETATM    2  N   UNL     1      41.607 -15.523   2.469  1.00  0.00    -0.354 N 
HETATM    3  O   UNL     1      43.678 -15.598   1.534  1.00  0.00    -0.268 OA
HETATM    4  H   UNL     1      40.967 -15.957   3.117  1.00  0.00     0.162 HD
ENDROOT
BRANCH   2   5
HETATM    5  C   UNL     1      41.075 -14.574   1.503  1.00  0.00     0.159 C 
BRANCH   5   6
HETATM    6  C   UNL     1      41.388 -13.109   1.872  1.00  0.00     0.175 C 
BRANCH   6   7
HETATM    7  O   UNL     1      40.654 -12.230   1.010  1.00  0.00    -0.389 OA
HETATM    8  H   UNL     1      39.873 -12.736   0.726  1.00  0.00     0.210 HD
ENDBRANCH   6   7
BRANCH   6   9
HETATM    9  C   UNL     1      41.039 -12.773   3.298  1.00  0.00     0.049 A 
HETATM   10  C   UNL     1      42.040 -12.412   4.203  1.00  0.00     0.128 A 
HETATM   11  F   UNL     1      43.319 -12.366   3.805  1.00  0.00    -0.205 F 
HETATM   12  C   UNL     1      41.751 -12.097   5.531  1.00  0.00     0.043 A 
HETATM   13  C   UNL     1      40.435 -12.138   5.984  1.00  0.00     0.006 A 
HETATM   14  C   UNL     1      39.419 -12.493   5.101  1.00  0.00     0.043 A 
HETATM   15  C   UNL     1      39.725 -12.802   3.774  1.00  0.00     0.128 A 
HETATM   16  F   UNL     1      38.718 -13.147   2.960  1.00  0.00    -0.205 F 
ENDBRANCH   6   9
ENDBRANCH   5   6
ENDBRANCH   2   5
BRANCH   1  17
HETATM   17  C   UNL     1      43.303 -16.891   3.483  1.00  0.00     0.066 A 
HETATM   18  C   UNL     1      43.611 -16.614   4.816  1.00  0.00     0.022 A 
HETATM   19  C   UNL     1      43.697 -15.346   5.590  1.00  0.00     0.069 C 
HETATM   20  N   UNL     1      43.918 -17.807   5.428  1.00  0.00    -0.358 N 
HETATM   21  H   UNL     1      44.184 -17.912   6.398  1.00  0.00     0.166 HD
HETATM   22  C   UNL     1      43.870 -18.846   4.533  1.00  0.00     0.043 A 
HETATM   23  C   UNL     1      43.494 -18.308   3.305  1.00  0.00     0.008 A 
HETATM   24  C   UNL     1      44.139 -20.207   4.721  1.00  0.00     0.030 A 
HETATM   25  C   UNL     1      43.378 -19.185   2.204  1.00  0.00     0.015 A 
HETATM   26  C   UNL     1      43.644 -20.549   2.371  1.00  0.00     0.001 A 
HETATM   27  C   UNL     1      44.020 -21.051   3.613  1.00  0.00     0.002 A 
ENDBRANCH   1  17
TORSDOF 5
ENDMDL
MODEL 5
REMARK VINA RESULT:      -8.1      4.389      6.752
REMARK  5 active torsions:
REMARK  status: ('A' for Active; 'I' for Inactive)
REMARK    1  A    between atoms: C_7  and  C_8 
REMARK       I    between atoms: C_8  and  N_9 
REMARK    2  A    between atoms: N_9  and  C_10 
REMARK    3  A    between atoms: C_10  and  C_11 
REMARK    4  A    between atoms: C_11  and  O_12 
REMARK    5  A    between atoms: C_11  and  C_13 
ROOT
HETATM    1  C   UNL     1      42.276 -14.559   5.421  1.00  0.00     0.254 C 
HETATM    2  N   UNL     1      43.465 -13.872   5.503  1.00  0.00    -0.354 N 
HETATM    3  O   UNL     1      41.412 -14.456   6.287  1.00  0.00    -0.268 OA
HETATM    4  H   UNL     1      44.212 -14.102   4.865  1.00  0.00     0.162 HD
ENDROOT
BRANCH   2   5
HETATM    5  C   UNL     1      43.740 -12.932   6.579  1.00  0.00     0.159 C 
BRANCH   5   6
HETATM    6  C   UNL     1      44.710 -11.810   6.157  1.00  0.00     0.175 C 
BRANCH   6   7
HETATM    7  O   UNL     1      44.327 -11.303   4.872  1.00  0.00    -0.389 OA
HETATM    8  H   UNL     1      43.763 -11.991   4.479  1.00  0.00     0.210 HD
ENDBRANCH   6   7
BRANCH   6   9
HETATM    9  C   UNL     1      44.740 -10.661   7.129  1.00  0.00     0.049 A 
HETATM   10  C   UNL     1      43.564  -9.982   7.455  1.00  0.00     0.128 A 
HETATM   11  F   UNL     1      42.401 -10.349   6.899  1.00  0.00    -0.205 F 
HETATM   12  C   UNL     1      43.557  -8.911   8.352  1.00  0.00     0.043 A 
HETATM   13  C   UNL     1      44.746  -8.497   8.946  1.00  0.00     0.006 A 
HETATM   14  C   UNL     1      45.931  -9.159   8.639  1.00  0.00     0.043 A 
HETATM   15  C   UNL     1      45.920 -10.229   7.743  1.00  0.00     0.128 A 
HETATM   16  F   UNL     1      47.085 -10.833   7.469  1.00  0.00    -0.205 F 
ENDBRANCH   6   9
ENDBRANCH   5   6
ENDBRANCH   2   5
BRANCH   1  17
HETATM   17  C   UNL     1      42.142 -15.451   4.265  1.00  0.00     0.066 A 
HETATM   18  C   UNL     1      41.255 -15.350   3.192  1.00  0.00     0.022 A 
HETATM   19  C   UNL     1      40.163 -14.391   2.872  1.00  0.00     0.069 C 
HETATM   20  N   UNL     1      41.497 -16.411   2.351  1.00  0.00    -0.358 N 
HETATM   21  H   UNL     1      40.999 -16.597   1.491  1.00  0.00     0.166 HD
HETATM   22  C   UNL     1      42.474 -17.229   2.859  1.00  0.00     0.043 A 
HETATM   23  C   UNL     1      42.897 -16.662   4.059  1.00  0.00     0.008 A 
HETATM   24  C   UNL     1      43.002 -18.423   2.351  1.00  0.00     0.030 A 
HETATM   25  C   UNL     1      43.907 -17.327   4.788  1.00  0.00     0.015 A 
HETATM   26  C   UNL     1      44.446 -18.522   4.298  1.00  0.00     0.001 A 
HETATM   27  C   UNL     1      43.997 -19.061   3.095  1.00  0.00     0.002 A 
ENDBRANCH   1  17
TORSDOF 5
ENDMDL
MODEL 6
REMARK VINA RESULT:      -8.1      2.700      3.726
REMARK  5 active torsions:
REMARK  status: ('A' for Active; 'I' for Inactive)
REMARK    1  A    between atoms: C_7  and  C_8 
REMARK       I    between atoms: C_8  and  N_9 
REMARK    2  A    between atoms: N_9  and  C_10 
REMARK    3  A    between atoms: C_10  and  C_11 
REMARK    4  A    between atoms: C_11  and  O_12 
REMARK    5  A    between atoms: C_11  and  C_13 
ROOT
HETATM    1  C   UNL     1      42.852 -15.789   5.192  1.00  0.00     0.254 C 
HETATM    2  N   UNL     1      41.515 -15.576   5.433  1.00  0.00    -0.354 N 
HETATM    3  O   UNL     1      43.721 -15.139   5.768  1.00  0.00    -0.268 OA
HETATM    4  H   UNL     1      40.831 -16.008   4.829  1.00  0.00     0.162 HD
ENDROOT
BRANCH   2   5
HETATM    5  C   UNL     1      41.052 -14.623   6.430  1.00  0.00     0.159 C 
BRANCH   5   6
HETATM    6  C   UNL     1      40.280 -13.439   5.809  1.00  0.00     0.175 C 
BRANCH   6   7
HETATM    7  O   UNL     1      39.868 -12.540   6.846  1.00  0.00    -0.389 OA
HETATM    8  H   UNL     1      39.363 -11.839   6.398  1.00  0.00     0.210 HD
ENDBRANCH   6   7
BRANCH   6   9
HETATM    9  C   UNL     1      41.094 -12.666   4.808  1.00  0.00     0.049 A 
HETATM   10  C   UNL     1      40.716 -12.636   3.463  1.00  0.00     0.128 A 
HETATM   11  F   UNL     1      39.625 -13.302   3.058  1.00  0.00    -0.205 F 
HETATM   12  C   UNL     1      41.450 -11.929   2.509  1.00  0.00     0.043 A 
HETATM   13  C   UNL     1      42.592 -11.230   2.889  1.00  0.00     0.006 A 
HETATM   14  C   UNL     1      42.988 -11.242   4.223  1.00  0.00     0.043 A 
HETATM   15  C   UNL     1      42.241 -11.952   5.166  1.00  0.00     0.128 A 
HETATM   16  F   UNL     1      42.663 -11.944   6.438  1.00  0.00    -0.205 F 
ENDBRANCH   6   9
ENDBRANCH   5   6
ENDBRANCH   2   5
BRANCH   1  17
HETATM   17  C   UNL     1      43.158 -16.798   4.173  1.00  0.00     0.066 A 
HETATM   18  C   UNL     1      43.166 -16.650   2.785  1.00  0.00     0.022 A 
HETATM   19  C   UNL     1      42.845 -15.506   1.889  1.00  0.00     0.069 C 
HETATM   20  N   UNL     1      43.511 -17.865   2.241  1.00  0.00    -0.358 N 
HETATM   21  H   UNL     1      43.592 -18.057   1.251  1.00  0.00     0.166 HD
HETATM   22  C   UNL     1      43.679 -18.813   3.218  1.00  0.00     0.043 A 
HETATM   23  C   UNL     1      43.461 -18.181   4.440  1.00  0.00     0.008 A 
HETATM   24  C   UNL     1      43.998 -20.172   3.108  1.00  0.00     0.030 A 
HETATM   25  C   UNL     1      43.571 -18.955   5.616  1.00  0.00     0.015 A 
HETATM   26  C   UNL     1      43.887 -20.315   5.526  1.00  0.00     0.001 A 
HETATM   27  C   UNL     1      44.096 -20.913   4.288  1.00  0.00     0.002 A 
ENDBRANCH   1  17
TORSDOF 5
ENDMDL
MODEL 7
REMARK VINA RESULT:      -8.0      1.691      2.098
REMARK  5 active torsions:
REMARK  status: ('A' for Active; 'I' for Inactive)
REMARK    1  A    between atoms: C_7  and  C_8 
REMARK       I    between atoms: C_8  and  N_9 
REMARK    2  A    between atoms: N_9  and  C_10 
REMARK    3  A    between atoms: C_10  and  C_11 
REMARK    4  A    between atoms: C_11  and  O_12 
REMARK    5  A    between atoms: C_11  and  C_13 
ROOT
HETATM    1  C   UNL     1      41.422 -14.854   5.423  1.00  0.00     0.254 C 
HETATM    2  N   UNL     1      41.857 -13.817   4.631  1.00  0.00    -0.354 N 
HETATM    3  O   UNL     1      40.342 -14.810   6.005  1.00  0.00    -0.268 OA
HETATM    4  H   UNL     1      42.811 -13.815   4.302  1.00  0.00     0.162 HD
ENDROOT
BRANCH   2   5
HETATM    5  C   UNL     1      41.038 -12.641   4.382  1.00  0.00     0.159 C 
BRANCH   5   6
HETATM    6  C   UNL     1      39.733 -12.972   3.628  1.00  0.00     0.175 C 
BRANCH   6   7
HETATM    7  O   UNL     1      38.894 -11.811   3.588  1.00  0.00    -0.389 OA
HETATM    8  H   UNL     1      38.620 -11.719   2.659  1.00  0.00     0.210 HD
ENDBRANCH   6   7
BRANCH   6   9
HETATM    9  C   UNL     1      39.970 -13.433   2.215  1.00  0.00     0.049 A 
HETATM   10  C   UNL     1      39.812 -14.779   1.876  1.00  0.00     0.128 A 
HETATM   11  F   UNL     1      39.451 -15.669   2.812  1.00  0.00    -0.205 F 
HETATM   12  C   UNL     1      40.025 -15.240   0.576  1.00  0.00     0.043 A 
HETATM   13  C   UNL     1      40.407 -14.348  -0.423  1.00  0.00     0.006 A 
HETATM   14  C   UNL     1      40.569 -13.002  -0.111  1.00  0.00     0.043 A 
HETATM   15  C   UNL     1      40.348 -12.557   1.194  1.00  0.00     0.128 A 
HETATM   16  F   UNL     1      40.524 -11.253   1.453  1.00  0.00    -0.205 F 
ENDBRANCH   6   9
ENDBRANCH   5   6
ENDBRANCH   2   5
BRANCH   1  17
HETATM   17  C   UNL     1      42.354 -15.978   5.559  1.00  0.00     0.066 A 
HETATM   18  C   UNL     1      43.058 -16.386   6.693  1.00  0.00     0.022 A 
HETATM   19  C   UNL     1      43.151 -15.840   8.074  1.00  0.00     0.069 C 
HETATM   20  N   UNL     1      43.807 -17.485   6.343  1.00  0.00    -0.358 N 
HETATM   21  H   UNL     1      44.421 -17.992   6.966  1.00  0.00     0.166 HD
HETATM   22  C   UNL     1      43.657 -17.781   5.013  1.00  0.00     0.043 A 
HETATM   23  C   UNL     1      42.759 -16.854   4.488  1.00  0.00     0.008 A 
HETATM   24  C   UNL     1      44.253 -18.786   4.241  1.00  0.00     0.030 A 
HETATM   25  C   UNL     1      42.439 -16.943   3.116  1.00  0.00     0.015 A 
HETATM   26  C   UNL     1      43.026 -17.940   2.328  1.00  0.00     0.001 A 
HETATM   27  C   UNL     1      43.921 -18.848   2.886  1.00  0.00     0.002 A 
ENDBRANCH   1  17
TORSDOF 5
ENDMDL
MODEL 8
REMARK VINA RESULT:      -7.9      2.712      7.181
REMARK  5 active torsions:
REMARK  status: ('A' for Active; 'I' for Inactive)
REMARK    1  A    between atoms: C_7  and  C_8 
REMARK       I    between atoms: C_8  and  N_9 
REMARK    2  A    between atoms: N_9  and  C_10 
REMARK    3  A    between atoms: C_10  and  C_11 
REMARK    4  A    between atoms: C_11  and  O_12 
REMARK    5  A    between atoms: C_11  and  C_13 
ROOT
HETATM    1  C   UNL     1      40.509 -13.147   1.317  1.00  0.00     0.254 C 
HETATM    2  N   UNL     1      40.097 -13.560   2.563  1.00  0.00    -0.354 N 
HETATM    3  O   UNL     1      41.699 -13.103   1.015  1.00  0.00    -0.268 OA
HETATM    4  H   UNL     1      39.133 -13.431   2.830  1.00  0.00     0.162 HD
ENDROOT
BRANCH   2   5
HETATM    5  C   UNL     1      41.036 -14.032   3.569  1.00  0.00     0.159 C 
BRANCH   5   6
HETATM    6  C   UNL     1      40.710 -15.455   4.067  1.00  0.00     0.175 C 
BRANCH   6   7
HETATM    7  O   UNL     1      39.541 -15.942   3.395  1.00  0.00    -0.389 OA
HETATM    8  H   UNL     1      38.797 -15.439   3.770  1.00  0.00     0.210 HD
ENDBRANCH   6   7
BRANCH   6   9
HETATM    9  C   UNL     1      41.831 -16.432   3.834  1.00  0.00     0.049 A 
HETATM   10  C   UNL     1      42.155 -16.837   2.537  1.00  0.00     0.128 A 
HETATM   11  F   UNL     1      41.464 -16.360   1.492  1.00  0.00    -0.205 F 
HETATM   12  C   UNL     1      43.188 -17.743   2.286  1.00  0.00     0.043 A 
HETATM   13  C   UNL     1      43.925 -18.266   3.345  1.00  0.00     0.006 A 
HETATM   14  C   UNL     1      43.623 -17.875   4.647  1.00  0.00     0.043 A 
HETATM   15  C   UNL     1      42.589 -16.966   4.880  1.00  0.00     0.128 A 
HETATM   16  F   UNL     1      42.326 -16.624   6.149  1.00  0.00    -0.205 F 
ENDBRANCH   6   9
ENDBRANCH   5   6
ENDBRANCH   2   5
BRANCH   1  17
HETATM   17  C   UNL     1      39.440 -12.721   0.408  1.00  0.00     0.066 A 
HETATM   18  C   UNL     1      38.560 -11.648   0.551  1.00  0.00     0.022 A 
HETATM   19  C   UNL     1      38.365 -10.638   1.626  1.00  0.00     0.069 C 
HETATM   20  N   UNL     1      37.734 -11.640  -0.549  1.00  0.00    -0.358 N 
HETATM   21  H   UNL     1      36.992 -10.972  -0.714  1.00  0.00     0.166 HD
HETATM   22  C   UNL     1      38.009 -12.696  -1.379  1.00  0.00     0.043 A 
HETATM   23  C   UNL     1      39.068 -13.397  -0.809  1.00  0.00     0.008 A 
HETATM   24  C   UNL     1      37.396 -13.081  -2.578  1.00  0.00     0.030 A 
HETATM   25  C   UNL     1      39.540 -14.547  -1.480  1.00  0.00     0.015 A 
HETATM   26  C   UNL     1      38.940 -14.949  -2.678  1.00  0.00     0.001 A 
HETATM   27  C   UNL     1      37.881 -14.224  -3.218  1.00  0.00     0.002 A 
ENDBRANCH   1  17
TORSDOF 5
ENDMDL
MODEL 9
REMARK VINA RESULT:      -7.9      4.314      6.669
REMARK  5 active torsions:
REMARK  status: ('A' for Active; 'I' for Inactive)
REMARK    1  A    between atoms: C_7  and  C_8 
REMARK       I    between atoms: C_8  and  N_9 
REMARK    2  A    between atoms: N_9  and  C_10 
REMARK    3  A    between atoms: C_10  and  C_11 
REMARK    4  A    between atoms: C_11  and  O_12 
REMARK    5  A    between atoms: C_11  and  C_13 
ROOT
HETATM    1  C   UNL     1      42.200 -14.917   5.610  1.00  0.00     0.254 C 
HETATM    2  N   UNL     1      43.278 -14.066   5.690  1.00  0.00    -0.354 N 
HETATM    3  O   UNL     1      41.396 -15.026   6.532  1.00  0.00    -0.268 OA
HETATM    4  H   UNL     1      44.002 -14.120   4.990  1.00  0.00     0.162 HD
ENDROOT
BRANCH   2   5
HETATM    5  C   UNL     1      43.490 -13.196   6.837  1.00  0.00     0.159 C 
BRANCH   5   6
HETATM    6  C   UNL     1      43.308 -11.703   6.495  1.00  0.00     0.175 C 
BRANCH   6   7
HETATM    7  O   UNL     1      41.944 -11.324   6.714  1.00  0.00    -0.389 OA
HETATM    8  H   UNL     1      41.821 -11.338   7.679  1.00  0.00     0.210 HD
ENDBRANCH   6   7
BRANCH   6   9
HETATM    9  C   UNL     1      44.188 -10.799   7.316  1.00  0.00     0.049 A 
HETATM   10  C   UNL     1      45.565 -10.755   7.084  1.00  0.00     0.128 A 
HETATM   11  F   UNL     1      46.110 -11.522   6.130  1.00  0.00    -0.205 F 
HETATM   12  C   UNL     1      46.410  -9.929   7.829  1.00  0.00     0.043 A 
HETATM   13  C   UNL     1      45.882  -9.121   8.833  1.00  0.00     0.006 A 
HETATM   14  C   UNL     1      44.513  -9.146   9.081  1.00  0.00     0.043 A 
HETATM   15  C   UNL     1      43.682  -9.975   8.325  1.00  0.00     0.128 A 
HETATM   16  F   UNL     1      42.371  -9.974   8.603  1.00  0.00    -0.205 F 
ENDBRANCH   6   9
ENDBRANCH   5   6
ENDBRANCH   2   5
BRANCH   1  17
HETATM   17  C   UNL     1      42.114 -15.711   4.380  1.00  0.00     0.066 A 
HETATM   18  C   UNL     1      41.265 -15.525   3.288  1.00  0.00     0.022 A 
HETATM   19  C   UNL     1      40.178 -14.548   3.009  1.00  0.00     0.069 C 
HETATM   20  N   UNL     1      41.544 -16.512   2.372  1.00  0.00    -0.358 N 
HETATM   21  H   UNL     1      41.079 -16.628   1.482  1.00  0.00     0.166 HD
HETATM   22  C   UNL     1      42.508 -17.365   2.846  1.00  0.00     0.043 A 
HETATM   23  C   UNL     1      42.884 -16.897   4.103  1.00  0.00     0.008 A 
HETATM   24  C   UNL     1      43.062 -18.511   2.261  1.00  0.00     0.030 A 
HETATM   25  C   UNL     1      43.872 -17.617   4.810  1.00  0.00     0.015 A 
HETATM   26  C   UNL     1      44.436 -18.764   4.244  1.00  0.00     0.001 A 
HETATM   27  C   UNL     1      44.035 -19.204   2.986  1.00  0.00     0.002 A 
ENDBRANCH   1  17
TORSDOF 5
ENDMDL
MODEL 10
REMARK VINA RESULT:      -7.8      4.268      6.360
REMARK  5 active torsions:
REMARK  status: ('A' for Active; 'I' for Inactive)
REMARK    1  A    between atoms: C_7  and  C_8 
REMARK       I    between atoms: C_8  and  N_9 
REMARK    2  A    between atoms: N_9  and  C_10 
REMARK    3  A    between atoms: C_10  and  C_11 
REMARK    4  A    between atoms: C_11  and  O_12 
REMARK    5  A    between atoms: C_11  and  C_13 
ROOT
HETATM    1  C   UNL     1      42.633 -15.006   5.517  1.00  0.00     0.254 C 
HETATM    2  N   UNL     1      43.511 -14.095   6.056  1.00  0.00    -0.354 N 
HETATM    3  O   UNL     1      41.507 -14.677   5.153  1.00  0.00    -0.268 OA
HETATM    4  H   UNL     1      44.359 -14.426   6.491  1.00  0.00     0.162 HD
ENDROOT
BRANCH   2   5
HETATM    5  C   UNL     1      43.186 -12.681   6.162  1.00  0.00     0.159 C 
BRANCH   5   6
HETATM    6  C   UNL     1      44.399 -11.768   5.881  1.00  0.00     0.175 C 
BRANCH   6   7
HETATM    7  O   UNL     1      44.259 -11.172   4.585  1.00  0.00    -0.389 OA
HETATM    8  H   UNL     1      44.356 -10.214   4.727  1.00  0.00     0.210 HD
ENDBRANCH   6   7
BRANCH   6   9
HETATM    9  C   UNL     1      44.555 -10.667   6.894  1.00  0.00     0.049 A 
HETATM   10  C   UNL     1      45.807 -10.393   7.451  1.00  0.00     0.128 A 
HETATM   11  F   UNL     1      46.876 -11.114   7.086  1.00  0.00    -0.205 F 
HETATM   12  C   UNL     1      45.985  -9.380   8.395  1.00  0.00     0.043 A 
HETATM   13  C   UNL     1      44.898  -8.612   8.803  1.00  0.00     0.006 A 
HETATM   14  C   UNL     1      43.641  -8.864   8.262  1.00  0.00     0.043 A 
HETATM   15  C   UNL     1      43.480  -9.879   7.317  1.00  0.00     0.128 A 
HETATM   16  F   UNL     1      42.251 -10.095   6.827  1.00  0.00    -0.205 F 
ENDBRANCH   6   9
ENDBRANCH   5   6
ENDBRANCH   2   5
BRANCH   1  17
HETATM   17  C   UNL     1      43.115 -16.390   5.459  1.00  0.00     0.066 A 
HETATM   18  C   UNL     1      43.640 -17.167   6.493  1.00  0.00     0.022 A 
HETATM   19  C   UNL     1      43.926 -16.882   7.925  1.00  0.00     0.069 C 
HETATM   20  N   UNL     1      43.957 -18.398   5.968  1.00  0.00    -0.358 N 
HETATM   21  H   UNL     1      44.360 -19.166   6.488  1.00  0.00     0.166 HD
HETATM   22  C   UNL     1      43.705 -18.437   4.620  1.00  0.00     0.043 A 
HETATM   23  C   UNL     1      43.183 -17.195   4.267  1.00  0.00     0.008 A 
HETATM   24  C   UNL     1      43.909 -19.471   3.697  1.00  0.00     0.030 A 
HETATM   25  C   UNL     1      42.844 -16.980   2.913  1.00  0.00     0.015 A 
HETATM   26  C   UNL     1      43.041 -17.999   1.975  1.00  0.00     0.001 A 
HETATM   27  C   UNL     1      43.567 -19.228   2.365  1.00  0.00     0.002 A 
ENDBRANCH   1  17
TORSDOF 5
ENDMDL
