MODEL 1
REMARK VINA RESULT:      -8.3      0.000      0.000
REMARK  6 active torsions:
REMARK  status: ('A' for Active; 'I' for Inactive)
REMARK    1  A    between atoms: C_2  and  O_3 
REMARK    2  A    between atoms: C_2  and  C_4 
REMARK    3  A    between atoms: C_7  and  N_8 
REMARK       I    between atoms: N_8  and  C_9 
REMARK    4  A    between atoms: C_9  and  C_10 
REMARK    5  A    between atoms: C_15  and  C_16 
REMARK    6  A    between atoms: C_22  and  C_23 
ROOT
HETATM    1  C   UNL     1      40.223 -13.769   0.987  1.00  0.00     0.148 A 
HETATM    2  N   UNL     1      39.984 -13.816  -0.345  1.00  0.00    -0.165 NA
HETATM    3  N   UNL     1      39.867 -12.517  -0.686  1.00  0.00    -0.240 N 
HETATM    4  C   UNL     1      39.903 -11.660   0.379  1.00  0.00     0.123 A 
HETATM    5  N   UNL     1      39.685 -10.336   0.236  1.00  0.00    -0.364 N 
HETATM    6  C   UNL     1      39.573  -9.701  -1.076  1.00  0.00     0.143 C 
HETATM    7  C   UNL     1      39.029 -10.701  -2.112  1.00  0.00     0.068 C 
HETATM    8  C   UNL     1      39.682 -12.095  -2.061  1.00  0.00     0.221 C 
HETATM    9  C   UNL     1      40.174 -12.434   1.474  1.00  0.00     0.089 A 
HETATM   10  H   UNL     1      39.847  -9.697   1.012  1.00  0.00     0.162 HD
ENDROOT
BRANCH   1  11
HETATM   11  C   UNL     1      40.471 -14.979   1.793  1.00  0.00     0.276 C 
HETATM   12  N   UNL     1      41.812 -15.156   2.073  1.00  0.00    -0.322 N 
HETATM   13  H   UNL     1      42.411 -14.446   1.661  1.00  0.00     0.169 HD
HETATM   14  O   UNL     1      39.549 -15.719   2.123  1.00  0.00    -0.266 OA
BRANCH  12  15
HETATM   15  C   UNL     1      42.415 -16.207   2.786  1.00  0.00     0.035 A 
HETATM   16  C   UNL     1      42.581 -16.208   4.171  1.00  0.00     0.030 A 
HETATM   17  C   UNL     1      43.174 -17.300   4.817  1.00  0.00     0.012 A 
HETATM   18  C   UNL     1      43.612 -18.414   4.092  1.00  0.00    -0.030 A 
HETATM   19  C   UNL     1      43.443 -18.408   2.701  1.00  0.00     0.012 A 
HETATM   20  C   UNL     1      42.862 -17.311   2.054  1.00  0.00     0.030 A 
BRANCH  18  21
HETATM   21  C   UNL     1      44.201 -19.605   4.818  1.00  0.00     0.147 C 
HETATM   22  C   UNL     1      44.005 -20.932   4.098  1.00  0.00     0.044 C 
BRANCH  21  23
HETATM   23  O   UNL     1      43.619 -19.700   6.117  1.00  0.00    -0.391 OA
HETATM   24  H   UNL     1      44.253 -20.174   6.684  1.00  0.00     0.210 HD
ENDBRANCH  21  23
ENDBRANCH  18  21
ENDBRANCH  12  15
ENDBRANCH   1  11
BRANCH   8  25
HETATM   25  C   UNL     1      40.997 -12.184  -2.804  1.00  0.00     0.409 C 
HETATM   26  F   UNL     1      41.238 -13.396  -3.340  1.00  0.00    -0.169 F 
HETATM   27  F   UNL     1      41.066 -11.279  -3.809  1.00  0.00    -0.169 F 
HETATM   28  F   UNL     1      42.029 -11.900  -1.970  1.00  0.00    -0.169 F 
ENDBRANCH   8  25
BRANCH   6  29
HETATM   29  C   UNL     1      40.806  -8.985  -1.528  1.00  0.00     0.075 A 
HETATM   30  O   UNL     1      40.734  -8.360  -2.739  1.00  0.00    -0.325 OA
HETATM   31  C   UNL     1      41.928  -7.744  -2.940  1.00  0.00     0.142 A 
HETATM   32  C   UNL     1      42.767  -7.961  -1.873  1.00  0.00     0.027 A 
HETATM   33  C   UNL     1      42.042  -8.757  -0.956  1.00  0.00     0.037 A 
ENDBRANCH   6  29
TORSDOF 6
ENDMDL
MODEL 2
REMARK VINA RESULT:      -8.3      8.031      9.733
REMARK  6 active torsions:
REMARK  status: ('A' for Active; 'I' for Inactive)
REMARK    1  A    between atoms: C_2  and  O_3 
REMARK    2  A    between atoms: C_2  and  C_4 
REMARK    3  A    between atoms: C_7  and  N_8 
REMARK       I    between atoms: N_8  and  C_9 
REMARK    4  A    between atoms: C_9  and  C_10 
REMARK    5  A    between atoms: C_15  and  C_16 
REMARK    6  A    between atoms: C_22  and  C_23 
ROOT
HETATM    1  C   UNL     1      43.226 -11.119   6.752  1.00  0.00     0.148 A 
HETATM    2  N   UNL     1      44.177 -10.534   7.518  1.00  0.00    -0.165 NA
HETATM    3  N   UNL     1      43.478  -9.655   8.265  1.00  0.00    -0.240 N 
HETATM    4  C   UNL     1      42.155  -9.573   7.929  1.00  0.00     0.123 A 
HETATM    5  N   UNL     1      41.332  -8.664   8.492  1.00  0.00    -0.364 N 
HETATM    6  C   UNL     1      41.746  -7.830   9.620  1.00  0.00     0.143 C 
HETATM    7  C   UNL     1      43.266  -7.594   9.583  1.00  0.00     0.068 C 
HETATM    8  C   UNL     1      44.104  -8.855   9.300  1.00  0.00     0.221 C 
HETATM    9  C   UNL     1      41.948 -10.537   6.981  1.00  0.00     0.089 A 
HETATM   10  H   UNL     1      40.327  -8.704   8.332  1.00  0.00     0.162 HD
ENDROOT
BRANCH   1  11
HETATM   11  C   UNL     1      43.529 -12.201   5.797  1.00  0.00     0.276 C 
HETATM   12  N   UNL     1      43.248 -13.450   6.315  1.00  0.00    -0.322 N 
HETATM   13  H   UNL     1      42.904 -13.426   7.271  1.00  0.00     0.169 HD
HETATM   14  O   UNL     1      44.002 -11.955   4.692  1.00  0.00    -0.266 OA
BRANCH  12  15
HETATM   15  C   UNL     1      43.437 -14.702   5.704  1.00  0.00     0.035 A 
HETATM   16  C   UNL     1      42.897 -15.050   4.465  1.00  0.00     0.030 A 
HETATM   17  C   UNL     1      43.144 -16.310   3.908  1.00  0.00     0.012 A 
HETATM   18  C   UNL     1      43.938 -17.249   4.577  1.00  0.00    -0.030 A 
HETATM   19  C   UNL     1      44.479 -16.896   5.820  1.00  0.00     0.012 A 
HETATM   20  C   UNL     1      44.221 -15.640   6.383  1.00  0.00     0.030 A 
BRANCH  18  21
HETATM   21  C   UNL     1      44.236 -18.585   3.929  1.00  0.00     0.147 C 
HETATM   22  C   UNL     1      43.460 -18.841   2.645  1.00  0.00     0.044 C 
BRANCH  21  23
HETATM   23  O   UNL     1      43.949 -19.632   4.854  1.00  0.00    -0.391 OA
HETATM   24  H   UNL     1      43.196 -20.134   4.498  1.00  0.00     0.210 HD
ENDBRANCH  21  23
ENDBRANCH  18  21
ENDBRANCH  12  15
ENDBRANCH   1  11
BRANCH   8  25
HETATM   25  C   UNL     1      44.361  -9.709  10.521  1.00  0.00     0.409 C 
HETATM   26  F   UNL     1      43.479 -10.714  10.678  1.00  0.00    -0.169 F 
HETATM   27  F   UNL     1      45.598 -10.258  10.496  1.00  0.00    -0.169 F 
HETATM   28  F   UNL     1      44.310  -8.949  11.646  1.00  0.00    -0.169 F 
ENDBRANCH   8  25
BRANCH   6  29
HETATM   29  C   UNL     1      41.245  -8.291  10.951  1.00  0.00     0.075 A 
HETATM   30  O   UNL     1      40.674  -9.530  10.988  1.00  0.00    -0.325 OA
HETATM   31  C   UNL     1      40.330  -9.771  12.280  1.00  0.00     0.142 A 
HETATM   32  C   UNL     1      40.674  -8.705  13.077  1.00  0.00     0.027 A 
HETATM   33  C   UNL     1      41.272  -7.751  12.222  1.00  0.00     0.037 A 
ENDBRANCH   6  29
TORSDOF 6
ENDMDL
MODEL 3
REMARK VINA RESULT:      -8.1      9.121     10.818
REMARK  6 active torsions:
REMARK  status: ('A' for Active; 'I' for Inactive)
REMARK    1  A    between atoms: C_2  and  O_3 
REMARK    2  A    between atoms: C_2  and  C_4 
REMARK    3  A    between atoms: C_7  and  N_8 
REMARK       I    between atoms: N_8  and  C_9 
REMARK    4  A    between atoms: C_9  and  C_10 
REMARK    5  A    between atoms: C_15  and  C_16 
REMARK    6  A    between atoms: C_22  and  C_23 
ROOT
HETATM    1  C   UNL     1      43.826 -10.773   8.349  1.00  0.00     0.148 A 
HETATM    2  N   UNL     1      44.230 -10.790   9.641  1.00  0.00    -0.165 NA
HETATM    3  N   UNL     1      43.641  -9.696  10.165  1.00  0.00    -0.240 N 
HETATM    4  C   UNL     1      42.982  -8.928   9.246  1.00  0.00     0.123 A 
HETATM    5  N   UNL     1      42.434  -7.739   9.571  1.00  0.00    -0.364 N 
HETATM    6  C   UNL     1      42.348  -7.272  10.955  1.00  0.00     0.143 C 
HETATM    7  C   UNL     1      43.497  -7.861  11.792  1.00  0.00     0.068 C 
HETATM    8  C   UNL     1      43.742  -9.366  11.574  1.00  0.00     0.221 C 
HETATM    9  C   UNL     1      43.047  -9.617   8.066  1.00  0.00     0.089 A 
HETATM   10  H   UNL     1      41.835  -7.245   8.912  1.00  0.00     0.162 HD
ENDROOT
BRANCH   1  11
HETATM   11  C   UNL     1      44.195 -11.829   7.388  1.00  0.00     0.276 C 
HETATM   12  N   UNL     1      43.166 -12.727   7.176  1.00  0.00    -0.322 N 
HETATM   13  H   UNL     1      42.336 -12.533   7.730  1.00  0.00     0.169 HD
HETATM   14  O   UNL     1      45.314 -11.866   6.888  1.00  0.00    -0.266 OA
BRANCH  12  15
HETATM   15  C   UNL     1      43.169 -13.867   6.355  1.00  0.00     0.035 A 
HETATM   16  C   UNL     1      42.761 -13.862   5.020  1.00  0.00     0.030 A 
HETATM   17  C   UNL     1      42.809 -15.035   4.256  1.00  0.00     0.012 A 
HETATM   18  C   UNL     1      43.269 -16.236   4.808  1.00  0.00    -0.030 A 
HETATM   19  C   UNL     1      43.679 -16.236   6.148  1.00  0.00     0.012 A 
HETATM   20  C   UNL     1      43.618 -15.066   6.916  1.00  0.00     0.030 A 
BRANCH  18  21
HETATM   21  C   UNL     1      43.364 -17.476   3.946  1.00  0.00     0.147 C 
HETATM   22  C   UNL     1      44.460 -18.445   4.368  1.00  0.00     0.044 C 
BRANCH  21  23
HETATM   23  O   UNL     1      43.589 -17.094   2.591  1.00  0.00    -0.391 OA
HETATM   24  H   UNL     1      43.943 -16.188   2.601  1.00  0.00     0.210 HD
ENDBRANCH  21  23
ENDBRANCH  18  21
ENDBRANCH  12  15
ENDBRANCH   1  11
BRANCH   8  25
HETATM   25  C   UNL     1      42.824 -10.261  12.376  1.00  0.00     0.409 C 
HETATM   26  F   UNL     1      42.481  -9.755  13.576  1.00  0.00    -0.169 F 
HETATM   27  F   UNL     1      41.676 -10.528  11.709  1.00  0.00    -0.169 F 
HETATM   28  F   UNL     1      43.416 -11.462  12.600  1.00  0.00    -0.169 F 
ENDBRANCH   8  25
BRANCH   6  29
HETATM   29  C   UNL     1      41.003  -7.440  11.585  1.00  0.00     0.075 A 
HETATM   30  O   UNL     1      40.912  -7.134  12.912  1.00  0.00    -0.325 OA
HETATM   31  C   UNL     1      39.616  -7.312  13.274  1.00  0.00     0.142 A 
HETATM   32  C   UNL     1      38.867  -7.726  12.198  1.00  0.00     0.027 A 
HETATM   33  C   UNL     1      39.761  -7.804  11.104  1.00  0.00     0.037 A 
ENDBRANCH   6  29
TORSDOF 6
ENDMDL
MODEL 4
REMARK VINA RESULT:      -8.1      1.527      1.849
REMARK  6 active torsions:
REMARK  status: ('A' for Active; 'I' for Inactive)
REMARK    1  A    between atoms: C_2  and  O_3 
REMARK    2  A    between atoms: C_2  and  C_4 
REMARK    3  A    between atoms: C_7  and  N_8 
REMARK       I    between atoms: N_8  and  C_9 
REMARK    4  A    between atoms: C_9  and  C_10 
REMARK    5  A    between atoms: C_15  and  C_16 
REMARK    6  A    between atoms: C_22  and  C_23 
ROOT
HETATM    1  C   UNL     1      41.466 -13.296   1.194  1.00  0.00     0.148 A 
HETATM    2  N   UNL     1      40.560 -13.842   0.349  1.00  0.00    -0.165 NA
HETATM    3  N   UNL     1      39.991 -12.767  -0.233  1.00  0.00    -0.240 N 
HETATM    4  C   UNL     1      40.408 -11.572   0.283  1.00  0.00     0.123 A 
HETATM    5  N   UNL     1      39.860 -10.400  -0.099  1.00  0.00    -0.364 N 
HETATM    6  C   UNL     1      38.916 -10.306  -1.212  1.00  0.00     0.143 C 
HETATM    7  C   UNL     1      38.135 -11.623  -1.365  1.00  0.00     0.068 C 
HETATM    8  C   UNL     1      39.001 -12.894  -1.286  1.00  0.00     0.221 C 
HETATM    9  C   UNL     1      41.394 -11.875   1.181  1.00  0.00     0.089 A 
HETATM   10  H   UNL     1      40.271  -9.515   0.193  1.00  0.00     0.162 HD
ENDROOT
BRANCH   1  11
HETATM   11  C   UNL     1      42.373 -14.112   2.022  1.00  0.00     0.276 C 
HETATM   12  N   UNL     1      41.905 -15.401   2.196  1.00  0.00    -0.322 N 
HETATM   13  H   UNL     1      41.007 -15.571   1.752  1.00  0.00     0.169 HD
HETATM   14  O   UNL     1      43.398 -13.635   2.497  1.00  0.00    -0.266 OA
BRANCH  12  15
HETATM   15  C   UNL     1      42.488 -16.438   2.945  1.00  0.00     0.035 A 
HETATM   16  C   UNL     1      42.551 -16.447   4.339  1.00  0.00     0.030 A 
HETATM   17  C   UNL     1      43.130 -17.526   5.019  1.00  0.00     0.012 A 
HETATM   18  C   UNL     1      43.656 -18.618   4.320  1.00  0.00    -0.030 A 
HETATM   19  C   UNL     1      43.590 -18.605   2.921  1.00  0.00     0.012 A 
HETATM   20  C   UNL     1      43.023 -17.521   2.240  1.00  0.00     0.030 A 
BRANCH  18  21
HETATM   21  C   UNL     1      44.228 -19.797   5.080  1.00  0.00     0.147 C 
HETATM   22  C   UNL     1      44.041 -21.137   4.381  1.00  0.00     0.044 C 
BRANCH  21  23
HETATM   23  O   UNL     1      43.623 -19.866   6.369  1.00  0.00    -0.391 OA
HETATM   24  H   UNL     1      42.710 -19.542   6.278  1.00  0.00     0.210 HD
ENDBRANCH  21  23
ENDBRANCH  18  21
ENDBRANCH  12  15
ENDBRANCH   1  11
BRANCH   8  25
HETATM   25  C   UNL     1      39.682 -13.256  -2.587  1.00  0.00     0.409 C 
HETATM   26  F   UNL     1      40.944 -12.798  -2.687  1.00  0.00    -0.169 F 
HETATM   27  F   UNL     1      39.724 -14.597  -2.774  1.00  0.00    -0.169 F 
HETATM   28  F   UNL     1      38.986 -12.752  -3.638  1.00  0.00    -0.169 F 
ENDBRANCH   8  25
BRANCH   6  29
HETATM   29  C   UNL     1      39.510  -9.812  -2.492  1.00  0.00     0.075 A 
HETATM   30  O   UNL     1      38.635  -9.557  -3.508  1.00  0.00    -0.325 OA
HETATM   31  C   UNL     1      39.364  -9.084  -4.551  1.00  0.00     0.142 A 
HETATM   32  C   UNL     1      40.697  -9.029  -4.222  1.00  0.00     0.027 A 
HETATM   33  C   UNL     1      40.793  -9.493  -2.889  1.00  0.00     0.037 A 
ENDBRANCH   6  29
TORSDOF 6
ENDMDL
MODEL 5
REMARK VINA RESULT:      -8.1      7.927      9.802
REMARK  6 active torsions:
REMARK  status: ('A' for Active; 'I' for Inactive)
REMARK    1  A    between atoms: C_2  and  O_3 
REMARK    2  A    between atoms: C_2  and  C_4 
REMARK    3  A    between atoms: C_7  and  N_8 
REMARK       I    between atoms: N_8  and  C_9 
REMARK    4  A    between atoms: C_9  and  C_10 
REMARK    5  A    between atoms: C_15  and  C_16 
REMARK    6  A    between atoms: C_22  and  C_23 
ROOT
HETATM    1  C   UNL     1      43.469 -11.072   6.975  1.00  0.00     0.148 A 
HETATM    2  N   UNL     1      42.182 -11.149   6.560  1.00  0.00    -0.165 NA
HETATM    3  N   UNL     1      42.289 -11.607   5.296  1.00  0.00    -0.240 N 
HETATM    4  C   UNL     1      43.579 -11.713   4.853  1.00  0.00     0.123 A 
HETATM    5  N   UNL     1      43.869 -12.044   3.578  1.00  0.00    -0.364 N 
HETATM    6  C   UNL     1      42.844 -12.484   2.633  1.00  0.00     0.143 C 
HETATM    7  C   UNL     1      41.482 -11.862   2.990  1.00  0.00     0.068 C 
HETATM    8  C   UNL     1      41.126 -11.917   4.487  1.00  0.00     0.221 C 
HETATM    9  C   UNL     1      44.370 -11.415   5.928  1.00  0.00     0.089 A 
HETATM   10  H   UNL     1      44.828 -12.249   3.301  1.00  0.00     0.162 HD
ENDROOT
BRANCH   1  11
HETATM   11  C   UNL     1      43.840 -10.657   8.340  1.00  0.00     0.276 C 
HETATM   12  N   UNL     1      42.814  -9.990   8.981  1.00  0.00    -0.322 N 
HETATM   13  H   UNL     1      41.984  -9.871   8.407  1.00  0.00     0.169 HD
HETATM   14  O   UNL     1      44.960 -10.883   8.787  1.00  0.00    -0.266 OA
BRANCH  12  15
HETATM   15  C   UNL     1      42.821  -9.429  10.270  1.00  0.00     0.035 A 
HETATM   16  C   UNL     1      42.794 -10.183  11.444  1.00  0.00     0.030 A 
HETATM   17  C   UNL     1      42.822  -9.556  12.696  1.00  0.00     0.012 A 
HETATM   18  C   UNL     1      42.879  -8.161  12.800  1.00  0.00    -0.030 A 
HETATM   19  C   UNL     1      42.907  -7.408  11.619  1.00  0.00     0.012 A 
HETATM   20  C   UNL     1      42.866  -8.035  10.367  1.00  0.00     0.030 A 
BRANCH  18  21
HETATM   21  C   UNL     1      42.964  -7.508  14.163  1.00  0.00     0.147 C 
HETATM   22  C   UNL     1      41.866  -7.935  15.127  1.00  0.00     0.044 C 
BRANCH  21  23
HETATM   23  O   UNL     1      42.914  -6.091  14.012  1.00  0.00    -0.391 OA
HETATM   24  H   UNL     1      43.203  -5.886  13.105  1.00  0.00     0.210 HD
ENDBRANCH  21  23
ENDBRANCH  18  21
ENDBRANCH  12  15
ENDBRANCH   1  11
BRANCH   8  25
HETATM   25  C   UNL     1      40.533 -13.236   4.930  1.00  0.00     0.409 C 
HETATM   26  F   UNL     1      41.431 -14.086   5.462  1.00  0.00    -0.169 F 
HETATM   27  F   UNL     1      39.551 -13.062   5.846  1.00  0.00    -0.169 F 
HETATM   28  F   UNL     1      39.955 -13.869   3.876  1.00  0.00    -0.169 F 
ENDBRANCH   8  25
BRANCH   6  29
HETATM   29  C   UNL     1      42.787 -13.964   2.422  1.00  0.00     0.075 A 
HETATM   30  O   UNL     1      43.401 -14.735   3.366  1.00  0.00    -0.325 OA
HETATM   31  C   UNL     1      43.199 -16.031   3.013  1.00  0.00     0.142 A 
HETATM   32  C   UNL     1      42.461 -16.106   1.856  1.00  0.00     0.027 A 
HETATM   33  C   UNL     1      42.188 -14.771   1.476  1.00  0.00     0.037 A 
ENDBRANCH   6  29
TORSDOF 6
ENDMDL
MODEL 6
REMARK VINA RESULT:      -8.0     16.452     18.676
REMARK  6 active torsions:
REMARK  status: ('A' for Active; 'I' for Inactive)
REMARK    1  A    between atoms: C_2  and  O_3 
REMARK    2  A    between atoms: C_2  and  C_4 
REMARK    3  A    between atoms: C_7  and  N_8 
REMARK       I    between atoms: N_8  and  C_9 
REMARK    4  A    between atoms: C_9  and  C_10 
REMARK    5  A    between atoms: C_15  and  C_16 
REMARK    6  A    between atoms: C_22  and  C_23 
ROOT
HETATM    1  C   UNL     1      48.831 -29.799   0.332  1.00  0.00     0.148 A 
HETATM    2  N   UNL     1      47.551 -29.786   0.771  1.00  0.00    -0.165 NA
HETATM    3  N   UNL     1      46.867 -29.288  -0.278  1.00  0.00    -0.240 N 
HETATM    4  C   UNL     1      47.662 -28.878  -1.313  1.00  0.00     0.123 A 
HETATM    5  N   UNL     1      47.157 -28.250  -2.394  1.00  0.00    -0.364 N 
HETATM    6  C   UNL     1      45.718 -28.121  -2.621  1.00  0.00     0.143 C 
HETATM    7  C   UNL     1      44.963 -28.102  -1.280  1.00  0.00     0.068 C 
HETATM    8  C   UNL     1      45.421 -29.172  -0.272  1.00  0.00     0.221 C 
HETATM    9  C   UNL     1      48.937 -29.233  -0.968  1.00  0.00     0.089 A 
HETATM   10  H   UNL     1      47.739 -28.073  -3.211  1.00  0.00     0.162 HD
ENDROOT
BRANCH   1  11
HETATM   11  C   UNL     1      49.945 -30.321   1.146  1.00  0.00     0.276 C 
HETATM   12  N   UNL     1      49.516 -30.831   2.356  1.00  0.00    -0.322 N 
HETATM   13  H   UNL     1      48.514 -30.743   2.502  1.00  0.00     0.169 HD
HETATM   14  O   UNL     1      51.104 -30.255   0.748  1.00  0.00    -0.266 OA
BRANCH  12  15
HETATM   15  C   UNL     1      50.296 -31.380   3.389  1.00  0.00     0.035 A 
HETATM   16  C   UNL     1      50.657 -32.726   3.455  1.00  0.00     0.030 A 
HETATM   17  C   UNL     1      51.453 -33.199   4.505  1.00  0.00     0.012 A 
HETATM   18  C   UNL     1      51.907 -32.337   5.509  1.00  0.00    -0.030 A 
HETATM   19  C   UNL     1      51.543 -30.986   5.438  1.00  0.00     0.012 A 
HETATM   20  C   UNL     1      50.735 -30.515   4.395  1.00  0.00     0.030 A 
BRANCH  18  21
HETATM   21  C   UNL     1      52.812 -32.861   6.604  1.00  0.00     0.147 C 
HETATM   22  C   UNL     1      53.291 -31.794   7.579  1.00  0.00     0.044 C 
BRANCH  21  23
HETATM   23  O   UNL     1      53.951 -33.486   6.016  1.00  0.00    -0.391 OA
HETATM   24  H   UNL     1      54.198 -32.961   5.234  1.00  0.00     0.210 HD
ENDBRANCH  21  23
ENDBRANCH  18  21
ENDBRANCH  12  15
ENDBRANCH   1  11
BRANCH   8  25
HETATM   25  C   UNL     1      44.799 -30.533  -0.495  1.00  0.00     0.409 C 
HETATM   26  F   UNL     1      43.594 -30.489  -1.095  1.00  0.00    -0.169 F 
HETATM   27  F   UNL     1      45.594 -31.330  -1.247  1.00  0.00    -0.169 F 
HETATM   28  F   UNL     1      44.636 -31.176   0.690  1.00  0.00    -0.169 F 
ENDBRANCH   8  25
BRANCH   6  29
HETATM   29  C   UNL     1      45.155 -29.092  -3.609  1.00  0.00     0.075 A 
HETATM   30  O   UNL     1      46.016 -30.033  -4.093  1.00  0.00    -0.325 OA
HETATM   31  C   UNL     1      45.305 -30.830  -4.931  1.00  0.00     0.142 A 
HETATM   32  C   UNL     1      43.995 -30.418  -4.993  1.00  0.00     0.027 A 
HETATM   33  C   UNL     1      43.894 -29.299  -4.134  1.00  0.00     0.037 A 
ENDBRANCH   6  29
TORSDOF 6
ENDMDL
MODEL 7
REMARK VINA RESULT:      -7.6      2.828      9.408
REMARK  6 active torsions:
REMARK  status: ('A' for Active; 'I' for Inactive)
REMARK    1  A    between atoms: C_2  and  O_3 
REMARK    2  A    between atoms: C_2  and  C_4 
REMARK    3  A    between atoms: C_7  and  N_8 
REMARK       I    between atoms: N_8  and  C_9 
REMARK    4  A    between atoms: C_9  and  C_10 
REMARK    5  A    between atoms: C_15  and  C_16 
REMARK    6  A    between atoms: C_22  and  C_23 
ROOT
HETATM    1  C   UNL     1      40.279 -12.259   1.145  1.00  0.00     0.148 A 
HETATM    2  N   UNL     1      40.784 -12.088   2.389  1.00  0.00    -0.165 NA
HETATM    3  N   UNL     1      40.831 -13.343   2.881  1.00  0.00    -0.240 N 
HETATM    4  C   UNL     1      40.274 -14.281   2.057  1.00  0.00     0.123 A 
HETATM    5  N   UNL     1      40.130 -15.568   2.437  1.00  0.00    -0.364 N 
HETATM    6  C   UNL     1      40.714 -16.087   3.673  1.00  0.00     0.143 C 
HETATM    7  C   UNL     1      40.829 -14.967   4.723  1.00  0.00     0.068 C 
HETATM    8  C   UNL     1      41.393 -13.639   4.185  1.00  0.00     0.221 C 
HETATM    9  C   UNL     1      39.944 -13.621   0.906  1.00  0.00     0.089 A 
HETATM   10  H   UNL     1      39.839 -16.277   1.766  1.00  0.00     0.162 HD
ENDROOT
BRANCH   1  11
HETATM   11  C   UNL     1      40.093 -11.140   0.202  1.00  0.00     0.276 C 
HETATM   12  N   UNL     1      41.205 -10.935  -0.591  1.00  0.00    -0.322 N 
HETATM   13  H   UNL     1      41.975 -11.564  -0.384  1.00  0.00     0.169 HD
HETATM   14  O   UNL     1      39.055 -10.487   0.192  1.00  0.00    -0.266 OA
BRANCH  12  15
HETATM   15  C   UNL     1      41.396  -9.946  -1.573  1.00  0.00     0.035 A 
HETATM   16  C   UNL     1      42.197  -8.818  -1.391  1.00  0.00     0.030 A 
HETATM   17  C   UNL     1      42.357  -7.884  -2.422  1.00  0.00     0.012 A 
HETATM   18  C   UNL     1      41.721  -8.059  -3.656  1.00  0.00    -0.030 A 
HETATM   19  C   UNL     1      40.919  -9.193  -3.835  1.00  0.00     0.012 A 
HETATM   20  C   UNL     1      40.749 -10.121  -2.799  1.00  0.00     0.030 A 
BRANCH  18  21
HETATM   21  C   UNL     1      41.953  -7.064  -4.774  1.00  0.00     0.147 C 
HETATM   22  C   UNL     1      40.987  -7.203  -5.942  1.00  0.00     0.044 C 
BRANCH  21  23
HETATM   23  O   UNL     1      43.285  -7.206  -5.263  1.00  0.00    -0.391 OA
HETATM   24  H   UNL     1      43.226  -7.581  -6.159  1.00  0.00     0.210 HD
ENDBRANCH  21  23
ENDBRANCH  18  21
ENDBRANCH  12  15
ENDBRANCH   1  11
BRANCH   8  25
HETATM   25  C   UNL     1      42.903 -13.597   4.112  1.00  0.00     0.409 C 
HETATM   26  F   UNL     1      43.406 -14.057   2.950  1.00  0.00    -0.169 F 
HETATM   27  F   UNL     1      43.378 -12.341   4.287  1.00  0.00    -0.169 F 
HETATM   28  F   UNL     1      43.443 -14.345   5.108  1.00  0.00    -0.169 F 
ENDBRANCH   8  25
BRANCH   6  29
HETATM   29  C   UNL     1      41.979 -16.861   3.485  1.00  0.00     0.075 A 
HETATM   30  O   UNL     1      42.662 -17.192   4.620  1.00  0.00    -0.325 OA
HETATM   31  C   UNL     1      43.742 -17.919   4.237  1.00  0.00     0.142 A 
HETATM   32  C   UNL     1      43.766 -18.064   2.870  1.00  0.00     0.027 A 
HETATM   33  C   UNL     1      42.624 -17.387   2.383  1.00  0.00     0.037 A 
ENDBRANCH   6  29
TORSDOF 6
ENDMDL
MODEL 8
REMARK VINA RESULT:      -7.4     14.517     15.936
REMARK  6 active torsions:
REMARK  status: ('A' for Active; 'I' for Inactive)
REMARK    1  A    between atoms: C_2  and  O_3 
REMARK    2  A    between atoms: C_2  and  C_4 
REMARK    3  A    between atoms: C_7  and  N_8 
REMARK       I    between atoms: N_8  and  C_9 
REMARK    4  A    between atoms: C_9  and  C_10 
REMARK    5  A    between atoms: C_15  and  C_16 
REMARK    6  A    between atoms: C_22  and  C_23 
ROOT
HETATM    1  C   UNL     1      41.880  -7.987  13.917  1.00  0.00     0.148 A 
HETATM    2  N   UNL     1      40.643  -7.975  14.467  1.00  0.00    -0.165 NA
HETATM    3  N   UNL     1      40.766  -7.108  15.492  1.00  0.00    -0.240 N 
HETATM    4  C   UNL     1      42.044  -6.661  15.688  1.00  0.00     0.123 A 
HETATM    5  N   UNL     1      42.372  -5.880  16.737  1.00  0.00    -0.364 N 
HETATM    6  C   UNL     1      41.365  -5.311  17.633  1.00  0.00     0.143 C 
HETATM    7  C   UNL     1      40.124  -6.220  17.690  1.00  0.00     0.068 C 
HETATM    8  C   UNL     1      39.638  -6.728  16.320  1.00  0.00     0.221 C 
HETATM    9  C   UNL     1      42.784  -7.178  14.660  1.00  0.00     0.089 A 
HETATM   10  H   UNL     1      43.293  -5.448  16.795  1.00  0.00     0.162 HD
ENDROOT
BRANCH   1  11
HETATM   11  C   UNL     1      42.208  -8.775  12.714  1.00  0.00     0.276 C 
HETATM   12  N   UNL     1      43.379  -8.353  12.115  1.00  0.00    -0.322 N 
HETATM   13  H   UNL     1      43.811  -7.559  12.580  1.00  0.00     0.169 HD
HETATM   14  O   UNL     1      41.468  -9.672  12.325  1.00  0.00    -0.266 OA
BRANCH  12  15
HETATM   15  C   UNL     1      43.978  -8.849  10.944  1.00  0.00     0.035 A 
HETATM   16  C   UNL     1      44.846  -9.941  10.920  1.00  0.00     0.030 A 
HETATM   17  C   UNL     1      45.392 -10.393   9.712  1.00  0.00     0.012 A 
HETATM   18  C   UNL     1      45.080  -9.762   8.502  1.00  0.00    -0.030 A 
HETATM   19  C   UNL     1      44.208  -8.665   8.531  1.00  0.00     0.012 A 
HETATM   20  C   UNL     1      43.673  -8.207   9.741  1.00  0.00     0.030 A 
BRANCH  18  21
HETATM   21  C   UNL     1      45.638 -10.301   7.202  1.00  0.00     0.147 C 
HETATM   22  C   UNL     1      45.044 -11.637   6.777  1.00  0.00     0.044 C 
BRANCH  21  23
HETATM   23  O   UNL     1      47.052 -10.447   7.320  1.00  0.00    -0.391 OA
HETATM   24  H   UNL     1      47.456  -9.951   6.587  1.00  0.00     0.210 HD
ENDBRANCH  21  23
ENDBRANCH  18  21
ENDBRANCH  12  15
ENDBRANCH   1  11
BRANCH   8  25
HETATM   25  C   UNL     1      38.766  -5.743  15.574  1.00  0.00     0.409 C 
HETATM   26  F   UNL     1      38.057  -4.927  16.377  1.00  0.00    -0.169 F 
HETATM   27  F   UNL     1      39.493  -4.958  14.744  1.00  0.00    -0.169 F 
HETATM   28  F   UNL     1      37.879  -6.403  14.786  1.00  0.00    -0.169 F 
ENDBRANCH   8  25
BRANCH   6  29
HETATM   29  C   UNL     1      41.042  -3.875  17.372  1.00  0.00     0.075 A 
HETATM   30  O   UNL     1      41.587  -3.325  16.249  1.00  0.00    -0.325 OA
HETATM   31  C   UNL     1      41.141  -2.044  16.176  1.00  0.00     0.142 A 
HETATM   32  C   UNL     1      40.313  -1.761  17.237  1.00  0.00     0.027 A 
HETATM   33  C   UNL     1      40.242  -2.945  18.007  1.00  0.00     0.037 A 
ENDBRANCH   6  29
TORSDOF 6
ENDMDL
MODEL 9
REMARK VINA RESULT:      -7.4     16.226     18.161
REMARK  6 active torsions:
REMARK  status: ('A' for Active; 'I' for Inactive)
REMARK    1  A    between atoms: C_2  and  O_3 
REMARK    2  A    between atoms: C_2  and  C_4 
REMARK    3  A    between atoms: C_7  and  N_8 
REMARK       I    between atoms: N_8  and  C_9 
REMARK    4  A    between atoms: C_9  and  C_10 
REMARK    5  A    between atoms: C_15  and  C_16 
REMARK    6  A    between atoms: C_22  and  C_23 
ROOT
HETATM    1  C   UNL     1      43.809 -29.642   1.340  1.00  0.00     0.148 A 
HETATM    2  N   UNL     1      44.019 -28.904   0.225  1.00  0.00    -0.165 NA
HETATM    3  N   UNL     1      45.362 -28.900   0.103  1.00  0.00    -0.240 N 
HETATM    4  C   UNL     1      46.014 -29.498   1.145  1.00  0.00     0.123 A 
HETATM    5  N   UNL     1      47.359 -29.485   1.246  1.00  0.00    -0.364 N 
HETATM    6  C   UNL     1      48.218 -28.991   0.170  1.00  0.00     0.143 C 
HETATM    7  C   UNL     1      47.483 -27.919  -0.654  1.00  0.00     0.068 C 
HETATM    8  C   UNL     1      46.032 -28.278  -1.024  1.00  0.00     0.221 C 
HETATM    9  C   UNL     1      45.038 -30.026   1.944  1.00  0.00     0.089 A 
HETATM   10  H   UNL     1      47.833 -30.046   1.952  1.00  0.00     0.162 HD
ENDROOT
BRANCH   1  11
HETATM   11  C   UNL     1      42.459 -29.959   1.841  1.00  0.00     0.276 C 
HETATM   12  N   UNL     1      42.464 -31.017   2.729  1.00  0.00    -0.322 N 
HETATM   13  H   UNL     1      43.386 -31.421   2.875  1.00  0.00     0.169 HD
HETATM   14  O   UNL     1      41.477 -29.333   1.452  1.00  0.00    -0.266 OA
BRANCH  12  15
HETATM   15  C   UNL     1      41.366 -31.608   3.377  1.00  0.00     0.035 A 
HETATM   16  C   UNL     1      40.555 -32.583   2.794  1.00  0.00     0.030 A 
HETATM   17  C   UNL     1      39.488 -33.143   3.508  1.00  0.00     0.012 A 
HETATM   18  C   UNL     1      39.210 -32.740   4.819  1.00  0.00    -0.030 A 
HETATM   19  C   UNL     1      40.027 -31.761   5.400  1.00  0.00     0.012 A 
HETATM   20  C   UNL     1      41.086 -31.193   4.682  1.00  0.00     0.030 A 
BRANCH  18  21
HETATM   21  C   UNL     1      38.085 -33.398   5.589  1.00  0.00     0.147 C 
HETATM   22  C   UNL     1      36.740 -33.367   4.876  1.00  0.00     0.044 C 
BRANCH  21  23
HETATM   23  O   UNL     1      37.945 -32.761   6.857  1.00  0.00    -0.391 OA
HETATM   24  H   UNL     1      38.037 -31.803   6.712  1.00  0.00     0.210 HD
ENDBRANCH  21  23
ENDBRANCH  18  21
ENDBRANCH  12  15
ENDBRANCH   1  11
BRANCH   8  25
HETATM   25  C   UNL     1      45.909 -29.164  -2.244  1.00  0.00     0.409 C 
HETATM   26  F   UNL     1      45.858 -30.479  -1.958  1.00  0.00    -0.169 F 
HETATM   27  F   UNL     1      44.806 -28.867  -2.970  1.00  0.00    -0.169 F 
HETATM   28  F   UNL     1      46.968 -28.973  -3.072  1.00  0.00    -0.169 F 
ENDBRANCH   8  25
BRANCH   6  29
HETATM   29  C   UNL     1      48.844 -30.061  -0.666  1.00  0.00     0.075 A 
HETATM   30  O   UNL     1      48.428 -31.339  -0.426  1.00  0.00    -0.325 OA
HETATM   31  C   UNL     1      49.078 -32.141  -1.308  1.00  0.00     0.142 A 
HETATM   32  C   UNL     1      49.906 -31.398  -2.116  1.00  0.00     0.027 A 
HETATM   33  C   UNL     1      49.751 -30.053  -1.707  1.00  0.00     0.037 A 
ENDBRANCH   6  29
TORSDOF 6
ENDMDL
MODEL 10
REMARK VINA RESULT:      -7.4      5.500      6.504
REMARK  6 active torsions:
REMARK  status: ('A' for Active; 'I' for Inactive)
REMARK    1  A    between atoms: C_2  and  O_3 
REMARK    2  A    between atoms: C_2  and  C_4 
REMARK    3  A    between atoms: C_7  and  N_8 
REMARK       I    between atoms: N_8  and  C_9 
REMARK    4  A    between atoms: C_9  and  C_10 
REMARK    5  A    between atoms: C_15  and  C_16 
REMARK    6  A    between atoms: C_22  and  C_23 
ROOT
HETATM    1  C   UNL     1      42.086 -12.768   5.136  1.00  0.00     0.148 A 
HETATM    2  N   UNL     1      40.759 -12.499   5.154  1.00  0.00    -0.165 NA
HETATM    3  N   UNL     1      40.666 -11.448   5.994  1.00  0.00    -0.240 N 
HETATM    4  C   UNL     1      41.849 -11.115   6.596  1.00  0.00     0.123 A 
HETATM    5  N   UNL     1      41.919 -10.165   7.551  1.00  0.00    -0.364 N 
HETATM    6  C   UNL     1      40.783  -9.306   7.883  1.00  0.00     0.143 C 
HETATM    7  C   UNL     1      39.458 -10.036   7.600  1.00  0.00     0.068 C 
HETATM    8  C   UNL     1      39.409 -10.773   6.249  1.00  0.00     0.221 C 
HETATM    9  C   UNL     1      42.797 -11.923   6.031  1.00  0.00     0.089 A 
HETATM   10  H   UNL     1      42.821  -9.836   7.891  1.00  0.00     0.162 HD
ENDROOT
BRANCH   1  11
HETATM   11  C   UNL     1      42.669 -13.831   4.296  1.00  0.00     0.276 C 
HETATM   12  N   UNL     1      42.528 -15.083   4.864  1.00  0.00    -0.322 N 
HETATM   13  H   UNL     1      42.072 -15.069   5.772  1.00  0.00     0.169 HD
HETATM   14  O   UNL     1      43.227 -13.565   3.237  1.00  0.00    -0.266 OA
BRANCH  12  15
HETATM   15  C   UNL     1      42.986 -16.315   4.364  1.00  0.00     0.035 A 
HETATM   16  C   UNL     1      43.954 -17.096   4.998  1.00  0.00     0.030 A 
HETATM   17  C   UNL     1      44.347 -18.324   4.452  1.00  0.00     0.012 A 
HETATM   18  C   UNL     1      43.781 -18.798   3.263  1.00  0.00    -0.030 A 
HETATM   19  C   UNL     1      42.809 -18.010   2.631  1.00  0.00     0.012 A 
HETATM   20  C   UNL     1      42.425 -16.776   3.170  1.00  0.00     0.030 A 
BRANCH  18  21
HETATM   21  C   UNL     1      44.183 -20.153   2.722  1.00  0.00     0.147 C 
HETATM   22  C   UNL     1      43.435 -20.567   1.462  1.00  0.00     0.044 C 
BRANCH  21  23
HETATM   23  O   UNL     1      43.971 -21.144   3.725  1.00  0.00    -0.391 OA
HETATM   24  H   UNL     1      43.111 -20.957   4.140  1.00  0.00     0.210 HD
ENDBRANCH  21  23
ENDBRANCH  18  21
ENDBRANCH  12  15
ENDBRANCH   1  11
BRANCH   8  25
HETATM   25  C   UNL     1      39.060  -9.883   5.076  1.00  0.00     0.409 C 
HETATM   26  F   UNL     1      38.376 -10.511   4.101  1.00  0.00    -0.169 F 
HETATM   27  F   UNL     1      38.323  -8.814   5.461  1.00  0.00    -0.169 F 
HETATM   28  F   UNL     1      40.189  -9.379   4.516  1.00  0.00    -0.169 F 
ENDBRANCH   8  25
BRANCH   6  29
HETATM   29  C   UNL     1      40.847  -7.934   7.292  1.00  0.00     0.075 A 
HETATM   30  O   UNL     1      39.814  -7.095   7.595  1.00  0.00    -0.325 OA
HETATM   31  C   UNL     1      40.083  -5.903   7.002  1.00  0.00     0.142 A 
HETATM   32  C   UNL     1      41.276  -5.961   6.322  1.00  0.00     0.027 A 
HETATM   33  C   UNL     1      41.775  -7.271   6.514  1.00  0.00     0.037 A 
ENDBRANCH   6  29
TORSDOF 6
ENDMDL
