MODEL 1
REMARK VINA RESULT:      -8.9      0.000      0.000
REMARK  8 active torsions:
REMARK  status: ('A' for Active; 'I' for Inactive)
REMARK    1  A    between atoms: C_2  and  N_3 
REMARK    2  A    between atoms: C_11  and  C_12 
REMARK    3  A    between atoms: C_14  and  O_15 
REMARK    4  A    between atoms: O_15  and  C_16 
REMARK    5  A    between atoms: C_18  and  O_19 
REMARK    6  A    between atoms: O_19  and  C_20 
REMARK    7  A    between atoms: C_20  and  C_21 
REMARK    8  A    between atoms: C_31  and  O_32 
ROOT
HETATM    1  N   UNL     1      40.070  -8.673  12.949  1.00  0.00    -0.067 N 
HETATM    2  H   UNL     1      39.144  -8.678  13.393  1.00  0.00     0.280 HD
HETATM    3  C   UNL     1      39.810  -8.422  11.460  1.00  0.00     0.281 C 
HETATM    4  C   UNL     1      40.999  -8.801  10.646  1.00  0.00     0.018 A 
HETATM    5  C   UNL     1      42.028  -9.626  11.072  1.00  0.00    -0.024 A 
HETATM    6  C   UNL     1      43.017  -9.778  10.050  1.00  0.00     0.057 A 
HETATM    7  C   UNL     1      42.674  -9.096   8.910  1.00  0.00     0.087 A 
HETATM    8  N   UNL     1      43.456  -9.107   7.815  1.00  0.00    -0.357 N 
HETATM    9  C   UNL     1      44.395 -10.223   7.697  1.00  0.00     0.243 C 
HETATM   10  N   UNL     1      44.975 -10.702   8.974  1.00  0.00    -0.235 NA
HETATM   11  C   UNL     1      44.270 -10.487  10.022  1.00  0.00     0.173 C 
HETATM   12  S   UNL     1      41.209  -8.255   9.048  1.00  0.00    -0.074 SA
HETATM   13  C   UNL     1      42.040 -10.213  12.452  1.00  0.00     0.068 C 
HETATM   14  C   UNL     1      40.671 -10.066  13.144  1.00  0.00     0.240 C 
HETATM   15  H   UNL     1      43.087  -8.755   6.938  1.00  0.00     0.162 HD
ENDROOT
BRANCH   9  16
HETATM   16  C   UNL     1      43.740 -11.351   6.888  1.00  0.00    -0.012 A 
HETATM   17  C   UNL     1      42.737 -11.095   5.931  1.00  0.00     0.050 A 
HETATM   18  C   UNL     1      42.195 -12.124   5.154  1.00  0.00     0.103 A 
HETATM   19  C   UNL     1      42.676 -13.428   5.323  1.00  0.00     0.112 A 
HETATM   20  C   UNL     1      43.646 -13.714   6.280  1.00  0.00     0.041 A 
HETATM   21  C   UNL     1      44.154 -12.684   7.074  1.00  0.00     0.014 A 
BRANCH  18  22
HETATM   22  O   UNL     1      41.243 -11.937   4.185  1.00  0.00    -0.349 OA
BRANCH  22  23
HETATM   23  C   UNL     1      39.986 -11.425   4.631  1.00  0.00     0.171 C 
HETATM   24  C   UNL     1      39.347 -12.469   5.531  1.00  0.00     0.034 C 
ENDBRANCH  22  23
ENDBRANCH  18  22
BRANCH  19  25
HETATM   25  O   UNL     1      42.197 -14.400   4.412  1.00  0.00    -0.272 OA
BRANCH  25  26
HETATM   26  C   UNL     1      41.681 -15.624   4.803  1.00  0.00     0.298 C 
HETATM   27  O   UNL     1      40.762 -15.826   5.580  1.00  0.00    -0.259 OA
BRANCH  26  28
HETATM   28  C   UNL     1      42.478 -16.707   4.166  1.00  0.00     0.039 A 
HETATM   29  C   UNL     1      43.455 -17.350   4.937  1.00  0.00     0.017 A 
HETATM   30  C   UNL     1      44.246 -18.354   4.375  1.00  0.00     0.001 A 
HETATM   31  C   UNL     1      44.060 -18.726   3.044  1.00  0.00     0.000 A 
HETATM   32  C   UNL     1      43.081 -18.099   2.273  1.00  0.00     0.001 A 
HETATM   33  C   UNL     1      42.291 -17.091   2.830  1.00  0.00     0.017 A 
ENDBRANCH  26  28
ENDBRANCH  25  26
ENDBRANCH  19  25
ENDBRANCH   9  16
BRANCH  11  34
HETATM   34  O   UNL     1      44.721 -10.951  11.201  1.00  0.00    -0.344 OA
HETATM   35  H   UNL     1      45.284 -10.251  11.576  1.00  0.00     0.219 HD
ENDBRANCH  11  34
BRANCH   1  36
HETATM   36  C   UNL     1      40.846  -7.533  13.576  1.00  0.00     0.231 C 
HETATM   37  C   UNL     1      41.273  -7.879  14.991  1.00  0.00     0.034 C 
ENDBRANCH   1  36
TORSDOF 8
ENDMDL
MODEL 2
REMARK VINA RESULT:      -8.7      3.499      9.224
REMARK  8 active torsions:
REMARK  status: ('A' for Active; 'I' for Inactive)
REMARK    1  A    between atoms: C_2  and  N_3 
REMARK    2  A    between atoms: C_11  and  C_12 
REMARK    3  A    between atoms: C_14  and  O_15 
REMARK    4  A    between atoms: O_15  and  C_16 
REMARK    5  A    between atoms: C_18  and  O_19 
REMARK    6  A    between atoms: O_19  and  C_20 
REMARK    7  A    between atoms: C_20  and  C_21 
REMARK    8  A    between atoms: C_31  and  O_32 
ROOT
HETATM    1  N   UNL     1      43.754 -17.733   2.658  1.00  0.00    -0.067 N 
HETATM    2  H   UNL     1      44.628 -17.977   2.177  1.00  0.00     0.280 HD
HETATM    3  C   UNL     1      43.335 -16.375   2.085  1.00  0.00     0.281 C 
HETATM    4  C   UNL     1      42.337 -15.714   2.972  1.00  0.00     0.018 A 
HETATM    5  C   UNL     1      42.107 -16.041   4.298  1.00  0.00    -0.024 A 
HETATM    6  C   UNL     1      41.078 -15.221   4.857  1.00  0.00     0.057 A 
HETATM    7  C   UNL     1      40.610 -14.308   3.945  1.00  0.00     0.087 A 
HETATM    8  N   UNL     1      39.643 -13.424   4.257  1.00  0.00    -0.357 N 
HETATM    9  C   UNL     1      39.460 -13.137   5.681  1.00  0.00     0.243 C 
HETATM   10  N   UNL     1      39.679 -14.284   6.593  1.00  0.00    -0.235 NA
HETATM   11  C   UNL     1      40.462 -15.201   6.159  1.00  0.00     0.173 C 
HETATM   12  S   UNL     1      41.358 -14.432   2.429  1.00  0.00    -0.074 SA
HETATM   13  C   UNL     1      42.863 -17.147   4.974  1.00  0.00     0.068 C 
HETATM   14  C   UNL     1      44.084 -17.590   4.145  1.00  0.00     0.240 C 
HETATM   15  H   UNL     1      39.458 -12.650   3.629  1.00  0.00     0.162 HD
ENDROOT
BRANCH   9  16
HETATM   16  C   UNL     1      40.302 -11.912   6.061  1.00  0.00    -0.012 A 
HETATM   17  C   UNL     1      41.703 -11.892   5.903  1.00  0.00     0.050 A 
HETATM   18  C   UNL     1      42.451 -10.747   6.192  1.00  0.00     0.103 A 
HETATM   19  C   UNL     1      41.786  -9.593   6.627  1.00  0.00     0.112 A 
HETATM   20  C   UNL     1      40.406  -9.593   6.818  1.00  0.00     0.041 A 
HETATM   21  C   UNL     1      39.675 -10.754   6.560  1.00  0.00     0.014 A 
BRANCH  18  22
HETATM   22  O   UNL     1      43.809 -10.653   6.029  1.00  0.00    -0.349 OA
BRANCH  22  23
HETATM   23  C   UNL     1      44.576 -11.758   6.508  1.00  0.00     0.171 C 
HETATM   24  C   UNL     1      46.028 -11.320   6.594  1.00  0.00     0.034 C 
ENDBRANCH  22  23
ENDBRANCH  18  22
BRANCH  19  25
HETATM   25  O   UNL     1      42.572  -8.425   6.764  1.00  0.00    -0.272 OA
BRANCH  25  26
HETATM   26  C   UNL     1      42.699  -7.723   7.950  1.00  0.00     0.298 C 
HETATM   27  O   UNL     1      42.247  -6.620   8.209  1.00  0.00    -0.259 OA
BRANCH  26  28
HETATM   28  C   UNL     1      43.554  -8.507   8.883  1.00  0.00     0.039 A 
HETATM   29  C   UNL     1      44.937  -8.522   8.657  1.00  0.00     0.017 A 
HETATM   30  C   UNL     1      45.777  -9.264   9.491  1.00  0.00     0.001 A 
HETATM   31  C   UNL     1      45.241  -9.986  10.556  1.00  0.00     0.000 A 
HETATM   32  C   UNL     1      43.867  -9.967  10.794  1.00  0.00     0.001 A 
HETATM   33  C   UNL     1      43.023  -9.230   9.961  1.00  0.00     0.017 A 
ENDBRANCH  26  28
ENDBRANCH  25  26
ENDBRANCH  19  25
ENDBRANCH   9  16
BRANCH  11  34
HETATM   34  O   UNL     1      40.742 -16.237   6.968  1.00  0.00    -0.344 OA
HETATM   35  H   UNL     1      40.897 -17.005   6.389  1.00  0.00     0.219 HD
ENDBRANCH  11  34
BRANCH   1  36
HETATM   36  C   UNL     1      42.751 -18.815   2.313  1.00  0.00     0.231 C 
HETATM   37  C   UNL     1      43.418 -20.176   2.249  1.00  0.00     0.034 C 
ENDBRANCH   1  36
TORSDOF 8
ENDMDL
MODEL 3
REMARK VINA RESULT:      -8.7      3.316      9.297
REMARK  8 active torsions:
REMARK  status: ('A' for Active; 'I' for Inactive)
REMARK    1  A    between atoms: C_2  and  N_3 
REMARK    2  A    between atoms: C_11  and  C_12 
REMARK    3  A    between atoms: C_14  and  O_15 
REMARK    4  A    between atoms: O_15  and  C_16 
REMARK    5  A    between atoms: C_18  and  O_19 
REMARK    6  A    between atoms: O_19  and  C_20 
REMARK    7  A    between atoms: C_20  and  C_21 
REMARK    8  A    between atoms: C_31  and  O_32 
ROOT
HETATM    1  N   UNL     1      43.746 -17.827   2.723  1.00  0.00    -0.067 N 
HETATM    2  H   UNL     1      44.617 -18.125   2.268  1.00  0.00     0.280 HD
HETATM    3  C   UNL     1      43.442 -16.436   2.158  1.00  0.00     0.281 C 
HETATM    4  C   UNL     1      42.462 -15.719   3.021  1.00  0.00     0.018 A 
HETATM    5  C   UNL     1      42.164 -16.047   4.334  1.00  0.00    -0.024 A 
HETATM    6  C   UNL     1      41.175 -15.164   4.870  1.00  0.00     0.057 A 
HETATM    7  C   UNL     1      40.804 -14.208   3.958  1.00  0.00     0.087 A 
HETATM    8  N   UNL     1      39.891 -13.264   4.251  1.00  0.00    -0.357 N 
HETATM    9  C   UNL     1      39.678 -12.984   5.672  1.00  0.00     0.243 C 
HETATM   10  N   UNL     1      39.785 -14.156   6.573  1.00  0.00    -0.235 NA
HETATM   11  C   UNL     1      40.518 -15.119   6.151  1.00  0.00     0.173 C 
HETATM   12  S   UNL     1      41.594 -14.364   2.467  1.00  0.00    -0.074 SA
HETATM   13  C   UNL     1      42.817 -17.212   5.017  1.00  0.00     0.068 C 
HETATM   14  C   UNL     1      44.033 -17.728   4.223  1.00  0.00     0.240 C 
HETATM   15  H   UNL     1      39.782 -12.470   3.630  1.00  0.00     0.162 HD
ENDROOT
BRANCH   9  16
HETATM   16  C   UNL     1      40.590 -11.826   6.100  1.00  0.00    -0.012 A 
HETATM   17  C   UNL     1      40.078 -10.657   6.699  1.00  0.00     0.050 A 
HETATM   18  C   UNL     1      40.926  -9.638   7.144  1.00  0.00     0.103 A 
HETATM   19  C   UNL     1      42.311  -9.797   7.005  1.00  0.00     0.112 A 
HETATM   20  C   UNL     1      42.842 -10.929   6.392  1.00  0.00     0.041 A 
HETATM   21  C   UNL     1      41.983 -11.923   5.920  1.00  0.00     0.014 A 
BRANCH  18  22
HETATM   22  O   UNL     1      40.495  -8.493   7.764  1.00  0.00    -0.349 OA
BRANCH  22  23
HETATM   23  C   UNL     1      39.445  -8.655   8.719  1.00  0.00     0.171 C 
HETATM   24  C   UNL     1      40.046  -9.251   9.980  1.00  0.00     0.034 C 
ENDBRANCH  22  23
ENDBRANCH  18  22
BRANCH  19  25
HETATM   25  O   UNL     1      43.123  -8.804   7.602  1.00  0.00    -0.272 OA
BRANCH  25  26
HETATM   26  C   UNL     1      44.235  -9.090   8.376  1.00  0.00     0.298 C 
HETATM   27  O   UNL     1      45.379  -9.269   7.991  1.00  0.00    -0.259 OA
BRANCH  26  28
HETATM   28  C   UNL     1      43.811  -9.219   9.796  1.00  0.00     0.039 A 
HETATM   29  C   UNL     1      43.476  -8.051  10.495  1.00  0.00     0.017 A 
HETATM   30  C   UNL     1      43.097  -8.120  11.837  1.00  0.00     0.001 A 
HETATM   31  C   UNL     1      43.043  -9.353  12.485  1.00  0.00     0.000 A 
HETATM   32  C   UNL     1      43.362 -10.522  11.793  1.00  0.00     0.001 A 
HETATM   33  C   UNL     1      43.746 -10.457  10.451  1.00  0.00     0.017 A 
ENDBRANCH  26  28
ENDBRANCH  25  26
ENDBRANCH  19  25
ENDBRANCH   9  16
BRANCH  11  34
HETATM   34  O   UNL     1      40.697 -16.184   6.952  1.00  0.00    -0.344 OA
HETATM   35  H   UNL     1      41.652 -16.239   7.128  1.00  0.00     0.219 HD
ENDBRANCH  11  34
BRANCH   1  36
HETATM   36  C   UNL     1      42.683 -18.831   2.327  1.00  0.00     0.231 C 
HETATM   37  C   UNL     1      43.292 -20.198   2.074  1.00  0.00     0.034 C 
ENDBRANCH   1  36
TORSDOF 8
ENDMDL
MODEL 4
REMARK VINA RESULT:      -8.4      6.000      9.119
REMARK  8 active torsions:
REMARK  status: ('A' for Active; 'I' for Inactive)
REMARK    1  A    between atoms: C_2  and  N_3 
REMARK    2  A    between atoms: C_11  and  C_12 
REMARK    3  A    between atoms: C_14  and  O_15 
REMARK    4  A    between atoms: O_15  and  C_16 
REMARK    5  A    between atoms: C_18  and  O_19 
REMARK    6  A    between atoms: O_19  and  C_20 
REMARK    7  A    between atoms: C_20  and  C_21 
REMARK    8  A    between atoms: C_31  and  O_32 
ROOT
HETATM    1  N   UNL     1      38.439 -10.983  -3.500  1.00  0.00    -0.067 N 
HETATM    2  H   UNL     1      38.575 -11.257  -4.480  1.00  0.00     0.280 HD
HETATM    3  C   UNL     1      39.847 -10.788  -2.928  1.00  0.00     0.281 C 
HETATM    4  C   UNL     1      39.818 -10.803  -1.439  1.00  0.00     0.018 A 
HETATM    5  C   UNL     1      38.788 -11.313  -0.665  1.00  0.00    -0.024 A 
HETATM    6  C   UNL     1      39.072 -11.162   0.728  1.00  0.00     0.057 A 
HETATM    7  C   UNL     1      40.299 -10.583   0.933  1.00  0.00     0.087 A 
HETATM    8  N   UNL     1      40.777 -10.353   2.170  1.00  0.00    -0.357 N 
HETATM    9  C   UNL     1      40.203 -11.159   3.249  1.00  0.00     0.243 C 
HETATM   10  N   UNL     1      38.764 -11.479   3.106  1.00  0.00    -0.235 NA
HETATM   11  C   UNL     1      38.311 -11.490   1.906  1.00  0.00     0.173 C 
HETATM   12  S   UNL     1      41.103 -10.191  -0.507  1.00  0.00    -0.074 SA
HETATM   13  C   UNL     1      37.556 -11.898  -1.290  1.00  0.00     0.068 C 
HETATM   14  C   UNL     1      37.750 -12.155  -2.797  1.00  0.00     0.240 C 
HETATM   15  H   UNL     1      41.754 -10.103   2.286  1.00  0.00     0.162 HD
ENDROOT
BRANCH   9  16
HETATM   16  C   UNL     1      41.067 -12.410   3.459  1.00  0.00    -0.012 A 
HETATM   17  C   UNL     1      40.546 -13.588   4.029  1.00  0.00     0.050 A 
HETATM   18  C   UNL     1      41.326 -14.742   4.154  1.00  0.00     0.103 A 
HETATM   19  C   UNL     1      42.645 -14.724   3.685  1.00  0.00     0.112 A 
HETATM   20  C   UNL     1      43.195 -13.564   3.144  1.00  0.00     0.041 A 
HETATM   21  C   UNL     1      42.417 -12.409   3.056  1.00  0.00     0.014 A 
BRANCH  18  22
HETATM   22  O   UNL     1      40.869 -15.929   4.668  1.00  0.00    -0.349 OA
BRANCH  22  23
HETATM   23  C   UNL     1      40.467 -15.905   6.038  1.00  0.00     0.171 C 
HETATM   24  C   UNL     1      41.720 -15.836   6.894  1.00  0.00     0.034 C 
ENDBRANCH  22  23
ENDBRANCH  18  22
BRANCH  19  25
HETATM   25  O   UNL     1      43.339 -15.957   3.704  1.00  0.00    -0.272 OA
BRANCH  25  26
HETATM   26  C   UNL     1      43.377 -16.830   2.630  1.00  0.00     0.298 C 
HETATM   27  O   UNL     1      43.213 -16.560   1.451  1.00  0.00    -0.259 OA
BRANCH  26  28
HETATM   28  C   UNL     1      43.589 -18.211   3.141  1.00  0.00     0.039 A 
HETATM   29  C   UNL     1      43.367 -19.281   2.265  1.00  0.00     0.017 A 
HETATM   30  C   UNL     1      43.528 -20.596   2.706  1.00  0.00     0.001 A 
HETATM   31  C   UNL     1      43.920 -20.847   4.021  1.00  0.00     0.000 A 
HETATM   32  C   UNL     1      44.155 -19.787   4.896  1.00  0.00     0.001 A 
HETATM   33  C   UNL     1      43.991 -18.470   4.459  1.00  0.00     0.017 A 
ENDBRANCH  26  28
ENDBRANCH  25  26
ENDBRANCH  19  25
ENDBRANCH   9  16
BRANCH  11  34
HETATM   34  O   UNL     1      37.025 -11.830   1.712  1.00  0.00    -0.344 OA
HETATM   35  H   UNL     1      36.645 -11.987   2.595  1.00  0.00     0.219 HD
ENDBRANCH  11  34
BRANCH   1  36
HETATM   36  C   UNL     1      37.661  -9.683  -3.516  1.00  0.00     0.231 C 
HETATM   37  C   UNL     1      38.596  -8.490  -3.605  1.00  0.00     0.034 C 
ENDBRANCH   1  36
TORSDOF 8
ENDMDL
MODEL 5
REMARK VINA RESULT:      -8.2      3.170      9.269
REMARK  8 active torsions:
REMARK  status: ('A' for Active; 'I' for Inactive)
REMARK    1  A    between atoms: C_2  and  N_3 
REMARK    2  A    between atoms: C_11  and  C_12 
REMARK    3  A    between atoms: C_14  and  O_15 
REMARK    4  A    between atoms: O_15  and  C_16 
REMARK    5  A    between atoms: C_18  and  O_19 
REMARK    6  A    between atoms: O_19  and  C_20 
REMARK    7  A    between atoms: C_20  and  C_21 
REMARK    8  A    between atoms: C_31  and  O_32 
ROOT
HETATM    1  N   UNL     1      39.811 -14.847   3.328  1.00  0.00    -0.067 N 
HETATM    2  H   UNL     1      38.842 -15.184   3.281  1.00  0.00     0.280 HD
HETATM    3  C   UNL     1      40.253 -15.067   4.778  1.00  0.00     0.281 C 
HETATM    4  C   UNL     1      41.462 -14.254   5.089  1.00  0.00     0.018 A 
HETATM    5  C   UNL     1      41.901 -13.163   4.357  1.00  0.00    -0.024 A 
HETATM    6  C   UNL     1      43.097 -12.616   4.920  1.00  0.00     0.057 A 
HETATM    7  C   UNL     1      43.477 -13.293   6.051  1.00  0.00     0.087 A 
HETATM    8  N   UNL     1      44.571 -12.943   6.753  1.00  0.00    -0.357 N 
HETATM    9  C   UNL     1      45.047 -11.571   6.576  1.00  0.00     0.243 C 
HETATM   10  N   UNL     1      44.885 -11.014   5.212  1.00  0.00    -0.235 NA
HETATM   11  C   UNL     1      43.944 -11.526   4.508  1.00  0.00     0.173 C 
HETATM   12  S   UNL     1      42.449 -14.585   6.435  1.00  0.00    -0.074 SA
HETATM   13  C   UNL     1      41.176 -12.703   3.127  1.00  0.00     0.068 C 
HETATM   14  C   UNL     1      39.782 -13.350   3.014  1.00  0.00     0.240 C 
HETATM   15  H   UNL     1      44.714 -13.338   7.677  1.00  0.00     0.162 HD
ENDROOT
BRANCH   9  16
HETATM   16  C   UNL     1      44.421 -10.677   7.655  1.00  0.00    -0.012 A 
HETATM   17  C   UNL     1      43.299  -9.866   7.393  1.00  0.00     0.050 A 
HETATM   18  C   UNL     1      42.699  -9.106   8.402  1.00  0.00     0.103 A 
HETATM   19  C   UNL     1      43.219  -9.172   9.701  1.00  0.00     0.112 A 
HETATM   20  C   UNL     1      44.344  -9.943   9.983  1.00  0.00     0.041 A 
HETATM   21  C   UNL     1      44.954 -10.669   8.959  1.00  0.00     0.014 A 
BRANCH  18  22
HETATM   22  O   UNL     1      41.587  -8.325   8.220  1.00  0.00    -0.349 OA
BRANCH  22  23
HETATM   23  C   UNL     1      40.562  -8.877   7.393  1.00  0.00     0.171 C 
HETATM   24  C   UNL     1      39.679  -9.755   8.263  1.00  0.00     0.034 C 
ENDBRANCH  22  23
ENDBRANCH  18  22
BRANCH  19  25
HETATM   25  O   UNL     1      42.487  -8.499  10.708  1.00  0.00    -0.272 OA
BRANCH  25  26
HETATM   26  C   UNL     1      41.760  -9.152  11.689  1.00  0.00     0.298 C 
HETATM   27  O   UNL     1      40.977 -10.076  11.539  1.00  0.00    -0.259 OA
BRANCH  26  28
HETATM   28  C   UNL     1      42.026  -8.498  12.999  1.00  0.00     0.039 A 
HETATM   29  C   UNL     1      41.231  -8.861  14.094  1.00  0.00     0.017 A 
HETATM   30  C   UNL     1      41.426  -8.256  15.337  1.00  0.00     0.001 A 
HETATM   31  C   UNL     1      42.422  -7.292  15.494  1.00  0.00     0.000 A 
HETATM   32  C   UNL     1      43.226  -6.934  14.413  1.00  0.00     0.001 A 
HETATM   33  C   UNL     1      43.031  -7.534  13.166  1.00  0.00     0.017 A 
ENDBRANCH  26  28
ENDBRANCH  25  26
ENDBRANCH  19  25
ENDBRANCH   9  16
BRANCH  11  34
HETATM   34  O   UNL     1      43.715 -11.021   3.284  1.00  0.00    -0.344 OA
HETATM   35  H   UNL     1      43.428 -11.766   2.727  1.00  0.00     0.219 HD
ENDBRANCH  11  34
BRANCH   1  36
HETATM   36  C   UNL     1      40.614 -15.700   2.367  1.00  0.00     0.231 C 
HETATM   37  C   UNL     1      40.192 -15.449   0.931  1.00  0.00     0.034 C 
ENDBRANCH   1  36
TORSDOF 8
ENDMDL
MODEL 6
REMARK VINA RESULT:      -8.1      1.707      2.318
REMARK  8 active torsions:
REMARK  status: ('A' for Active; 'I' for Inactive)
REMARK    1  A    between atoms: C_2  and  N_3 
REMARK    2  A    between atoms: C_11  and  C_12 
REMARK    3  A    between atoms: C_14  and  O_15 
REMARK    4  A    between atoms: O_15  and  C_16 
REMARK    5  A    between atoms: C_18  and  O_19 
REMARK    6  A    between atoms: O_19  and  C_20 
REMARK    7  A    between atoms: C_20  and  C_21 
REMARK    8  A    between atoms: C_31  and  O_32 
ROOT
HETATM    1  N   UNL     1      40.453  -7.714  13.587  1.00  0.00    -0.067 N 
HETATM    2  H   UNL     1      39.534  -7.374  13.893  1.00  0.00     0.280 HD
HETATM    3  C   UNL     1      40.646  -7.158  12.172  1.00  0.00     0.281 C 
HETATM    4  C   UNL     1      41.721  -7.900  11.456  1.00  0.00     0.018 A 
HETATM    5  C   UNL     1      42.206  -9.147  11.815  1.00  0.00    -0.024 A 
HETATM    6  C   UNL     1      43.241  -9.569  10.924  1.00  0.00     0.057 A 
HETATM    7  C   UNL     1      43.461  -8.647   9.932  1.00  0.00     0.087 A 
HETATM    8  N   UNL     1      44.386  -8.841   8.974  1.00  0.00    -0.357 N 
HETATM    9  C   UNL     1      44.789 -10.227   8.731  1.00  0.00     0.243 C 
HETATM   10  N   UNL     1      44.833 -11.095   9.931  1.00  0.00    -0.235 NA
HETATM   11  C   UNL     1      44.070 -10.747  10.900  1.00  0.00     0.173 C 
HETATM   12  S   UNL     1      42.474  -7.275  10.064  1.00  0.00    -0.074 SA
HETATM   13  C   UNL     1      41.679  -9.875  13.016  1.00  0.00     0.068 C 
HETATM   14  C   UNL     1      40.376  -9.241  13.539  1.00  0.00     0.240 C 
HETATM   15  H   UNL     1      44.390  -8.237   8.159  1.00  0.00     0.162 HD
ENDROOT
BRANCH   9  16
HETATM   16  C   UNL     1      43.922 -10.815   7.610  1.00  0.00    -0.012 A 
HETATM   17  C   UNL     1      42.907 -10.066   6.981  1.00  0.00     0.050 A 
HETATM   18  C   UNL     1      42.168 -10.592   5.917  1.00  0.00     0.103 A 
HETATM   19  C   UNL     1      42.461 -11.882   5.459  1.00  0.00     0.112 A 
HETATM   20  C   UNL     1      43.439 -12.656   6.079  1.00  0.00     0.041 A 
HETATM   21  C   UNL     1      44.145 -12.132   7.163  1.00  0.00     0.014 A 
BRANCH  18  22
HETATM   22  O   UNL     1      41.192  -9.903   5.243  1.00  0.00    -0.349 OA
BRANCH  22  23
HETATM   23  C   UNL     1      41.277  -8.479   5.300  1.00  0.00     0.171 C 
HETATM   24  C   UNL     1      40.826  -7.928   3.958  1.00  0.00     0.034 C 
ENDBRANCH  22  23
ENDBRANCH  18  22
BRANCH  19  25
HETATM   25  O   UNL     1      41.785 -12.306   4.291  1.00  0.00    -0.272 OA
BRANCH  25  26
HETATM   26  C   UNL     1      42.415 -12.513   3.075  1.00  0.00     0.298 C 
HETATM   27  O   UNL     1      42.853 -11.666   2.315  1.00  0.00    -0.259 OA
BRANCH  26  28
HETATM   28  C   UNL     1      42.425 -13.972   2.782  1.00  0.00     0.039 A 
HETATM   29  C   UNL     1      41.462 -14.778   3.404  1.00  0.00     0.017 A 
HETATM   30  C   UNL     1      41.449 -16.157   3.180  1.00  0.00     0.001 A 
HETATM   31  C   UNL     1      42.390 -16.734   2.329  1.00  0.00     0.000 A 
HETATM   32  C   UNL     1      43.344 -15.937   1.697  1.00  0.00     0.001 A 
HETATM   33  C   UNL     1      43.364 -14.558   1.921  1.00  0.00     0.017 A 
ENDBRANCH  26  28
ENDBRANCH  25  26
ENDBRANCH  19  25
ENDBRANCH   9  16
BRANCH  11  34
HETATM   34  O   UNL     1      44.027 -11.530  11.992  1.00  0.00    -0.344 OA
HETATM   35  H   UNL     1      44.332 -10.983  12.736  1.00  0.00     0.219 HD
ENDBRANCH  11  34
BRANCH   1  36
HETATM   36  C   UNL     1      41.472  -7.141  14.551  1.00  0.00     0.231 C 
HETATM   37  C   UNL     1      41.326  -7.761  15.929  1.00  0.00     0.034 C 
ENDBRANCH   1  36
TORSDOF 8
ENDMDL
MODEL 7
REMARK VINA RESULT:      -7.9      1.917      3.087
REMARK  8 active torsions:
REMARK  status: ('A' for Active; 'I' for Inactive)
REMARK    1  A    between atoms: C_2  and  N_3 
REMARK    2  A    between atoms: C_11  and  C_12 
REMARK    3  A    between atoms: C_14  and  O_15 
REMARK    4  A    between atoms: O_15  and  C_16 
REMARK    5  A    between atoms: C_18  and  O_19 
REMARK    6  A    between atoms: O_19  and  C_20 
REMARK    7  A    between atoms: C_20  and  C_21 
REMARK    8  A    between atoms: C_31  and  O_32 
ROOT
HETATM    1  N   UNL     1      42.306  -9.085  12.869  1.00  0.00    -0.067 N 
HETATM    2  H   UNL     1      42.540  -9.646  13.696  1.00  0.00     0.280 HD
HETATM    3  C   UNL     1      41.098  -9.777  12.230  1.00  0.00     0.281 C 
HETATM    4  C   UNL     1      40.916  -9.328  10.821  1.00  0.00     0.018 A 
HETATM    5  C   UNL     1      41.886  -8.709  10.049  1.00  0.00    -0.024 A 
HETATM    6  C   UNL     1      41.383  -8.400   8.747  1.00  0.00     0.057 A 
HETATM    7  C   UNL     1      40.088  -8.823   8.593  1.00  0.00     0.087 A 
HETATM    8  N   UNL     1      39.415  -8.646   7.440  1.00  0.00    -0.357 N 
HETATM    9  C   UNL     1      40.226  -8.448   6.238  1.00  0.00     0.243 C 
HETATM   10  N   UNL     1      41.483  -7.689   6.437  1.00  0.00    -0.235 NA
HETATM   11  C   UNL     1      41.980  -7.732   7.618  1.00  0.00     0.173 C 
HETATM   12  S   UNL     1      39.453  -9.557   9.983  1.00  0.00    -0.074 SA
HETATM   13  C   UNL     1      43.250  -8.409  10.599  1.00  0.00     0.068 C 
HETATM   14  C   UNL     1      43.506  -9.156  11.922  1.00  0.00     0.240 C 
HETATM   15  H   UNL     1      38.538  -9.134   7.298  1.00  0.00     0.162 HD
ENDROOT
BRANCH   9  16
HETATM   16  C   UNL     1      40.459  -9.804   5.558  1.00  0.00    -0.012 A 
HETATM   17  C   UNL     1      41.754 -10.314   5.334  1.00  0.00     0.050 A 
HETATM   18  C   UNL     1      41.950 -11.579   4.773  1.00  0.00     0.103 A 
HETATM   19  C   UNL     1      40.833 -12.359   4.448  1.00  0.00     0.112 A 
HETATM   20  C   UNL     1      39.542 -11.870   4.633  1.00  0.00     0.041 A 
HETATM   21  C   UNL     1      39.360 -10.591   5.160  1.00  0.00     0.014 A 
BRANCH  18  22
HETATM   22  O   UNL     1      43.181 -12.145   4.560  1.00  0.00    -0.349 OA
BRANCH  22  23
HETATM   23  C   UNL     1      44.126 -12.007   5.622  1.00  0.00     0.171 C 
HETATM   24  C   UNL     1      43.857 -13.105   6.637  1.00  0.00     0.034 C 
ENDBRANCH  22  23
ENDBRANCH  18  22
BRANCH  19  25
HETATM   25  O   UNL     1      41.090 -13.683   4.021  1.00  0.00    -0.272 OA
BRANCH  25  26
HETATM   26  C   UNL     1      41.046 -14.780   4.865  1.00  0.00     0.298 C 
HETATM   27  O   UNL     1      40.459 -14.871   5.931  1.00  0.00    -0.259 OA
BRANCH  26  28
HETATM   28  C   UNL     1      41.903 -15.857   4.298  1.00  0.00     0.039 A 
HETATM   29  C   UNL     1      41.562 -16.383   3.045  1.00  0.00     0.017 A 
HETATM   30  C   UNL     1      42.321 -17.412   2.484  1.00  0.00     0.001 A 
HETATM   31  C   UNL     1      43.428 -17.913   3.167  1.00  0.00     0.000 A 
HETATM   32  C   UNL     1      43.782 -17.387   4.409  1.00  0.00     0.001 A 
HETATM   33  C   UNL     1      43.022 -16.360   4.976  1.00  0.00     0.017 A 
ENDBRANCH  26  28
ENDBRANCH  25  26
ENDBRANCH  19  25
ENDBRANCH   9  16
BRANCH  11  34
HETATM   34  O   UNL     1      43.149  -7.108   7.842  1.00  0.00    -0.344 OA
HETATM   35  H   UNL     1      42.946  -6.159   7.913  1.00  0.00     0.219 HD
ENDBRANCH  11  34
BRANCH   1  36
HETATM   36  C   UNL     1      41.951  -7.700  13.370  1.00  0.00     0.231 C 
HETATM   37  C   UNL     1      43.118  -7.072  14.109  1.00  0.00     0.034 C 
ENDBRANCH   1  36
TORSDOF 8
ENDMDL
MODEL 8
REMARK VINA RESULT:      -7.9      6.468     10.592
REMARK  8 active torsions:
REMARK  status: ('A' for Active; 'I' for Inactive)
REMARK    1  A    between atoms: C_2  and  N_3 
REMARK    2  A    between atoms: C_11  and  C_12 
REMARK    3  A    between atoms: C_14  and  O_15 
REMARK    4  A    between atoms: O_15  and  C_16 
REMARK    5  A    between atoms: C_18  and  O_19 
REMARK    6  A    between atoms: O_19  and  C_20 
REMARK    7  A    between atoms: C_20  and  C_21 
REMARK    8  A    between atoms: C_31  and  O_32 
ROOT
HETATM    1  N   UNL     1      39.610  -7.789  -3.809  1.00  0.00    -0.067 N 
HETATM    2  H   UNL     1      39.700  -6.767  -3.759  1.00  0.00     0.280 HD
HETATM    3  C   UNL     1      38.758  -8.187  -2.600  1.00  0.00     0.281 C 
HETATM    4  C   UNL     1      38.897  -9.642  -2.312  1.00  0.00     0.018 A 
HETATM    5  C   UNL     1      39.923 -10.452  -2.772  1.00  0.00    -0.024 A 
HETATM    6  C   UNL     1      39.753 -11.798  -2.322  1.00  0.00     0.057 A 
HETATM    7  C   UNL     1      38.639 -11.928  -1.531  1.00  0.00     0.087 A 
HETATM    8  N   UNL     1      38.289 -13.109  -0.987  1.00  0.00    -0.357 N 
HETATM    9  C   UNL     1      39.353 -14.105  -0.853  1.00  0.00     0.243 C 
HETATM   10  N   UNL     1      40.361 -14.108  -1.940  1.00  0.00    -0.235 NA
HETATM   11  C   UNL     1      40.514 -12.997  -2.561  1.00  0.00     0.173 C 
HETATM   12  S   UNL     1      37.781 -10.479  -1.339  1.00  0.00    -0.074 SA
HETATM   13  C   UNL     1      41.013  -9.912  -3.650  1.00  0.00     0.068 C 
HETATM   14  C   UNL     1      41.018  -8.371  -3.667  1.00  0.00     0.240 C 
HETATM   15  H   UNL     1      37.579 -13.130  -0.263  1.00  0.00     0.162 HD
ENDROOT
BRANCH   9  16
HETATM   16  C   UNL     1      39.988 -13.980   0.539  1.00  0.00    -0.012 A 
HETATM   17  C   UNL     1      41.262 -14.509   0.827  1.00  0.00     0.050 A 
HETATM   18  C   UNL     1      41.857 -14.331   2.080  1.00  0.00     0.103 A 
HETATM   19  C   UNL     1      41.175 -13.594   3.057  1.00  0.00     0.112 A 
HETATM   20  C   UNL     1      39.903 -13.084   2.809  1.00  0.00     0.041 A 
HETATM   21  C   UNL     1      39.306 -13.299   1.566  1.00  0.00     0.014 A 
BRANCH  18  22
HETATM   22  O   UNL     1      43.105 -14.791   2.413  1.00  0.00    -0.349 OA
BRANCH  22  23
HETATM   23  C   UNL     1      43.456 -16.077   1.900  1.00  0.00     0.171 C 
HETATM   24  C   UNL     1      42.858 -17.128   2.819  1.00  0.00     0.034 C 
ENDBRANCH  22  23
ENDBRANCH  18  22
BRANCH  19  25
HETATM   25  O   UNL     1      41.883 -13.323   4.252  1.00  0.00    -0.272 OA
BRANCH  25  26
HETATM   26  C   UNL     1      41.454 -13.729   5.504  1.00  0.00     0.298 C 
HETATM   27  O   UNL     1      40.600 -13.203   6.200  1.00  0.00    -0.259 OA
BRANCH  26  28
HETATM   28  C   UNL     1      42.258 -14.907   5.929  1.00  0.00     0.039 A 
HETATM   29  C   UNL     1      43.644 -14.751   6.053  1.00  0.00     0.017 A 
HETATM   30  C   UNL     1      44.443 -15.834   6.424  1.00  0.00     0.001 A 
HETATM   31  C   UNL     1      43.860 -17.075   6.680  1.00  0.00     0.000 A 
HETATM   32  C   UNL     1      42.479 -17.235   6.571  1.00  0.00     0.001 A 
HETATM   33  C   UNL     1      41.677 -16.155   6.196  1.00  0.00     0.017 A 
ENDBRANCH  26  28
ENDBRANCH  25  26
ENDBRANCH  19  25
ENDBRANCH   9  16
BRANCH  11  34
HETATM   34  O   UNL     1      41.455 -12.926  -3.519  1.00  0.00    -0.344 OA
HETATM   35  H   UNL     1      42.047 -12.195  -3.270  1.00  0.00     0.219 HD
ENDBRANCH  11  34
BRANCH   1  36
HETATM   36  C   UNL     1      38.903  -8.100  -5.113  1.00  0.00     0.231 C 
HETATM   37  C   UNL     1      39.713  -7.614  -6.301  1.00  0.00     0.034 C 
ENDBRANCH   1  36
TORSDOF 8
ENDMDL
MODEL 9
REMARK VINA RESULT:      -7.8      5.804      9.579
REMARK  8 active torsions:
REMARK  status: ('A' for Active; 'I' for Inactive)
REMARK    1  A    between atoms: C_2  and  N_3 
REMARK    2  A    between atoms: C_11  and  C_12 
REMARK    3  A    between atoms: C_14  and  O_15 
REMARK    4  A    between atoms: O_15  and  C_16 
REMARK    5  A    between atoms: C_18  and  O_19 
REMARK    6  A    between atoms: O_19  and  C_20 
REMARK    7  A    between atoms: C_20  and  C_21 
REMARK    8  A    between atoms: C_31  and  O_32 
ROOT
HETATM    1  N   UNL     1      44.385 -18.168   5.204  1.00  0.00    -0.067 N 
HETATM    2  H   UNL     1      45.278 -18.653   5.060  1.00  0.00     0.280 HD
HETATM    3  C   UNL     1      43.823 -17.914   3.801  1.00  0.00     0.281 C 
HETATM    4  C   UNL     1      42.763 -16.869   3.839  1.00  0.00     0.018 A 
HETATM    5  C   UNL     1      42.571 -15.963   4.869  1.00  0.00    -0.024 A 
HETATM    6  C   UNL     1      41.462 -15.103   4.595  1.00  0.00     0.057 A 
HETATM    7  C   UNL     1      40.899 -15.380   3.375  1.00  0.00     0.087 A 
HETATM    8  N   UNL     1      39.845 -14.686   2.906  1.00  0.00    -0.357 N 
HETATM    9  C   UNL     1      39.634 -13.356   3.479  1.00  0.00     0.243 C 
HETATM   10  N   UNL     1      39.975 -13.223   4.915  1.00  0.00    -0.235 NA
HETATM   11  C   UNL     1      40.850 -14.047   5.360  1.00  0.00     0.173 C 
HETATM   12  S   UNL     1      41.653 -16.664   2.565  1.00  0.00    -0.074 SA
HETATM   13  C   UNL     1      43.440 -15.973   6.092  1.00  0.00     0.068 C 
HETATM   14  C   UNL     1      44.700 -16.836   5.886  1.00  0.00     0.240 C 
HETATM   15  H   UNL     1      39.578 -14.788   1.932  1.00  0.00     0.162 HD
ENDROOT
BRANCH   9  16
HETATM   16  C   UNL     1      40.343 -12.312   2.606  1.00  0.00    -0.012 A 
HETATM   17  C   UNL     1      40.515 -12.493   1.219  1.00  0.00     0.050 A 
HETATM   18  C   UNL     1      41.104 -11.506   0.424  1.00  0.00     0.103 A 
HETATM   19  C   UNL     1      41.512 -10.307   1.022  1.00  0.00     0.112 A 
HETATM   20  C   UNL     1      41.380 -10.112   2.395  1.00  0.00     0.041 A 
HETATM   21  C   UNL     1      40.823 -11.120   3.183  1.00  0.00     0.014 A 
BRANCH  18  22
HETATM   22  O   UNL     1      41.269 -11.606  -0.934  1.00  0.00    -0.349 OA
BRANCH  22  23
HETATM   23  C   UNL     1      40.301 -12.396  -1.626  1.00  0.00     0.171 C 
HETATM   24  C   UNL     1      40.826 -12.661  -3.026  1.00  0.00     0.034 C 
ENDBRANCH  22  23
ENDBRANCH  18  22
BRANCH  19  25
HETATM   25  O   UNL     1      41.966  -9.289   0.150  1.00  0.00    -0.272 OA
BRANCH  25  26
HETATM   26  C   UNL     1      41.139  -8.317  -0.387  1.00  0.00     0.298 C 
HETATM   27  O   UNL     1      40.105  -7.879   0.090  1.00  0.00    -0.259 OA
BRANCH  26  28
HETATM   28  C   UNL     1      41.674  -7.911  -1.715  1.00  0.00     0.039 A 
HETATM   29  C   UNL     1      41.120  -8.499  -2.859  1.00  0.00     0.017 A 
HETATM   30  C   UNL     1      41.607  -8.169  -4.125  1.00  0.00     0.001 A 
HETATM   31  C   UNL     1      42.643  -7.245  -4.255  1.00  0.00     0.000 A 
HETATM   32  C   UNL     1      43.192  -6.646  -3.121  1.00  0.00     0.001 A 
HETATM   33  C   UNL     1      42.711  -6.976  -1.852  1.00  0.00     0.017 A 
ENDBRANCH  26  28
ENDBRANCH  25  26
ENDBRANCH  19  25
ENDBRANCH   9  16
BRANCH  11  34
HETATM   34  O   UNL     1      41.239 -13.935   6.642  1.00  0.00    -0.344 OA
HETATM   35  H   UNL     1      42.122 -14.341   6.699  1.00  0.00     0.219 HD
ENDBRANCH  11  34
BRANCH   1  36
HETATM   36  C   UNL     1      43.501 -19.113   5.993  1.00  0.00     0.231 C 
HETATM   37  C   UNL     1      43.774 -20.557   5.616  1.00  0.00     0.034 C 
ENDBRANCH   1  36
TORSDOF 8
ENDMDL
MODEL 10
REMARK VINA RESULT:      -7.8      2.655      9.684
REMARK  8 active torsions:
REMARK  status: ('A' for Active; 'I' for Inactive)
REMARK    1  A    between atoms: C_2  and  N_3 
REMARK    2  A    between atoms: C_11  and  C_12 
REMARK    3  A    between atoms: C_14  and  O_15 
REMARK    4  A    between atoms: O_15  and  C_16 
REMARK    5  A    between atoms: C_18  and  O_19 
REMARK    6  A    between atoms: O_19  and  C_20 
REMARK    7  A    between atoms: C_20  and  C_21 
REMARK    8  A    between atoms: C_31  and  O_32 
ROOT
HETATM    1  N   UNL     1      43.162 -16.706   5.867  1.00  0.00    -0.067 N 
HETATM    2  H   UNL     1      43.647 -17.519   6.264  1.00  0.00     0.280 HD
HETATM    3  C   UNL     1      43.956 -15.483   6.338  1.00  0.00     0.281 C 
HETATM    4  C   UNL     1      43.147 -14.241   6.196  1.00  0.00     0.018 A 
HETATM    5  C   UNL     1      41.769 -14.198   6.057  1.00  0.00    -0.024 A 
HETATM    6  C   UNL     1      41.310 -12.849   5.935  1.00  0.00     0.057 A 
HETATM    7  C   UNL     1      42.346 -11.953   6.019  1.00  0.00     0.087 A 
HETATM    8  N   UNL     1      42.144 -10.625   5.939  1.00  0.00    -0.357 N 
HETATM    9  C   UNL     1      40.794 -10.152   6.251  1.00  0.00     0.243 C 
HETATM   10  N   UNL     1      39.694 -11.052   5.832  1.00  0.00    -0.235 NA
HETATM   11  C   UNL     1      39.996 -12.294   5.732  1.00  0.00     0.173 C 
HETATM   12  S   UNL     1      43.858 -12.695   6.212  1.00  0.00    -0.074 SA
HETATM   13  C   UNL     1      40.947 -15.452   6.015  1.00  0.00     0.068 C 
HETATM   14  C   UNL     1      41.758 -16.678   6.475  1.00  0.00     0.240 C 
HETATM   15  H   UNL     1      42.895  -9.993   6.193  1.00  0.00     0.162 HD
ENDROOT
BRANCH   9  16
HETATM   16  C   UNL     1      40.720  -9.784   7.739  1.00  0.00    -0.012 A 
HETATM   17  C   UNL     1      41.863  -9.406   8.471  1.00  0.00     0.050 A 
HETATM   18  C   UNL     1      41.771  -9.010   9.809  1.00  0.00     0.103 A 
HETATM   19  C   UNL     1      40.512  -8.972  10.421  1.00  0.00     0.112 A 
HETATM   20  C   UNL     1      39.369  -9.366   9.730  1.00  0.00     0.041 A 
HETATM   21  C   UNL     1      39.479  -9.793   8.406  1.00  0.00     0.014 A 
BRANCH  18  22
HETATM   22  O   UNL     1      42.839  -8.599  10.566  1.00  0.00    -0.349 OA
BRANCH  22  23
HETATM   23  C   UNL     1      44.012  -9.409  10.484  1.00  0.00     0.171 C 
HETATM   24  C   UNL     1      43.864 -10.552  11.474  1.00  0.00     0.034 C 
ENDBRANCH  22  23
ENDBRANCH  18  22
BRANCH  19  25
HETATM   25  O   UNL     1      40.461  -8.426  11.725  1.00  0.00    -0.272 OA
BRANCH  25  26
HETATM   26  C   UNL     1      40.583  -9.185  12.877  1.00  0.00     0.298 C 
HETATM   27  O   UNL     1      40.125 -10.297  13.082  1.00  0.00    -0.259 OA
BRANCH  26  28
HETATM   28  C   UNL     1      41.325  -8.394  13.896  1.00  0.00     0.039 A 
HETATM   29  C   UNL     1      40.866  -8.425  15.220  1.00  0.00     0.017 A 
HETATM   30  C   UNL     1      41.514  -7.679  16.206  1.00  0.00     0.001 A 
HETATM   31  C   UNL     1      42.628  -6.907  15.878  1.00  0.00     0.000 A 
HETATM   32  C   UNL     1      43.099  -6.881  14.565  1.00  0.00     0.001 A 
HETATM   33  C   UNL     1      42.450  -7.622  13.574  1.00  0.00     0.017 A 
ENDBRANCH  26  28
ENDBRANCH  25  26
ENDBRANCH  19  25
ENDBRANCH   9  16
BRANCH  11  34
HETATM   34  O   UNL     1      39.023 -13.164   5.410  1.00  0.00    -0.344 OA
HETATM   35  H   UNL     1      38.473 -13.270   6.207  1.00  0.00     0.219 HD
ENDBRANCH  11  34
BRANCH   1  36
HETATM   36  C   UNL     1      43.218 -16.857   4.361  1.00  0.00     0.231 C 
HETATM   37  C   UNL     1      43.917 -18.147   3.969  1.00  0.00     0.034 C 
ENDBRANCH   1  36
TORSDOF 8
ENDMDL
