MODEL 1
REMARK VINA RESULT:      -8.1      0.000      0.000
REMARK  4 active torsions:
REMARK  status: ('A' for Active; 'I' for Inactive)
REMARK    1  A    between atoms: N_6  and  N_7 
REMARK       I    between atoms: N_7  and  C_8 
REMARK    2  A    between atoms: C_8  and  C_9 
REMARK    3  A    between atoms: C_10  and  O_11 
REMARK    4  A    between atoms: C_14  and  N_15 
ROOT
HETATM    1  N   UNL     1      42.278 -15.514   1.216  1.00  0.00    -0.242 N 
HETATM    2  C   UNL     1      40.979 -15.036   1.154  1.00  0.00     0.274 C 
HETATM    3  O   UNL     1      39.962 -15.669   1.426  1.00  0.00    -0.266 OA
HETATM    4  H   UNL     1      43.062 -14.914   1.005  1.00  0.00     0.192 HD
ENDROOT
BRANCH   1   5
HETATM    5  N   UNL     1      42.516 -16.828   1.460  1.00  0.00    -0.166 NA
HETATM    6  C   UNL     1      42.998 -17.179   2.611  1.00  0.00     0.157 A 
HETATM    7  C   UNL     1      43.464 -18.624   2.871  1.00  0.00     0.279 A 
HETATM    8  C   UNL     1      43.226 -16.449   3.868  1.00  0.00     0.028 A 
HETATM    9  N   UNL     1      43.964 -18.619   4.160  1.00  0.00    -0.316 N 
HETATM   10  O   UNL     1      43.407 -19.537   2.077  1.00  0.00    -0.265 OA
HETATM   11  C   UNL     1      44.498 -19.777   4.826  1.00  0.00     0.159 C 
HETATM   12  C   UNL     1      43.821 -17.357   4.751  1.00  0.00     0.050 A 
HETATM   13  C   UNL     1      44.166 -16.987   6.040  1.00  0.00     0.032 A 
HETATM   14  C   UNL     1      43.889 -15.678   6.444  1.00  0.00     0.021 A 
HETATM   15  C   UNL     1      43.261 -14.781   5.566  1.00  0.00     0.012 A 
HETATM   16  C   UNL     1      42.909 -15.161   4.269  1.00  0.00     0.035 A 
HETATM   17 BR   UNL     1      42.873 -13.025   6.154  1.00  0.00    -0.051 Br
ENDBRANCH   1   5
BRANCH   2  18
HETATM   18  C   UNL     1      40.845 -13.589   0.839  1.00  0.00     0.068 A 
HETATM   19  C   UNL     1      39.866 -13.180  -0.075  1.00  0.00     0.081 A 
HETATM   20  C   UNL     1      39.637 -11.826  -0.296  1.00  0.00     0.039 A 
HETATM   21  C   UNL     1      40.414 -10.874   0.367  1.00  0.00     0.026 A 
HETATM   22  C   UNL     1      41.464 -11.263   1.203  1.00  0.00     0.006 A 
HETATM   23  C   UNL     1      41.647 -12.624   1.468  1.00  0.00     0.043 A 
BRANCH  19  24
HETATM   24  O   UNL     1      39.072 -14.057  -0.764  1.00  0.00    -0.360 OA
HETATM   25  H   UNL     1      39.267 -14.964  -0.435  1.00  0.00     0.217 HD
ENDBRANCH  19  24
BRANCH  22  26
HETATM   26  N   UNL     1      42.165 -10.305   1.947  1.00  0.00    -0.303 NA
HETATM   27  H   UNL     1      43.097 -10.605   2.220  1.00  0.00     0.124 HD
HETATM   28  H   UNL     1      41.649  -9.929   2.736  1.00  0.00     0.124 HD
ENDBRANCH  22  26
ENDBRANCH   2  18
TORSDOF 4
ENDMDL
MODEL 2
REMARK VINA RESULT:      -7.9      4.022      6.393
REMARK  4 active torsions:
REMARK  status: ('A' for Active; 'I' for Inactive)
REMARK    1  A    between atoms: N_6  and  N_7 
REMARK       I    between atoms: N_7  and  C_8 
REMARK    2  A    between atoms: C_8  and  C_9 
REMARK    3  A    between atoms: C_10  and  O_11 
REMARK    4  A    between atoms: C_14  and  N_15 
ROOT
HETATM    1  N   UNL     1      41.856 -12.018   5.294  1.00  0.00    -0.242 N 
HETATM    2  C   UNL     1      43.044 -11.342   5.070  1.00  0.00     0.274 C 
HETATM    3  O   UNL     1      43.361 -10.763   4.035  1.00  0.00    -0.266 OA
HETATM    4  H   UNL     1      41.661 -12.442   6.190  1.00  0.00     0.192 HD
ENDROOT
BRANCH   1   5
HETATM    5  N   UNL     1      40.974 -12.215   4.281  1.00  0.00    -0.166 NA
HETATM    6  C   UNL     1      41.050 -13.303   3.581  1.00  0.00     0.157 A 
HETATM    7  C   UNL     1      40.205 -13.489   2.306  1.00  0.00     0.279 A 
HETATM    8  C   UNL     1      41.832 -14.540   3.732  1.00  0.00     0.028 A 
HETATM    9  N   UNL     1      40.580 -14.719   1.797  1.00  0.00    -0.316 N 
HETATM   10  O   UNL     1      39.406 -12.691   1.866  1.00  0.00    -0.265 OA
HETATM   11  C   UNL     1      40.024 -15.307   0.608  1.00  0.00     0.159 C 
HETATM   12  C   UNL     1      41.521 -15.341   2.627  1.00  0.00     0.050 A 
HETATM   13  C   UNL     1      42.091 -16.593   2.462  1.00  0.00     0.032 A 
HETATM   14  C   UNL     1      42.979 -17.045   3.443  1.00  0.00     0.021 A 
HETATM   15  C   UNL     1      43.260 -16.252   4.566  1.00  0.00     0.012 A 
HETATM   16  C   UNL     1      42.678 -14.993   4.731  1.00  0.00     0.035 A 
HETATM   17 BR   UNL     1      44.443 -16.905   5.890  1.00  0.00    -0.051 Br
ENDBRANCH   1   5
BRANCH   2  18
HETATM   18  C   UNL     1      43.946 -11.227   6.246  1.00  0.00     0.068 A 
HETATM   19  C   UNL     1      45.324 -11.100   6.037  1.00  0.00     0.081 A 
HETATM   20  C   UNL     1      46.177 -10.868   7.111  1.00  0.00     0.039 A 
HETATM   21  C   UNL     1      45.660 -10.801   8.406  1.00  0.00     0.026 A 
HETATM   22  C   UNL     1      44.302 -11.030   8.647  1.00  0.00     0.006 A 
HETATM   23  C   UNL     1      43.443 -11.200   7.557  1.00  0.00     0.043 A 
BRANCH  19  24
HETATM   24  O   UNL     1      45.901 -11.159   4.798  1.00  0.00    -0.360 OA
HETATM   25  H   UNL     1      45.781 -12.073   4.450  1.00  0.00     0.217 HD
ENDBRANCH  19  24
BRANCH  22  26
HETATM   26  N   UNL     1      43.775 -10.854   9.932  1.00  0.00    -0.303 NA
HETATM   27  H   UNL     1      43.831  -9.896  10.267  1.00  0.00     0.124 HD
HETATM   28  H   UNL     1      44.127 -11.511  10.622  1.00  0.00     0.124 HD
ENDBRANCH  22  26
ENDBRANCH   2  18
TORSDOF 4
ENDMDL
MODEL 3
REMARK VINA RESULT:      -7.6      3.964      7.646
REMARK  4 active torsions:
REMARK  status: ('A' for Active; 'I' for Inactive)
REMARK    1  A    between atoms: N_6  and  N_7 
REMARK       I    between atoms: N_7  and  C_8 
REMARK    2  A    between atoms: C_8  and  C_9 
REMARK    3  A    between atoms: C_10  and  O_11 
REMARK    4  A    between atoms: C_14  and  N_15 
ROOT
HETATM    1  N   UNL     1      40.694 -14.891   5.947  1.00  0.00    -0.242 N 
HETATM    2  C   UNL     1      42.066 -14.982   6.114  1.00  0.00     0.274 C 
HETATM    3  O   UNL     1      42.766 -14.217   6.773  1.00  0.00    -0.266 OA
HETATM    4  H   UNL     1      40.189 -15.583   5.413  1.00  0.00     0.192 HD
ENDROOT
BRANCH   1   5
HETATM    5  N   UNL     1      40.015 -13.810   6.410  1.00  0.00    -0.166 NA
HETATM    6  C   UNL     1      39.659 -12.884   5.576  1.00  0.00     0.157 A 
HETATM    7  C   UNL     1      39.060 -11.554   6.073  1.00  0.00     0.279 A 
HETATM    8  C   UNL     1      39.689 -12.791   4.108  1.00  0.00     0.028 A 
HETATM    9  N   UNL     1      38.857 -10.798   4.933  1.00  0.00    -0.316 N 
HETATM   10  O   UNL     1      38.847 -11.265   7.230  1.00  0.00    -0.265 OA
HETATM   11  C   UNL     1      38.292  -9.475   4.929  1.00  0.00     0.159 C 
HETATM   12  C   UNL     1      39.213 -11.515   3.784  1.00  0.00     0.050 A 
HETATM   13  C   UNL     1      39.108 -11.100   2.466  1.00  0.00     0.032 A 
HETATM   14  C   UNL     1      39.477 -11.999   1.462  1.00  0.00     0.021 A 
HETATM   15  C   UNL     1      39.921 -13.289   1.792  1.00  0.00     0.012 A 
HETATM   16  C   UNL     1      40.019 -13.706   3.122  1.00  0.00     0.035 A 
HETATM   17 BR   UNL     1      40.385 -14.494   0.409  1.00  0.00    -0.051 Br
ENDBRANCH   1   5
BRANCH   2  18
HETATM   18  C   UNL     1      42.702 -16.191   5.528  1.00  0.00     0.068 A 
HETATM   19  C   UNL     1      43.226 -17.167   6.384  1.00  0.00     0.081 A 
HETATM   20  C   UNL     1      43.716 -18.361   5.868  1.00  0.00     0.039 A 
HETATM   21  C   UNL     1      43.721 -18.570   4.486  1.00  0.00     0.026 A 
HETATM   22  C   UNL     1      43.299 -17.566   3.610  1.00  0.00     0.006 A 
HETATM   23  C   UNL     1      42.751 -16.394   4.140  1.00  0.00     0.043 A 
BRANCH  19  24
HETATM   24  O   UNL     1      43.258 -17.029   7.745  1.00  0.00    -0.360 OA
HETATM   25  H   UNL     1      43.103 -17.916   8.144  1.00  0.00     0.217 HD
ENDBRANCH  19  24
BRANCH  22  26
HETATM   26  N   UNL     1      43.206 -17.824   2.237  1.00  0.00    -0.303 NA
HETATM   27  H   UNL     1      44.095 -17.759   1.749  1.00  0.00     0.124 HD
HETATM   28  H   UNL     1      42.481 -17.295   1.761  1.00  0.00     0.124 HD
ENDBRANCH  22  26
ENDBRANCH   2  18
TORSDOF 4
ENDMDL
MODEL 4
REMARK VINA RESULT:      -7.5      2.257      6.754
REMARK  4 active torsions:
REMARK  status: ('A' for Active; 'I' for Inactive)
REMARK    1  A    between atoms: N_6  and  N_7 
REMARK       I    between atoms: N_7  and  C_8 
REMARK    2  A    between atoms: C_8  and  C_9 
REMARK    3  A    between atoms: C_10  and  O_11 
REMARK    4  A    between atoms: C_14  and  N_15 
ROOT
HETATM    1  N   UNL     1      41.279 -15.934   2.207  1.00  0.00    -0.242 N 
HETATM    2  C   UNL     1      42.598 -16.212   2.526  1.00  0.00     0.274 C 
HETATM    3  O   UNL     1      43.584 -15.891   1.867  1.00  0.00    -0.266 OA
HETATM    4  H   UNL     1      40.528 -16.207   2.823  1.00  0.00     0.192 HD
ENDROOT
BRANCH   1   5
HETATM    5  N   UNL     1      40.963 -15.381   1.008  1.00  0.00    -0.166 NA
HETATM    6  C   UNL     1      40.303 -14.265   0.982  1.00  0.00     0.157 A 
HETATM    7  C   UNL     1      39.755 -13.697  -0.341  1.00  0.00     0.279 A 
HETATM    8  C   UNL     1      39.915 -13.305   2.026  1.00  0.00     0.028 A 
HETATM    9  N   UNL     1      39.069 -12.550   0.013  1.00  0.00    -0.316 N 
HETATM   10  O   UNL     1      39.899 -14.194  -1.437  1.00  0.00    -0.265 OA
HETATM   11  C   UNL     1      38.403 -11.683  -0.923  1.00  0.00     0.159 C 
HETATM   12  C   UNL     1      39.164 -12.310   1.389  1.00  0.00     0.050 A 
HETATM   13  C   UNL     1      38.643 -11.239   2.095  1.00  0.00     0.032 A 
HETATM   14  C   UNL     1      38.900 -11.169   3.468  1.00  0.00     0.021 A 
HETATM   15  C   UNL     1      39.682 -12.151   4.095  1.00  0.00     0.012 A 
HETATM   16  C   UNL     1      40.211 -13.226   3.377  1.00  0.00     0.035 A 
HETATM   17 BR   UNL     1      40.036 -12.012   5.948  1.00  0.00    -0.051 Br
ENDBRANCH   1   5
BRANCH   2  18
HETATM   18  C   UNL     1      42.814 -16.855   3.848  1.00  0.00     0.068 A 
HETATM   19  C   UNL     1      43.629 -17.991   3.928  1.00  0.00     0.081 A 
HETATM   20  C   UNL     1      43.946 -18.540   5.165  1.00  0.00     0.039 A 
HETATM   21  C   UNL     1      43.418 -17.978   6.330  1.00  0.00     0.026 A 
HETATM   22  C   UNL     1      42.521 -16.909   6.265  1.00  0.00     0.006 A 
HETATM   23  C   UNL     1      42.256 -16.325   5.022  1.00  0.00     0.043 A 
BRANCH  19  24
HETATM   24  O   UNL     1      44.176 -18.597   2.830  1.00  0.00    -0.360 OA
HETATM   25  H   UNL     1      43.456 -19.070   2.353  1.00  0.00     0.217 HD
ENDBRANCH  19  24
BRANCH  22  26
HETATM   26  N   UNL     1      42.082 -16.284   7.439  1.00  0.00    -0.303 NA
HETATM   27  H   UNL     1      41.354 -16.799   7.926  1.00  0.00     0.124 HD
HETATM   28  H   UNL     1      41.834 -15.306   7.324  1.00  0.00     0.124 HD
ENDBRANCH  22  26
ENDBRANCH   2  18
TORSDOF 4
ENDMDL
MODEL 5
REMARK VINA RESULT:      -7.3      2.806      7.245
REMARK  4 active torsions:
REMARK  status: ('A' for Active; 'I' for Inactive)
REMARK    1  A    between atoms: N_6  and  N_7 
REMARK       I    between atoms: N_7  and  C_8 
REMARK    2  A    between atoms: C_8  and  C_9 
REMARK    3  A    between atoms: C_10  and  O_11 
REMARK    4  A    between atoms: C_14  and  N_15 
ROOT
HETATM    1  N   UNL     1      40.963 -14.494   0.180  1.00  0.00    -0.242 N 
HETATM    2  C   UNL     1      40.434 -15.538   0.920  1.00  0.00     0.274 C 
HETATM    3  O   UNL     1      39.545 -16.304   0.557  1.00  0.00    -0.266 OA
HETATM    4  H   UNL     1      41.717 -13.930   0.544  1.00  0.00     0.192 HD
ENDROOT
BRANCH   1   5
HETATM    5  N   UNL     1      40.406 -14.141  -1.007  1.00  0.00    -0.166 NA
HETATM    6  C   UNL     1      39.467 -13.247  -1.022  1.00  0.00     0.157 A 
HETATM    7  C   UNL     1      38.673 -12.951  -2.309  1.00  0.00     0.279 A 
HETATM    8  C   UNL     1      38.922 -12.347   0.005  1.00  0.00     0.028 A 
HETATM    9  N   UNL     1      37.733 -12.004  -1.946  1.00  0.00    -0.316 N 
HETATM   10  O   UNL     1      38.853 -13.476  -3.386  1.00  0.00    -0.265 OA
HETATM   11  C   UNL     1      36.778 -11.423  -2.852  1.00  0.00     0.159 C 
HETATM   12  C   UNL     1      37.877 -11.641  -0.602  1.00  0.00     0.050 A 
HETATM   13  C   UNL     1      37.146 -10.695   0.098  1.00  0.00     0.032 A 
HETATM   14  C   UNL     1      37.491 -10.452   1.430  1.00  0.00     0.021 A 
HETATM   15  C   UNL     1      38.562 -11.138   2.024  1.00  0.00     0.012 A 
HETATM   16  C   UNL     1      39.301 -12.086   1.312  1.00  0.00     0.035 A 
HETATM   17 BR   UNL     1      39.022 -10.764   3.820  1.00  0.00    -0.051 Br
ENDBRANCH   1   5
BRANCH   2  18
HETATM   18  C   UNL     1      41.103 -15.803   2.221  1.00  0.00     0.068 A 
HETATM   19  C   UNL     1      42.499 -15.901   2.262  1.00  0.00     0.081 A 
HETATM   20  C   UNL     1      43.157 -16.026   3.479  1.00  0.00     0.039 A 
HETATM   21  C   UNL     1      42.419 -16.092   4.664  1.00  0.00     0.026 A 
HETATM   22  C   UNL     1      41.022 -16.101   4.636  1.00  0.00     0.006 A 
HETATM   23  C   UNL     1      40.370 -15.913   3.414  1.00  0.00     0.043 A 
BRANCH  19  24
HETATM   24  O   UNL     1      43.284 -15.849   1.142  1.00  0.00    -0.360 OA
HETATM   25  H   UNL     1      43.058 -16.623   0.576  1.00  0.00     0.217 HD
ENDBRANCH  19  24
BRANCH  22  26
HETATM   26  N   UNL     1      40.294 -16.057   5.832  1.00  0.00    -0.303 NA
HETATM   27  H   UNL     1      40.807 -15.645   6.606  1.00  0.00     0.124 HD
HETATM   28  H   UNL     1      39.870 -16.942   6.095  1.00  0.00     0.124 HD
ENDBRANCH  22  26
ENDBRANCH   2  18
TORSDOF 4
ENDMDL
MODEL 6
REMARK VINA RESULT:      -7.1      4.486      7.544
REMARK  4 active torsions:
REMARK  status: ('A' for Active; 'I' for Inactive)
REMARK    1  A    between atoms: N_6  and  N_7 
REMARK       I    between atoms: N_7  and  C_8 
REMARK    2  A    between atoms: C_8  and  C_9 
REMARK    3  A    between atoms: C_10  and  O_11 
REMARK    4  A    between atoms: C_14  and  N_15 
ROOT
HETATM    1  N   UNL     1      40.673 -13.648   5.082  1.00  0.00    -0.242 N 
HETATM    2  C   UNL     1      40.683 -14.812   5.834  1.00  0.00     0.274 C 
HETATM    3  O   UNL     1      39.852 -15.133   6.679  1.00  0.00    -0.266 OA
HETATM    4  H   UNL     1      41.381 -13.477   4.383  1.00  0.00     0.192 HD
ENDROOT
BRANCH   1   5
HETATM    5  N   UNL     1      39.773 -12.668   5.344  1.00  0.00    -0.166 NA
HETATM    6  C   UNL     1      40.155 -11.620   6.005  1.00  0.00     0.157 A 
HETATM    7  C   UNL     1      39.135 -10.573   6.493  1.00  0.00     0.279 A 
HETATM    8  C   UNL     1      41.473 -11.136   6.444  1.00  0.00     0.028 A 
HETATM    9  N   UNL     1      39.878  -9.643   7.198  1.00  0.00    -0.316 N 
HETATM   10  O   UNL     1      37.940 -10.606   6.298  1.00  0.00    -0.265 OA
HETATM   11  C   UNL     1      39.326  -8.471   7.823  1.00  0.00     0.159 C 
HETATM   12  C   UNL     1      41.242  -9.960   7.166  1.00  0.00     0.050 A 
HETATM   13  C   UNL     1      42.286  -9.240   7.722  1.00  0.00     0.032 A 
HETATM   14  C   UNL     1      43.587  -9.714   7.529  1.00  0.00     0.021 A 
HETATM   15  C   UNL     1      43.816 -10.875   6.775  1.00  0.00     0.012 A 
HETATM   16  C   UNL     1      42.759 -11.594   6.210  1.00  0.00     0.035 A 
HETATM   17 BR   UNL     1      45.590 -11.474   6.506  1.00  0.00    -0.051 Br
ENDBRANCH   1   5
BRANCH   2  18
HETATM   18  C   UNL     1      41.743 -15.793   5.481  1.00  0.00     0.068 A 
HETATM   19  C   UNL     1      42.452 -16.428   6.507  1.00  0.00     0.081 A 
HETATM   20  C   UNL     1      43.362 -17.437   6.210  1.00  0.00     0.039 A 
HETATM   21  C   UNL     1      43.595 -17.790   4.879  1.00  0.00     0.026 A 
HETATM   22  C   UNL     1      42.975 -17.097   3.836  1.00  0.00     0.006 A 
HETATM   23  C   UNL     1      42.017 -16.127   4.145  1.00  0.00     0.043 A 
BRANCH  19  24
HETATM   24  O   UNL     1      42.278 -16.130   7.832  1.00  0.00    -0.360 OA
HETATM   25  H   UNL     1      41.737 -15.310   7.890  1.00  0.00     0.217 HD
ENDBRANCH  19  24
BRANCH  22  26
HETATM   26  N   UNL     1      43.132 -17.529   2.512  1.00  0.00    -0.303 NA
HETATM   27  H   UNL     1      43.300 -16.772   1.855  1.00  0.00     0.124 HD
HETATM   28  H   UNL     1      42.397 -18.149   2.186  1.00  0.00     0.124 HD
ENDBRANCH  22  26
ENDBRANCH   2  18
TORSDOF 4
ENDMDL
MODEL 7
REMARK VINA RESULT:      -7.1      2.895      3.803
REMARK  4 active torsions:
REMARK  status: ('A' for Active; 'I' for Inactive)
REMARK    1  A    between atoms: N_6  and  N_7 
REMARK       I    between atoms: N_7  and  C_8 
REMARK    2  A    between atoms: C_8  and  C_9 
REMARK    3  A    between atoms: C_10  and  O_11 
REMARK    4  A    between atoms: C_14  and  N_15 
ROOT
HETATM    1  N   UNL     1      41.347 -13.700   0.455  1.00  0.00    -0.242 N 
HETATM    2  C   UNL     1      40.483 -13.660  -0.627  1.00  0.00     0.274 C 
HETATM    3  O   UNL     1      39.691 -14.541  -0.951  1.00  0.00    -0.266 OA
HETATM    4  H   UNL     1      41.946 -12.915   0.669  1.00  0.00     0.192 HD
ENDROOT
BRANCH   1   5
HETATM    5  N   UNL     1      41.482 -14.835   1.187  1.00  0.00    -0.166 NA
HETATM    6  C   UNL     1      41.212 -14.804   2.454  1.00  0.00     0.157 A 
HETATM    7  C   UNL     1      41.529 -16.006   3.365  1.00  0.00     0.279 A 
HETATM    8  C   UNL     1      40.603 -13.787   3.325  1.00  0.00     0.028 A 
HETATM    9  N   UNL     1      41.167 -15.604   4.637  1.00  0.00    -0.316 N 
HETATM   10  O   UNL     1      42.014 -17.056   3.003  1.00  0.00    -0.265 OA
HETATM   11  C   UNL     1      41.279 -16.430   5.809  1.00  0.00     0.159 C 
HETATM   12  C   UNL     1      40.619 -14.316   4.621  1.00  0.00     0.050 A 
HETATM   13  C   UNL     1      40.108 -13.605   5.695  1.00  0.00     0.032 A 
HETATM   14  C   UNL     1      39.560 -12.343   5.447  1.00  0.00     0.021 A 
HETATM   15  C   UNL     1      39.515 -11.833   4.141  1.00  0.00     0.012 A 
HETATM   16  C   UNL     1      40.025 -12.556   3.060  1.00  0.00     0.035 A 
HETATM   17 BR   UNL     1      38.739 -10.135   3.833  1.00  0.00    -0.051 Br
ENDBRANCH   1   5
BRANCH   2  18
HETATM   18  C   UNL     1      40.454 -12.377  -1.376  1.00  0.00     0.068 A 
HETATM   19  C   UNL     1      40.903 -12.351  -2.702  1.00  0.00     0.081 A 
HETATM   20  C   UNL     1      40.774 -11.195  -3.463  1.00  0.00     0.039 A 
HETATM   21  C   UNL     1      40.229 -10.044  -2.890  1.00  0.00     0.026 A 
HETATM   22  C   UNL     1      39.871 -10.018  -1.539  1.00  0.00     0.006 A 
HETATM   23  C   UNL     1      39.947 -11.202  -0.798  1.00  0.00     0.043 A 
BRANCH  19  24
HETATM   24  O   UNL     1      41.452 -13.439  -3.326  1.00  0.00    -0.360 OA
HETATM   25  H   UNL     1      40.811 -14.183  -3.258  1.00  0.00     0.217 HD
ENDBRANCH  19  24
BRANCH  22  26
HETATM   26  N   UNL     1      39.227  -8.897  -1.002  1.00  0.00    -0.303 NA
HETATM   27  H   UNL     1      38.221  -9.013  -0.907  1.00  0.00     0.124 HD
HETATM   28  H   UNL     1      39.459  -8.022  -1.461  1.00  0.00     0.124 HD
ENDBRANCH  22  26
ENDBRANCH   2  18
TORSDOF 4
ENDMDL
MODEL 8
REMARK VINA RESULT:      -6.8      4.176      6.799
REMARK  4 active torsions:
REMARK  status: ('A' for Active; 'I' for Inactive)
REMARK    1  A    between atoms: N_6  and  N_7 
REMARK       I    between atoms: N_7  and  C_8 
REMARK    2  A    between atoms: C_8  and  C_9 
REMARK    3  A    between atoms: C_10  and  O_11 
REMARK    4  A    between atoms: C_14  and  N_15 
ROOT
HETATM    1  N   UNL     1      40.611 -13.231   4.543  1.00  0.00    -0.242 N 
HETATM    2  C   UNL     1      40.424 -13.929   3.360  1.00  0.00     0.274 C 
HETATM    3  O   UNL     1      39.577 -13.684   2.505  1.00  0.00    -0.266 OA
HETATM    4  H   UNL     1      41.355 -13.480   5.179  1.00  0.00     0.192 HD
ENDROOT
BRANCH   1   5
HETATM    5  N   UNL     1      39.734 -12.267   4.919  1.00  0.00    -0.166 NA
HETATM    6  C   UNL     1      40.125 -11.345   5.742  1.00  0.00     0.157 A 
HETATM    7  C   UNL     1      39.122 -10.344   6.349  1.00  0.00     0.279 A 
HETATM    8  C   UNL     1      41.440 -10.982   6.291  1.00  0.00     0.028 A 
HETATM    9  N   UNL     1      39.868  -9.559   7.209  1.00  0.00    -0.316 N 
HETATM   10  O   UNL     1      37.935 -10.303   6.112  1.00  0.00    -0.265 OA
HETATM   11  C   UNL     1      39.332  -8.472   7.984  1.00  0.00     0.159 C 
HETATM   12  C   UNL     1      41.221  -9.919   7.174  1.00  0.00     0.050 A 
HETATM   13  C   UNL     1      42.267  -9.330   7.866  1.00  0.00     0.032 A 
HETATM   14  C   UNL     1      43.558  -9.819   7.646  1.00  0.00     0.021 A 
HETATM   15  C   UNL     1      43.776 -10.862   6.733  1.00  0.00     0.012 A 
HETATM   16  C   UNL     1      42.719 -11.449   6.033  1.00  0.00     0.035 A 
HETATM   17 BR   UNL     1      45.539 -11.482   6.436  1.00  0.00    -0.051 Br
ENDBRANCH   1   5
BRANCH   2  18
HETATM   18  C   UNL     1      41.426 -14.988   3.077  1.00  0.00     0.068 A 
HETATM   19  C   UNL     1      42.020 -15.043   1.810  1.00  0.00     0.081 A 
HETATM   20  C   UNL     1      43.047 -15.945   1.555  1.00  0.00     0.039 A 
HETATM   21  C   UNL     1      43.461 -16.825   2.557  1.00  0.00     0.026 A 
HETATM   22  C   UNL     1      42.811 -16.858   3.794  1.00  0.00     0.006 A 
HETATM   23  C   UNL     1      41.822 -15.907   4.062  1.00  0.00     0.043 A 
BRANCH  19  24
HETATM   24  O   UNL     1      41.662 -14.215   0.780  1.00  0.00    -0.360 OA
HETATM   25  H   UNL     1      41.097 -14.730   0.159  1.00  0.00     0.217 HD
ENDBRANCH  19  24
BRANCH  22  26
HETATM   26  N   UNL     1      43.302 -17.667   4.827  1.00  0.00    -0.303 NA
HETATM   27  H   UNL     1      42.576 -18.172   5.328  1.00  0.00     0.124 HD
HETATM   28  H   UNL     1      43.934 -17.192   5.465  1.00  0.00     0.124 HD
ENDBRANCH  22  26
ENDBRANCH   2  18
TORSDOF 4
ENDMDL
MODEL 9
REMARK VINA RESULT:      -6.7      7.107      8.900
REMARK  4 active torsions:
REMARK  status: ('A' for Active; 'I' for Inactive)
REMARK    1  A    between atoms: N_6  and  N_7 
REMARK       I    between atoms: N_7  and  C_8 
REMARK    2  A    between atoms: C_8  and  C_9 
REMARK    3  A    between atoms: C_10  and  O_11 
REMARK    4  A    between atoms: C_14  and  N_15 
ROOT
HETATM    1  N   UNL     1      40.331  -9.742   7.793  1.00  0.00    -0.242 N 
HETATM    2  C   UNL     1      39.330 -10.056   8.698  1.00  0.00     0.274 C 
HETATM    3  O   UNL     1      38.541 -10.993   8.606  1.00  0.00    -0.266 OA
HETATM    4  H   UNL     1      40.959  -8.969   7.962  1.00  0.00     0.192 HD
ENDROOT
BRANCH   1   5
HETATM    5  N   UNL     1      40.422 -10.402   6.611  1.00  0.00    -0.166 NA
HETATM    6  C   UNL     1      41.591 -10.746   6.168  1.00  0.00     0.157 A 
HETATM    7  C   UNL     1      41.767 -11.322   4.750  1.00  0.00     0.279 A 
HETATM    8  C   UNL     1      42.936 -10.718   6.763  1.00  0.00     0.028 A 
HETATM    9  N   UNL     1      43.128 -11.515   4.602  1.00  0.00    -0.316 N 
HETATM   10  O   UNL     1      40.874 -11.527   3.956  1.00  0.00    -0.265 OA
HETATM   11  C   UNL     1      43.745 -12.060   3.422  1.00  0.00     0.159 C 
HETATM   12  C   UNL     1      43.815 -11.174   5.774  1.00  0.00     0.050 A 
HETATM   13  C   UNL     1      45.176 -11.276   6.011  1.00  0.00     0.032 A 
HETATM   14  C   UNL     1      45.650 -10.924   7.278  1.00  0.00     0.021 A 
HETATM   15  C   UNL     1      44.760 -10.500   8.277  1.00  0.00     0.012 A 
HETATM   16  C   UNL     1      43.388 -10.405   8.035  1.00  0.00     0.035 A 
HETATM   17 BR   UNL     1      45.430 -10.059   9.991  1.00  0.00    -0.051 Br
ENDBRANCH   1   5
BRANCH   2  18
HETATM   18  C   UNL     1      39.307  -9.236   9.937  1.00  0.00     0.068 A 
HETATM   19  C   UNL     1      38.722  -7.964   9.902  1.00  0.00     0.081 A 
HETATM   20  C   UNL     1      38.578  -7.227  11.071  1.00  0.00     0.039 A 
HETATM   21  C   UNL     1      39.054  -7.742  12.279  1.00  0.00     0.026 A 
HETATM   22  C   UNL     1      39.734  -8.962  12.318  1.00  0.00     0.006 A 
HETATM   23  C   UNL     1      39.820  -9.725  11.149  1.00  0.00     0.043 A 
BRANCH  19  24
HETATM   24  O   UNL     1      38.239  -7.395   8.755  1.00  0.00    -0.360 OA
HETATM   25  H   UNL     1      38.947  -7.440   8.072  1.00  0.00     0.217 HD
ENDBRANCH  19  24
BRANCH  22  26
HETATM   26  N   UNL     1      40.111  -9.520  13.547  1.00  0.00    -0.303 NA
HETATM   27  H   UNL     1      40.584 -10.415  13.458  1.00  0.00     0.124 HD
HETATM   28  H   UNL     1      39.365  -9.559  14.234  1.00  0.00     0.124 HD
ENDBRANCH  22  26
ENDBRANCH   2  18
TORSDOF 4
ENDMDL
MODEL 10
REMARK VINA RESULT:      -6.6     14.797     16.395
REMARK  4 active torsions:
REMARK  status: ('A' for Active; 'I' for Inactive)
REMARK    1  A    between atoms: N_6  and  N_7 
REMARK       I    between atoms: N_7  and  C_8 
REMARK    2  A    between atoms: C_8  and  C_9 
REMARK    3  A    between atoms: C_10  and  O_11 
REMARK    4  A    between atoms: C_14  and  N_15 
ROOT
HETATM    1  N   UNL     1      43.742 -29.062   1.534  1.00  0.00    -0.242 N 
HETATM    2  C   UNL     1      45.120 -29.181   1.603  1.00  0.00     0.274 C 
HETATM    3  O   UNL     1      45.756 -29.698   2.518  1.00  0.00    -0.266 OA
HETATM    4  H   UNL     1      43.297 -28.650   0.727  1.00  0.00     0.192 HD
ENDROOT
BRANCH   1   5
HETATM    5  N   UNL     1      42.968 -29.401   2.596  1.00  0.00    -0.166 NA
HETATM    6  C   UNL     1      42.333 -30.532   2.579  1.00  0.00     0.157 A 
HETATM    7  C   UNL     1      41.297 -30.878   3.665  1.00  0.00     0.279 A 
HETATM    8  C   UNL     1      42.375 -31.691   1.675  1.00  0.00     0.028 A 
HETATM    9  N   UNL     1      40.789 -32.112   3.302  1.00  0.00    -0.316 N 
HETATM   10  O   UNL     1      41.003 -30.178   4.609  1.00  0.00    -0.265 OA
HETATM   11  C   UNL     1      39.792 -32.829   4.052  1.00  0.00     0.159 C 
HETATM   12  C   UNL     1      41.418 -32.596   2.149  1.00  0.00     0.050 A 
HETATM   13  C   UNL     1      41.202 -33.811   1.519  1.00  0.00     0.032 A 
HETATM   14  C   UNL     1      41.980 -34.118   0.400  1.00  0.00     0.021 A 
HETATM   15  C   UNL     1      42.963 -33.222  -0.050  1.00  0.00     0.012 A 
HETATM   16  C   UNL     1      43.181 -32.001   0.592  1.00  0.00     0.035 A 
HETATM   17 BR   UNL     1      44.020 -33.681  -1.551  1.00  0.00    -0.051 Br
ENDBRANCH   1   5
BRANCH   2  18
HETATM   18  C   UNL     1      45.862 -28.739   0.393  1.00  0.00     0.068 A 
HETATM   19  C   UNL     1      47.092 -28.088   0.549  1.00  0.00     0.081 A 
HETATM   20  C   UNL     1      47.863 -27.773  -0.564  1.00  0.00     0.039 A 
HETATM   21  C   UNL     1      47.390 -28.073  -1.844  1.00  0.00     0.026 A 
HETATM   22  C   UNL     1      46.120 -28.626  -2.025  1.00  0.00     0.006 A 
HETATM   23  C   UNL     1      45.378 -28.996  -0.899  1.00  0.00     0.043 A 
BRANCH  19  24
HETATM   24  O   UNL     1      47.615 -27.760   1.770  1.00  0.00    -0.360 OA
HETATM   25  H   UNL     1      48.411 -28.321   1.920  1.00  0.00     0.217 HD
ENDBRANCH  19  24
BRANCH  22  26
HETATM   26  N   UNL     1      45.699 -29.022  -3.301  1.00  0.00    -0.303 NA
HETATM   27  H   UNL     1      45.958 -29.977  -3.536  1.00  0.00     0.124 HD
HETATM   28  H   UNL     1      45.947 -28.375  -4.042  1.00  0.00     0.124 HD
ENDBRANCH  22  26
ENDBRANCH   2  18
TORSDOF 4
ENDMDL
