MODEL 1
REMARK VINA RESULT:      -9.7      0.000      0.000
REMARK  8 active torsions:
REMARK  status: ('A' for Active; 'I' for Inactive)
REMARK    1  A    between atoms: C_4  and  S_5 
REMARK    2  A    between atoms: S_5  and  C_6 
REMARK    3  A    between atoms: C_6  and  C_7 
REMARK       I    between atoms: C_7  and  N_8 
REMARK    4  A    between atoms: N_8  and  C_9 
REMARK    5  A    between atoms: C_20  and  C_21 
REMARK    6  A    between atoms: C_27  and  C_28 
REMARK       I    between atoms: C_28  and  N_29 
REMARK    7  A    between atoms: N_29  and  C_30 
REMARK    8  A    between atoms: C_31  and  O_32 
ROOT
HETATM    1  C   UNL     1      41.671  -9.900   3.588  1.00  0.00     0.069 C 
HETATM    2  C   UNL     1      42.014 -11.231   4.208  1.00  0.00     0.019 C 
HETATM    3  N   UNL     1      43.180 -11.272   4.962  1.00  0.00    -0.353 N 
HETATM    4  C   UNL     1      43.466 -12.271   5.881  1.00  0.00     0.088 C 
HETATM    5  C   UNL     1      42.744 -13.420   5.858  1.00  0.00     0.069 C 
HETATM    6  C   UNL     1      42.868 -14.435   6.851  1.00  0.00     0.099 C 
HETATM    7  N   UNL     1      42.966 -15.261   7.660  1.00  0.00    -0.192 NA
HETATM    8  C   UNL     1      41.706 -13.648   4.754  1.00  0.00     0.106 C 
HETATM    9  C   UNL     1      41.268 -12.353   4.090  1.00  0.00     0.046 C 
HETATM   10  H   UNL     1      43.619 -10.378   5.173  1.00  0.00     0.166 HD
ENDROOT
BRANCH   4  11
HETATM   11  S   UNL     1      44.699 -11.981   7.095  1.00  0.00    -0.102 SA
BRANCH  11  12
HETATM   12  C   UNL     1      44.203 -10.312   7.656  1.00  0.00     0.184 C 
BRANCH  12  13
HETATM   13  C   UNL     1      44.175 -10.207   9.177  1.00  0.00     0.231 C 
HETATM   14  N   UNL     1      43.129  -9.447   9.670  1.00  0.00    -0.327 N 
HETATM   15  H   UNL     1      42.582  -8.954   8.971  1.00  0.00     0.169 HD
HETATM   16  O   UNL     1      44.995 -10.830   9.849  1.00  0.00    -0.272 OA
BRANCH  14  17
HETATM   17  C   UNL     1      42.802  -9.191  11.015  1.00  0.00     0.034 A 
HETATM   18  C   UNL     1      43.574  -8.403  11.871  1.00  0.00     0.031 A 
HETATM   19  C   UNL     1      43.174  -8.190  13.195  1.00  0.00     0.026 A 
HETATM   20  C   UNL     1      41.999  -8.767  13.667  1.00  0.00     0.034 A 
HETATM   21 CL   UNL     1      41.505  -8.499  15.293  1.00  0.00    -0.084 Cl
HETATM   22  C   UNL     1      41.222  -9.560  12.828  1.00  0.00     0.026 A 
HETATM   23  C   UNL     1      41.625  -9.774  11.507  1.00  0.00     0.031 A 
ENDBRANCH  14  17
ENDBRANCH  12  13
ENDBRANCH  11  12
ENDBRANCH   4  11
BRANCH   8  24
HETATM   24  C   UNL     1      42.243 -14.693   3.764  1.00  0.00    -0.044 A 
HETATM   25  C   UNL     1      43.090 -14.291   2.715  1.00  0.00     0.008 A 
HETATM   26  C   UNL     1      43.574 -15.218   1.792  1.00  0.00     0.001 A 
HETATM   27  C   UNL     1      43.219 -16.560   1.896  1.00  0.00     0.000 A 
HETATM   28  C   UNL     1      42.369 -16.974   2.916  1.00  0.00     0.001 A 
HETATM   29  C   UNL     1      41.874 -16.047   3.836  1.00  0.00     0.008 A 
ENDBRANCH   8  24
BRANCH   9  30
HETATM   30  C   UNL     1      39.927 -12.300   3.451  1.00  0.00     0.255 C 
HETATM   31  N   UNL     1      39.962 -11.951   2.129  1.00  0.00    -0.321 N 
HETATM   32  H   UNL     1      39.511 -11.068   1.913  1.00  0.00     0.169 HD
HETATM   33  O   UNL     1      38.899 -12.393   4.110  1.00  0.00    -0.268 OA
BRANCH  31  34
HETATM   34  C   UNL     1      39.736 -12.877   1.076  1.00  0.00     0.068 A 
HETATM   35  C   UNL     1      39.282 -12.372  -0.154  1.00  0.00     0.095 A 
HETATM   36  C   UNL     1      39.170 -13.219  -1.260  1.00  0.00     0.039 A 
HETATM   37  C   UNL     1      39.449 -14.580  -1.127  1.00  0.00     0.003 A 
HETATM   38  C   UNL     1      39.824 -15.097   0.111  1.00  0.00     0.002 A 
HETATM   39  C   UNL     1      39.963 -14.250   1.211  1.00  0.00     0.032 A 
BRANCH  35  40
HETATM   40  O   UNL     1      39.016 -11.025  -0.219  1.00  0.00    -0.354 OA
HETATM   41  C   UNL     1      39.451 -10.427  -1.439  1.00  0.00     0.210 C 
ENDBRANCH  35  40
ENDBRANCH  31  34
ENDBRANCH   9  30
TORSDOF 8
ENDMDL
MODEL 2
REMARK VINA RESULT:      -9.6      4.125      5.253
REMARK  8 active torsions:
REMARK  status: ('A' for Active; 'I' for Inactive)
REMARK    1  A    between atoms: C_4  and  S_5 
REMARK    2  A    between atoms: S_5  and  C_6 
REMARK    3  A    between atoms: C_6  and  C_7 
REMARK       I    between atoms: C_7  and  N_8 
REMARK    4  A    between atoms: N_8  and  C_9 
REMARK    5  A    between atoms: C_20  and  C_21 
REMARK    6  A    between atoms: C_27  and  C_28 
REMARK       I    between atoms: C_28  and  N_29 
REMARK    7  A    between atoms: N_29  and  C_30 
REMARK    8  A    between atoms: C_31  and  O_32 
ROOT
HETATM    1  C   UNL     1      40.033  -8.871   1.599  1.00  0.00     0.069 C 
HETATM    2  C   UNL     1      40.091 -10.100   2.469  1.00  0.00     0.019 C 
HETATM    3  N   UNL     1      40.917 -10.022   3.583  1.00  0.00    -0.353 N 
HETATM    4  C   UNL     1      40.829 -10.883   4.667  1.00  0.00     0.088 C 
HETATM    5  C   UNL     1      40.121 -12.034   4.544  1.00  0.00     0.069 C 
HETATM    6  C   UNL     1      39.855 -12.903   5.642  1.00  0.00     0.099 C 
HETATM    7  N   UNL     1      39.635 -13.610   6.536  1.00  0.00    -0.192 NA
HETATM    8  C   UNL     1      39.528 -12.425   3.186  1.00  0.00     0.106 C 
HETATM    9  C   UNL     1      39.394 -11.239   2.246  1.00  0.00     0.046 C 
HETATM   10  H   UNL     1      41.285  -9.102   3.814  1.00  0.00     0.166 HD
ENDROOT
BRANCH   4  11
HETATM   11  S   UNL     1      41.569 -10.413   6.187  1.00  0.00    -0.102 SA
BRANCH  11  12
HETATM   12  C   UNL     1      43.270 -11.025   5.914  1.00  0.00     0.184 C 
BRANCH  12  13
HETATM   13  C   UNL     1      43.466 -12.429   6.473  1.00  0.00     0.231 C 
HETATM   14  N   UNL     1      43.192 -13.439   5.568  1.00  0.00    -0.327 N 
HETATM   15  H   UNL     1      42.781 -13.137   4.690  1.00  0.00     0.169 HD
HETATM   16  O   UNL     1      43.904 -12.579   7.612  1.00  0.00    -0.272 OA
BRANCH  14  17
HETATM   17  C   UNL     1      43.312 -14.830   5.757  1.00  0.00     0.034 A 
HETATM   18  C   UNL     1      44.335 -15.432   6.492  1.00  0.00     0.031 A 
HETATM   19  C   UNL     1      44.380 -16.823   6.640  1.00  0.00     0.026 A 
HETATM   20  C   UNL     1      43.400 -17.616   6.051  1.00  0.00     0.034 A 
HETATM   21 CL   UNL     1      43.452 -19.325   6.239  1.00  0.00    -0.084 Cl
HETATM   22  C   UNL     1      42.377 -17.031   5.310  1.00  0.00     0.026 A 
HETATM   23  C   UNL     1      42.337 -15.641   5.161  1.00  0.00     0.031 A 
ENDBRANCH  14  17
ENDBRANCH  12  13
ENDBRANCH  11  12
ENDBRANCH   4  11
BRANCH   8  24
HETATM   24  C   UNL     1      40.341 -13.587   2.596  1.00  0.00    -0.044 A 
HETATM   25  C   UNL     1      41.687 -13.387   2.239  1.00  0.00     0.008 A 
HETATM   26  C   UNL     1      42.440 -14.422   1.682  1.00  0.00     0.001 A 
HETATM   27  C   UNL     1      41.863 -15.670   1.467  1.00  0.00     0.000 A 
HETATM   28  C   UNL     1      40.528 -15.882   1.797  1.00  0.00     0.001 A 
HETATM   29  C   UNL     1      39.768 -14.846   2.345  1.00  0.00     0.008 A 
ENDBRANCH   8  24
BRANCH   9  30
HETATM   30  C   UNL     1      38.364 -11.292   1.175  1.00  0.00     0.255 C 
HETATM   31  N   UNL     1      38.884 -11.241  -0.088  1.00  0.00    -0.321 N 
HETATM   32  H   UNL     1      38.624 -10.415  -0.619  1.00  0.00     0.169 HD
HETATM   33  O   UNL     1      37.170 -11.212   1.432  1.00  0.00    -0.268 OA
BRANCH  31  34
HETATM   34  C   UNL     1      38.938 -12.368  -0.951  1.00  0.00     0.068 A 
HETATM   35  C   UNL     1      37.904 -12.527  -1.889  1.00  0.00     0.095 A 
HETATM   36  C   UNL     1      37.977 -13.542  -2.847  1.00  0.00     0.039 A 
HETATM   37  C   UNL     1      39.046 -14.438  -2.833  1.00  0.00     0.003 A 
HETATM   38  C   UNL     1      40.033 -14.330  -1.855  1.00  0.00     0.002 A 
HETATM   39  C   UNL     1      39.978 -13.302  -0.913  1.00  0.00     0.032 A 
BRANCH  35  40
HETATM   40  O   UNL     1      36.874 -11.617  -1.845  1.00  0.00    -0.354 OA
HETATM   41  C   UNL     1      36.827 -10.770  -2.993  1.00  0.00     0.210 C 
ENDBRANCH  35  40
ENDBRANCH  31  34
ENDBRANCH   9  30
TORSDOF 8
ENDMDL
MODEL 3
REMARK VINA RESULT:      -9.2      4.665     10.338
REMARK  8 active torsions:
REMARK  status: ('A' for Active; 'I' for Inactive)
REMARK    1  A    between atoms: C_4  and  S_5 
REMARK    2  A    between atoms: S_5  and  C_6 
REMARK    3  A    between atoms: C_6  and  C_7 
REMARK       I    between atoms: C_7  and  N_8 
REMARK    4  A    between atoms: N_8  and  C_9 
REMARK    5  A    between atoms: C_20  and  C_21 
REMARK    6  A    between atoms: C_27  and  C_28 
REMARK       I    between atoms: C_28  and  N_29 
REMARK    7  A    between atoms: N_29  and  C_30 
REMARK    8  A    between atoms: C_31  and  O_32 
ROOT
HETATM    1  C   UNL     1      39.512 -10.091   7.006  1.00  0.00     0.069 C 
HETATM    2  C   UNL     1      40.906  -9.847   7.522  1.00  0.00     0.019 C 
HETATM    3  N   UNL     1      41.856 -10.808   7.196  1.00  0.00    -0.353 N 
HETATM    4  C   UNL     1      43.224 -10.590   7.264  1.00  0.00     0.088 C 
HETATM    5  C   UNL     1      43.691  -9.515   7.948  1.00  0.00     0.069 C 
HETATM    6  C   UNL     1      45.064  -9.132   7.948  1.00  0.00     0.099 C 
HETATM    7  N   UNL     1      46.182  -8.817   7.948  1.00  0.00    -0.192 NA
HETATM    8  C   UNL     1      42.719  -8.624   8.729  1.00  0.00     0.106 C 
HETATM    9  C   UNL     1      41.283  -8.772   8.252  1.00  0.00     0.046 C 
HETATM   10  H   UNL     1      41.582 -11.504   6.506  1.00  0.00     0.166 HD
ENDROOT
BRANCH   4  11
HETATM   11  S   UNL     1      44.300 -11.668   6.393  1.00  0.00    -0.102 SA
BRANCH  11  12
HETATM   12  C   UNL     1      43.486 -13.270   6.734  1.00  0.00     0.184 C 
BRANCH  12  13
HETATM   13  C   UNL     1      43.369 -14.128   5.479  1.00  0.00     0.231 C 
HETATM   14  N   UNL     1      43.634 -15.470   5.688  1.00  0.00    -0.327 N 
HETATM   15  H   UNL     1      43.988 -15.706   6.610  1.00  0.00     0.169 HD
HETATM   16  O   UNL     1      42.996 -13.621   4.424  1.00  0.00    -0.272 OA
BRANCH  14  17
HETATM   17  C   UNL     1      43.573 -16.521   4.753  1.00  0.00     0.034 A 
HETATM   18  C   UNL     1      42.819 -16.479   3.578  1.00  0.00     0.031 A 
HETATM   19  C   UNL     1      42.818 -17.565   2.695  1.00  0.00     0.026 A 
HETATM   20  C   UNL     1      43.573 -18.697   2.986  1.00  0.00     0.034 A 
HETATM   21 CL   UNL     1      43.577 -20.028   1.896  1.00  0.00    -0.084 Cl
HETATM   22  C   UNL     1      44.325 -18.757   4.155  1.00  0.00     0.026 A 
HETATM   23  C   UNL     1      44.321 -17.672   5.038  1.00  0.00     0.031 A 
ENDBRANCH  14  17
ENDBRANCH  12  13
ENDBRANCH  11  12
ENDBRANCH   4  11
BRANCH   8  24
HETATM   24  C   UNL     1      42.895  -8.881  10.233  1.00  0.00    -0.044 A 
HETATM   25  C   UNL     1      42.848 -10.197  10.726  1.00  0.00     0.008 A 
HETATM   26  C   UNL     1      42.985 -10.454  12.091  1.00  0.00     0.001 A 
HETATM   27  C   UNL     1      43.167  -9.404  12.986  1.00  0.00     0.000 A 
HETATM   28  C   UNL     1      43.199  -8.093  12.519  1.00  0.00     0.001 A 
HETATM   29  C   UNL     1      43.052  -7.832  11.155  1.00  0.00     0.008 A 
ENDBRANCH   8  24
BRANCH   9  30
HETATM   30  C   UNL     1      40.344  -7.639   8.461  1.00  0.00     0.255 C 
HETATM   31  N   UNL     1      39.390  -7.885   9.409  1.00  0.00    -0.321 N 
HETATM   32  H   UNL     1      38.438  -7.910   9.055  1.00  0.00     0.169 HD
HETATM   33  O   UNL     1      40.342  -6.665   7.720  1.00  0.00    -0.268 OA
BRANCH  31  34
HETATM   34  C   UNL     1      39.407  -7.290  10.699  1.00  0.00     0.068 A 
HETATM   35  C   UNL     1      39.479  -8.143  11.813  1.00  0.00     0.095 A 
HETATM   36  C   UNL     1      39.630  -7.609  13.096  1.00  0.00     0.039 A 
HETATM   37  C   UNL     1      39.647  -6.225  13.277  1.00  0.00     0.003 A 
HETATM   38  C   UNL     1      39.497  -5.377  12.182  1.00  0.00     0.002 A 
HETATM   39  C   UNL     1      39.372  -5.907  10.896  1.00  0.00     0.032 A 
BRANCH  35  40
HETATM   40  O   UNL     1      39.448  -9.496  11.570  1.00  0.00    -0.354 OA
HETATM   41  C   UNL     1      39.463 -10.279  12.763  1.00  0.00     0.210 C 
ENDBRANCH  35  40
ENDBRANCH  31  34
ENDBRANCH   9  30
TORSDOF 8
ENDMDL
MODEL 4
REMARK VINA RESULT:      -9.2      4.410     10.373
REMARK  8 active torsions:
REMARK  status: ('A' for Active; 'I' for Inactive)
REMARK    1  A    between atoms: C_4  and  S_5 
REMARK    2  A    between atoms: S_5  and  C_6 
REMARK    3  A    between atoms: C_6  and  C_7 
REMARK       I    between atoms: C_7  and  N_8 
REMARK    4  A    between atoms: N_8  and  C_9 
REMARK    5  A    between atoms: C_20  and  C_21 
REMARK    6  A    between atoms: C_27  and  C_28 
REMARK       I    between atoms: C_28  and  N_29 
REMARK    7  A    between atoms: N_29  and  C_30 
REMARK    8  A    between atoms: C_31  and  O_32 
ROOT
HETATM    1  C   UNL     1      39.994  -8.691   6.197  1.00  0.00     0.069 C 
HETATM    2  C   UNL     1      41.209  -9.128   6.973  1.00  0.00     0.019 C 
HETATM    3  N   UNL     1      41.558 -10.468   6.860  1.00  0.00    -0.353 N 
HETATM    4  C   UNL     1      42.810 -10.967   7.191  1.00  0.00     0.088 C 
HETATM    5  C   UNL     1      43.653 -10.204   7.931  1.00  0.00     0.069 C 
HETATM    6  C   UNL     1      45.005 -10.572   8.193  1.00  0.00     0.099 C 
HETATM    7  N   UNL     1      46.107 -10.869   8.406  1.00  0.00    -0.192 NA
HETATM    8  C   UNL     1      43.177  -8.857   8.487  1.00  0.00     0.106 C 
HETATM    9  C   UNL     1      41.970  -8.314   7.740  1.00  0.00     0.046 C 
HETATM   10  H   UNL     1      41.075 -11.007   6.144  1.00  0.00     0.166 HD
ENDROOT
BRANCH   4  11
HETATM   11  S   UNL     1      43.289 -12.537   6.572  1.00  0.00    -0.102 SA
BRANCH  11  12
HETATM   12  C   UNL     1      41.913 -12.852   5.409  1.00  0.00     0.184 C 
BRANCH  12  13
HETATM   13  C   UNL     1      41.822 -14.323   5.021  1.00  0.00     0.231 C 
HETATM   14  N   UNL     1      42.946 -14.806   4.374  1.00  0.00    -0.327 N 
HETATM   15  H   UNL     1      43.641 -14.107   4.129  1.00  0.00     0.169 HD
HETATM   16  O   UNL     1      40.839 -14.983   5.349  1.00  0.00    -0.272 OA
BRANCH  14  17
HETATM   17  C   UNL     1      43.193 -16.118   3.926  1.00  0.00     0.034 A 
HETATM   18  C   UNL     1      43.843 -17.093   4.685  1.00  0.00     0.031 A 
HETATM   19  C   UNL     1      44.043 -18.379   4.169  1.00  0.00     0.026 A 
HETATM   20  C   UNL     1      43.591 -18.692   2.891  1.00  0.00     0.034 A 
HETATM   21 CL   UNL     1      43.831 -20.275   2.261  1.00  0.00    -0.084 Cl
HETATM   22  C   UNL     1      42.947 -17.730   2.120  1.00  0.00     0.026 A 
HETATM   23  C   UNL     1      42.751 -16.445   2.636  1.00  0.00     0.031 A 
ENDBRANCH  14  17
ENDBRANCH  12  13
ENDBRANCH  11  12
ENDBRANCH   4  11
BRANCH   8  24
HETATM   24  C   UNL     1      42.955  -8.985  10.001  1.00  0.00    -0.044 A 
HETATM   25  C   UNL     1      41.889  -9.763  10.486  1.00  0.00     0.008 A 
HETATM   26  C   UNL     1      41.654  -9.879  11.857  1.00  0.00     0.001 A 
HETATM   27  C   UNL     1      42.475  -9.217  12.766  1.00  0.00     0.000 A 
HETATM   28  C   UNL     1      43.525  -8.429  12.304  1.00  0.00     0.001 A 
HETATM   29  C   UNL     1      43.756  -8.303  10.932  1.00  0.00     0.008 A 
ENDBRANCH   8  24
BRANCH   9  30
HETATM   30  C   UNL     1      41.738  -6.845   7.736  1.00  0.00     0.255 C 
HETATM   31  N   UNL     1      40.850  -6.428   8.688  1.00  0.00    -0.321 N 
HETATM   32  H   UNL     1      39.993  -6.025   8.319  1.00  0.00     0.169 HD
HETATM   33  O   UNL     1      42.177  -6.130   6.845  1.00  0.00    -0.268 OA
BRANCH  31  34
HETATM   34  C   UNL     1      41.241  -5.731   9.863  1.00  0.00     0.068 A 
HETATM   35  C   UNL     1      40.637  -6.101  11.076  1.00  0.00     0.095 A 
HETATM   36  C   UNL     1      41.079  -5.541  12.278  1.00  0.00     0.039 A 
HETATM   37  C   UNL     1      42.078  -4.566  12.266  1.00  0.00     0.003 A 
HETATM   38  C   UNL     1      42.623  -4.141  11.057  1.00  0.00     0.002 A 
HETATM   39  C   UNL     1      42.204  -4.717   9.857  1.00  0.00     0.032 A 
BRANCH  35  40
HETATM   40  O   UNL     1      39.654  -7.059  11.020  1.00  0.00    -0.354 OA
HETATM   41  C   UNL     1      38.417  -6.625  11.584  1.00  0.00     0.210 C 
ENDBRANCH  35  40
ENDBRANCH  31  34
ENDBRANCH   9  30
TORSDOF 8
ENDMDL
MODEL 5
REMARK VINA RESULT:      -9.2      2.325      3.883
REMARK  8 active torsions:
REMARK  status: ('A' for Active; 'I' for Inactive)
REMARK    1  A    between atoms: C_4  and  S_5 
REMARK    2  A    between atoms: S_5  and  C_6 
REMARK    3  A    between atoms: C_6  and  C_7 
REMARK       I    between atoms: C_7  and  N_8 
REMARK    4  A    between atoms: N_8  and  C_9 
REMARK    5  A    between atoms: C_20  and  C_21 
REMARK    6  A    between atoms: C_27  and  C_28 
REMARK       I    between atoms: C_28  and  N_29 
REMARK    7  A    between atoms: N_29  and  C_30 
REMARK    8  A    between atoms: C_31  and  O_32 
ROOT
HETATM    1  C   UNL     1      45.602 -11.316   4.259  1.00  0.00     0.069 C 
HETATM    2  C   UNL     1      44.293 -11.374   5.004  1.00  0.00     0.019 C 
HETATM    3  N   UNL     1      44.308 -10.886   6.305  1.00  0.00    -0.353 N 
HETATM    4  C   UNL     1      43.164 -10.528   7.004  1.00  0.00     0.088 C 
HETATM    5  C   UNL     1      41.953 -10.930   6.545  1.00  0.00     0.069 C 
HETATM    6  C   UNL     1      40.722 -10.490   7.112  1.00  0.00     0.099 C 
HETATM    7  N   UNL     1      39.718 -10.130   7.572  1.00  0.00    -0.192 NA
HETATM    8  C   UNL     1      41.867 -11.865   5.333  1.00  0.00     0.106 C 
HETATM    9  C   UNL     1      43.133 -11.847   4.493  1.00  0.00     0.046 C 
HETATM   10  H   UNL     1      45.144 -10.382   6.593  1.00  0.00     0.166 HD
ENDROOT
BRANCH   4  11
HETATM   11  S   UNL     1      43.320  -9.496   8.415  1.00  0.00    -0.102 SA
BRANCH  11  12
HETATM   12  C   UNL     1      44.313 -10.587   9.496  1.00  0.00     0.184 C 
BRANCH  12  13
HETATM   13  C   UNL     1      43.914 -10.454  10.961  1.00  0.00     0.231 C 
HETATM   14  N   UNL     1      43.223  -9.291  11.253  1.00  0.00    -0.327 N 
HETATM   15  H   UNL     1      43.168  -8.616  10.496  1.00  0.00     0.169 HD
HETATM   16  O   UNL     1      44.151 -11.370  11.745  1.00  0.00    -0.272 OA
BRANCH  14  17
HETATM   17  C   UNL     1      42.683  -8.890  12.490  1.00  0.00     0.034 A 
HETATM   18  C   UNL     1      41.553  -9.468  13.073  1.00  0.00     0.031 A 
HETATM   19  C   UNL     1      41.084  -9.016  14.312  1.00  0.00     0.026 A 
HETATM   20  C   UNL     1      41.746  -7.985  14.972  1.00  0.00     0.034 A 
HETATM   21 CL   UNL     1      41.172  -7.437  16.498  1.00  0.00    -0.084 Cl
HETATM   22  C   UNL     1      42.870  -7.396  14.401  1.00  0.00     0.026 A 
HETATM   23  C   UNL     1      43.334  -7.846  13.161  1.00  0.00     0.031 A 
ENDBRANCH  14  17
ENDBRANCH  12  13
ENDBRANCH  11  12
ENDBRANCH   4  11
BRANCH   8  24
HETATM   24  C   UNL     1      41.465 -13.270   5.806  1.00  0.00    -0.044 A 
HETATM   25  C   UNL     1      42.376 -14.043   6.548  1.00  0.00     0.008 A 
HETATM   26  C   UNL     1      42.041 -15.330   6.972  1.00  0.00     0.001 A 
HETATM   27  C   UNL     1      40.796 -15.868   6.660  1.00  0.00     0.000 A 
HETATM   28  C   UNL     1      39.888 -15.125   5.912  1.00  0.00     0.001 A 
HETATM   29  C   UNL     1      40.224 -13.841   5.477  1.00  0.00     0.008 A 
ENDBRANCH   8  24
BRANCH   9  30
HETATM   30  C   UNL     1      43.036 -12.203   3.053  1.00  0.00     0.255 C 
HETATM   31  N   UNL     1      43.324 -13.514   2.792  1.00  0.00    -0.321 N 
HETATM   32  H   UNL     1      44.152 -13.661   2.223  1.00  0.00     0.169 HD
HETATM   33  O   UNL     1      42.885 -11.347   2.191  1.00  0.00    -0.268 OA
BRANCH  31  34
HETATM   34  C   UNL     1      42.332 -14.473   2.451  1.00  0.00     0.068 A 
HETATM   35  C   UNL     1      42.409 -15.738   3.056  1.00  0.00     0.095 A 
HETATM   36  C   UNL     1      41.388 -16.672   2.858  1.00  0.00     0.039 A 
HETATM   37  C   UNL     1      40.323 -16.371   2.009  1.00  0.00     0.003 A 
HETATM   38  C   UNL     1      40.284 -15.146   1.347  1.00  0.00     0.002 A 
HETATM   39  C   UNL     1      41.288 -14.200   1.562  1.00  0.00     0.032 A 
BRANCH  35  40
HETATM   40  O   UNL     1      43.487 -15.978   3.874  1.00  0.00    -0.354 OA
HETATM   41  C   UNL     1      43.645 -17.357   4.203  1.00  0.00     0.210 C 
ENDBRANCH  35  40
ENDBRANCH  31  34
ENDBRANCH   9  30
TORSDOF 8
ENDMDL
MODEL 6
REMARK VINA RESULT:      -9.1      2.607      5.218
REMARK  8 active torsions:
REMARK  status: ('A' for Active; 'I' for Inactive)
REMARK    1  A    between atoms: C_4  and  S_5 
REMARK    2  A    between atoms: S_5  and  C_6 
REMARK    3  A    between atoms: C_6  and  C_7 
REMARK       I    between atoms: C_7  and  N_8 
REMARK    4  A    between atoms: N_8  and  C_9 
REMARK    5  A    between atoms: C_20  and  C_21 
REMARK    6  A    between atoms: C_27  and  C_28 
REMARK       I    between atoms: C_28  and  N_29 
REMARK    7  A    between atoms: N_29  and  C_30 
REMARK    8  A    between atoms: C_31  and  O_32 
ROOT
HETATM    1  C   UNL     1      40.547 -16.483   5.360  1.00  0.00     0.069 C 
HETATM    2  C   UNL     1      41.155 -15.239   4.766  1.00  0.00     0.019 C 
HETATM    3  N   UNL     1      41.340 -14.173   5.637  1.00  0.00    -0.353 N 
HETATM    4  C   UNL     1      42.190 -13.107   5.378  1.00  0.00     0.088 C 
HETATM    5  C   UNL     1      42.648 -12.916   4.116  1.00  0.00     0.069 C 
HETATM    6  C   UNL     1      43.635 -11.942   3.787  1.00  0.00     0.099 C 
HETATM    7  N   UNL     1      44.441 -11.150   3.518  1.00  0.00    -0.192 NA
HETATM    8  C   UNL     1      42.136 -13.802   2.974  1.00  0.00     0.106 C 
HETATM    9  C   UNL     1      41.535 -15.105   3.474  1.00  0.00     0.046 C 
HETATM   10  H   UNL     1      41.208 -14.365   6.628  1.00  0.00     0.166 HD
ENDROOT
BRANCH   4  11
HETATM   11  S   UNL     1      42.708 -12.091   6.711  1.00  0.00    -0.102 SA
BRANCH  11  12
HETATM   12  C   UNL     1      41.763 -10.571   6.336  1.00  0.00     0.184 C 
BRANCH  12  13
HETATM   13  C   UNL     1      41.817  -9.569   7.484  1.00  0.00     0.231 C 
HETATM   14  N   UNL     1      42.222 -10.115   8.690  1.00  0.00    -0.327 N 
HETATM   15  H   UNL     1      42.317 -11.126   8.700  1.00  0.00     0.169 HD
HETATM   16  O   UNL     1      41.581  -8.382   7.272  1.00  0.00    -0.272 OA
BRANCH  14  17
HETATM   17  C   UNL     1      42.412  -9.456   9.920  1.00  0.00     0.034 A 
HETATM   18  C   UNL     1      41.384  -8.857  10.651  1.00  0.00     0.031 A 
HETATM   19  C   UNL     1      41.655  -8.227  11.872  1.00  0.00     0.026 A 
HETATM   20  C   UNL     1      42.957  -8.197  12.364  1.00  0.00     0.034 A 
HETATM   21 CL   UNL     1      43.287  -7.430  13.868  1.00  0.00    -0.084 Cl
HETATM   22  C   UNL     1      43.992  -8.785  11.644  1.00  0.00     0.026 A 
HETATM   23  C   UNL     1      43.720  -9.410  10.423  1.00  0.00     0.031 A 
ENDBRANCH  14  17
ENDBRANCH  12  13
ENDBRANCH  11  12
ENDBRANCH   4  11
BRANCH   8  24
HETATM   24  C   UNL     1      41.182 -12.985   2.090  1.00  0.00    -0.044 A 
HETATM   25  C   UNL     1      40.077 -12.335   2.670  1.00  0.00     0.008 A 
HETATM   26  C   UNL     1      39.185 -11.604   1.885  1.00  0.00     0.001 A 
HETATM   27  C   UNL     1      39.376 -11.513   0.509  1.00  0.00     0.000 A 
HETATM   28  C   UNL     1      40.453 -12.164  -0.085  1.00  0.00     0.001 A 
HETATM   29  C   UNL     1      41.342 -12.905   0.696  1.00  0.00     0.008 A 
ENDBRANCH   8  24
BRANCH   9  30
HETATM   30  C   UNL     1      41.524 -16.279   2.562  1.00  0.00     0.255 C 
HETATM   31  N   UNL     1      42.768 -16.785   2.306  1.00  0.00    -0.321 N 
HETATM   32  H   UNL     1      43.064 -16.710   1.337  1.00  0.00     0.169 HD
HETATM   33  O   UNL     1      40.506 -16.625   1.976  1.00  0.00    -0.268 OA
BRANCH  31  34
HETATM   34  C   UNL     1      43.236 -18.008   2.857  1.00  0.00     0.068 A 
HETATM   35  C   UNL     1      43.894 -17.959   4.097  1.00  0.00     0.095 A 
HETATM   36  C   UNL     1      44.257 -19.143   4.745  1.00  0.00     0.039 A 
HETATM   37  C   UNL     1      44.023 -20.373   4.131  1.00  0.00     0.003 A 
HETATM   38  C   UNL     1      43.442 -20.422   2.866  1.00  0.00     0.002 A 
HETATM   39  C   UNL     1      43.053 -19.243   2.227  1.00  0.00     0.032 A 
BRANCH  35  40
HETATM   40  O   UNL     1      44.103 -16.716   4.647  1.00  0.00    -0.354 OA
HETATM   41  C   UNL     1      44.363 -16.761   6.049  1.00  0.00     0.210 C 
ENDBRANCH  35  40
ENDBRANCH  31  34
ENDBRANCH   9  30
TORSDOF 8
ENDMDL
MODEL 7
REMARK VINA RESULT:      -8.9      3.470      8.755
REMARK  8 active torsions:
REMARK  status: ('A' for Active; 'I' for Inactive)
REMARK    1  A    between atoms: C_4  and  S_5 
REMARK    2  A    between atoms: S_5  and  C_6 
REMARK    3  A    between atoms: C_6  and  C_7 
REMARK       I    between atoms: C_7  and  N_8 
REMARK    4  A    between atoms: N_8  and  C_9 
REMARK    5  A    between atoms: C_20  and  C_21 
REMARK    6  A    between atoms: C_27  and  C_28 
REMARK       I    between atoms: C_28  and  N_29 
REMARK    7  A    between atoms: N_29  and  C_30 
REMARK    8  A    between atoms: C_31  and  O_32 
ROOT
HETATM    1  C   UNL     1      38.167  -9.679   5.203  1.00  0.00     0.069 C 
HETATM    2  C   UNL     1      39.497 -10.369   5.040  1.00  0.00     0.019 C 
HETATM    3  N   UNL     1      39.873 -10.671   3.737  1.00  0.00    -0.353 N 
HETATM    4  C   UNL     1      41.176 -10.964   3.362  1.00  0.00     0.088 C 
HETATM    5  C   UNL     1      42.090 -11.266   4.319  1.00  0.00     0.069 C 
HETATM    6  C   UNL     1      43.478 -11.436   4.042  1.00  0.00     0.099 C 
HETATM    7  N   UNL     1      44.609 -11.572   3.818  1.00  0.00    -0.192 NA
HETATM    8  C   UNL     1      41.651 -11.391   5.783  1.00  0.00     0.106 C 
HETATM    9  C   UNL     1      40.331 -10.690   6.056  1.00  0.00     0.046 C 
HETATM   10  H   UNL     1      39.312 -10.262   2.993  1.00  0.00     0.166 HD
ENDROOT
BRANCH   4  11
HETATM   11  S   UNL     1      41.618 -10.856   1.667  1.00  0.00    -0.102 SA
BRANCH  11  12
HETATM   12  C   UNL     1      40.492 -12.115   0.966  1.00  0.00     0.184 C 
BRANCH  12  13
HETATM   13  C   UNL     1      40.634 -13.460   1.668  1.00  0.00     0.231 C 
HETATM   14  N   UNL     1      41.916 -13.980   1.635  1.00  0.00    -0.327 N 
HETATM   15  H   UNL     1      42.576 -13.474   1.052  1.00  0.00     0.169 HD
HETATM   16  O   UNL     1      39.672 -13.949   2.257  1.00  0.00    -0.272 OA
BRANCH  14  17
HETATM   17  C   UNL     1      42.385 -15.173   2.219  1.00  0.00     0.034 A 
HETATM   18  C   UNL     1      42.184 -16.441   1.671  1.00  0.00     0.031 A 
HETATM   19  C   UNL     1      42.690 -17.579   2.311  1.00  0.00     0.026 A 
HETATM   20  C   UNL     1      43.398 -17.450   3.502  1.00  0.00     0.034 A 
HETATM   21 CL   UNL     1      44.025 -18.848   4.283  1.00  0.00    -0.084 Cl
HETATM   22  C   UNL     1      43.601 -16.193   4.063  1.00  0.00     0.026 A 
HETATM   23  C   UNL     1      43.092 -15.058   3.424  1.00  0.00     0.031 A 
ENDBRANCH  14  17
ENDBRANCH  12  13
ENDBRANCH  11  12
ENDBRANCH   4  11
BRANCH   8  24
HETATM   24  C   UNL     1      41.654 -12.873   6.186  1.00  0.00    -0.044 A 
HETATM   25  C   UNL     1      42.780 -13.420   6.827  1.00  0.00     0.008 A 
HETATM   26  C   UNL     1      42.813 -14.768   7.185  1.00  0.00     0.001 A 
HETATM   27  C   UNL     1      41.728 -15.594   6.906  1.00  0.00     0.000 A 
HETATM   28  C   UNL     1      40.612 -15.074   6.256  1.00  0.00     0.001 A 
HETATM   29  C   UNL     1      40.579 -13.728   5.888  1.00  0.00     0.008 A 
ENDBRANCH   8  24
BRANCH   9  30
HETATM   30  C   UNL     1      40.048 -10.218   7.437  1.00  0.00     0.255 C 
HETATM   31  N   UNL     1      41.167 -10.091   8.212  1.00  0.00    -0.321 N 
HETATM   32  H   UNL     1      41.205 -10.721   9.008  1.00  0.00     0.169 HD
HETATM   33  O   UNL     1      38.903 -10.131   7.862  1.00  0.00    -0.268 OA
BRANCH  31  34
HETATM   34  C   UNL     1      41.725  -8.833   8.569  1.00  0.00     0.068 A 
HETATM   35  C   UNL     1      42.348  -8.725   9.823  1.00  0.00     0.095 A 
HETATM   36  C   UNL     1      43.026  -7.553  10.170  1.00  0.00     0.039 A 
HETATM   37  C   UNL     1      43.031  -6.467   9.294  1.00  0.00     0.003 A 
HETATM   38  C   UNL     1      42.348  -6.544   8.083  1.00  0.00     0.002 A 
HETATM   39  C   UNL     1      41.692  -7.722   7.722  1.00  0.00     0.032 A 
BRANCH  35  40
HETATM   40  O   UNL     1      42.300  -9.827  10.644  1.00  0.00    -0.354 OA
HETATM   41  C   UNL     1      43.480  -9.989  11.431  1.00  0.00     0.210 C 
ENDBRANCH  35  40
ENDBRANCH  31  34
ENDBRANCH   9  30
TORSDOF 8
ENDMDL
MODEL 8
REMARK VINA RESULT:      -8.9      4.283     10.204
REMARK  8 active torsions:
REMARK  status: ('A' for Active; 'I' for Inactive)
REMARK    1  A    between atoms: C_4  and  S_5 
REMARK    2  A    between atoms: S_5  and  C_6 
REMARK    3  A    between atoms: C_6  and  C_7 
REMARK       I    between atoms: C_7  and  N_8 
REMARK    4  A    between atoms: N_8  and  C_9 
REMARK    5  A    between atoms: C_20  and  C_21 
REMARK    6  A    between atoms: C_27  and  C_28 
REMARK       I    between atoms: C_28  and  N_29 
REMARK    7  A    between atoms: N_29  and  C_30 
REMARK    8  A    between atoms: C_31  and  O_32 
ROOT
HETATM    1  C   UNL     1      40.545  -9.997  11.712  1.00  0.00     0.069 C 
HETATM    2  C   UNL     1      41.138  -9.459  10.435  1.00  0.00     0.019 C 
HETATM    3  N   UNL     1      40.401  -9.679   9.278  1.00  0.00    -0.353 N 
HETATM    4  C   UNL     1      40.589  -8.970   8.101  1.00  0.00     0.088 C 
HETATM    5  C   UNL     1      41.718  -8.233   7.943  1.00  0.00     0.069 C 
HETATM    6  C   UNL     1      41.927  -7.361   6.835  1.00  0.00     0.099 C 
HETATM    7  N   UNL     1      42.098  -6.649   5.935  1.00  0.00    -0.192 NA
HETATM    8  C   UNL     1      42.818  -8.282   9.010  1.00  0.00     0.106 C 
HETATM    9  C   UNL     1      42.306  -8.780  10.351  1.00  0.00     0.046 C 
HETATM   10  H   UNL     1      39.455 -10.033   9.401  1.00  0.00     0.166 HD
ENDROOT
BRANCH   4  11
HETATM   11  S   UNL     1      39.321  -8.986   6.888  1.00  0.00    -0.102 SA
BRANCH  11  12
HETATM   12  C   UNL     1      38.776 -10.727   7.024  1.00  0.00     0.184 C 
BRANCH  12  13
HETATM   13  C   UNL     1      39.551 -11.641   6.082  1.00  0.00     0.231 C 
HETATM   14  N   UNL     1      40.217 -12.673   6.720  1.00  0.00    -0.327 N 
HETATM   15  H   UNL     1      40.213 -12.632   7.735  1.00  0.00     0.169 HD
HETATM   16  O   UNL     1      39.487 -11.466   4.867  1.00  0.00    -0.272 OA
BRANCH  14  17
HETATM   17  C   UNL     1      40.981 -13.703   6.139  1.00  0.00     0.034 A 
HETATM   18  C   UNL     1      40.485 -14.977   5.853  1.00  0.00     0.031 A 
HETATM   19  C   UNL     1      41.309 -15.944   5.266  1.00  0.00     0.026 A 
HETATM   20  C   UNL     1      42.633 -15.639   4.963  1.00  0.00     0.034 A 
HETATM   21 CL   UNL     1      43.642 -16.827   4.235  1.00  0.00    -0.084 Cl
HETATM   22  C   UNL     1      43.143 -14.376   5.247  1.00  0.00     0.026 A 
HETATM   23  C   UNL     1      42.319 -13.412   5.837  1.00  0.00     0.031 A 
ENDBRANCH  14  17
ENDBRANCH  12  13
ENDBRANCH  11  12
ENDBRANCH   4  11
BRANCH   8  24
HETATM   24  C   UNL     1      44.009  -9.088   8.471  1.00  0.00    -0.044 A 
HETATM   25  C   UNL     1      43.808 -10.397   7.997  1.00  0.00     0.008 A 
HETATM   26  C   UNL     1      44.878 -11.156   7.521  1.00  0.00     0.001 A 
HETATM   27  C   UNL     1      46.165 -10.625   7.514  1.00  0.00     0.000 A 
HETATM   28  C   UNL     1      46.385  -9.338   7.995  1.00  0.00     0.001 A 
HETATM   29  C   UNL     1      45.319  -8.579   8.481  1.00  0.00     0.008 A 
ENDBRANCH   8  24
BRANCH   9  30
HETATM   30  C   UNL     1      43.025  -8.366  11.585  1.00  0.00     0.255 C 
HETATM   31  N   UNL     1      42.682  -7.118  12.027  1.00  0.00    -0.321 N 
HETATM   32  H   UNL     1      43.435  -6.438  12.001  1.00  0.00     0.169 HD
HETATM   33  O   UNL     1      43.953  -9.024  12.036  1.00  0.00    -0.268 OA
BRANCH  31  34
HETATM   34  C   UNL     1      41.875  -6.897  13.175  1.00  0.00     0.068 A 
HETATM   35  C   UNL     1      40.548  -6.483  12.974  1.00  0.00     0.095 A 
HETATM   36  C   UNL     1      39.674  -6.378  14.060  1.00  0.00     0.039 A 
HETATM   37  C   UNL     1      40.137  -6.624  15.353  1.00  0.00     0.003 A 
HETATM   38  C   UNL     1      41.473  -6.959  15.563  1.00  0.00     0.002 A 
HETATM   39  C   UNL     1      42.342  -7.091  14.478  1.00  0.00     0.032 A 
BRANCH  35  40
HETATM   40  O   UNL     1      40.154  -6.248  11.678  1.00  0.00    -0.354 OA
HETATM   41  C   UNL     1      38.817  -6.669  11.414  1.00  0.00     0.210 C 
ENDBRANCH  35  40
ENDBRANCH  31  34
ENDBRANCH   9  30
TORSDOF 8
ENDMDL
MODEL 9
REMARK VINA RESULT:      -8.8      1.805      2.818
REMARK  8 active torsions:
REMARK  status: ('A' for Active; 'I' for Inactive)
REMARK    1  A    between atoms: C_4  and  S_5 
REMARK    2  A    between atoms: S_5  and  C_6 
REMARK    3  A    between atoms: C_6  and  C_7 
REMARK       I    between atoms: C_7  and  N_8 
REMARK    4  A    between atoms: N_8  and  C_9 
REMARK    5  A    between atoms: C_20  and  C_21 
REMARK    6  A    between atoms: C_27  and  C_28 
REMARK       I    between atoms: C_28  and  N_29 
REMARK    7  A    between atoms: N_29  and  C_30 
REMARK    8  A    between atoms: C_31  and  O_32 
ROOT
HETATM    1  C   UNL     1      41.723 -10.584   1.556  1.00  0.00     0.069 C 
HETATM    2  C   UNL     1      41.988 -11.671   2.566  1.00  0.00     0.019 C 
HETATM    3  N   UNL     1      43.086 -11.479   3.395  1.00  0.00    -0.353 N 
HETATM    4  C   UNL     1      43.276 -12.162   4.588  1.00  0.00     0.088 C 
HETATM    5  C   UNL     1      42.538 -13.271   4.843  1.00  0.00     0.069 C 
HETATM    6  C   UNL     1      42.560 -13.948   6.097  1.00  0.00     0.099 C 
HETATM    7  N   UNL     1      42.575 -14.499   7.119  1.00  0.00    -0.192 NA
HETATM    8  C   UNL     1      41.592 -13.823   3.770  1.00  0.00     0.106 C 
HETATM    9  C   UNL     1      41.234 -12.784   2.720  1.00  0.00     0.046 C 
HETATM   10  H   UNL     1      43.522 -10.560   3.371  1.00  0.00     0.166 HD
ENDROOT
BRANCH   4  11
HETATM   11  S   UNL     1      44.408 -11.517   5.764  1.00  0.00    -0.102 SA
BRANCH  11  12
HETATM   12  C   UNL     1      43.331 -10.307   6.610  1.00  0.00     0.184 C 
BRANCH  12  13
HETATM   13  C   UNL     1      43.486 -10.367   8.126  1.00  0.00     0.231 C 
HETATM   14  N   UNL     1      42.719  -9.439   8.808  1.00  0.00    -0.327 N 
HETATM   15  H   UNL     1      42.243  -8.756   8.227  1.00  0.00     0.169 HD
HETATM   16  O   UNL     1      44.189 -11.237   8.635  1.00  0.00    -0.272 OA
BRANCH  14  17
HETATM   17  C   UNL     1      42.606  -9.263  10.201  1.00  0.00     0.034 A 
HETATM   18  C   UNL     1      43.613  -8.724  11.004  1.00  0.00     0.031 A 
HETATM   19  C   UNL     1      43.418  -8.574  12.382  1.00  0.00     0.026 A 
HETATM   20  C   UNL     1      42.214  -8.965  12.960  1.00  0.00     0.034 A 
HETATM   21 CL   UNL     1      41.974  -8.774  14.653  1.00  0.00    -0.084 Cl
HETATM   22  C   UNL     1      41.203  -9.510  12.173  1.00  0.00     0.026 A 
HETATM   23  C   UNL     1      41.401  -9.661  10.798  1.00  0.00     0.031 A 
ENDBRANCH  14  17
ENDBRANCH  12  13
ENDBRANCH  11  12
ENDBRANCH   4  11
BRANCH   8  24
HETATM   24  C   UNL     1      42.191 -15.108   3.181  1.00  0.00    -0.044 A 
HETATM   25  C   UNL     1      41.966 -16.340   3.820  1.00  0.00     0.008 A 
HETATM   26  C   UNL     1      42.517 -17.519   3.315  1.00  0.00     0.001 A 
HETATM   27  C   UNL     1      43.303 -17.488   2.167  1.00  0.00     0.000 A 
HETATM   28  C   UNL     1      43.551 -16.276   1.530  1.00  0.00     0.001 A 
HETATM   29  C   UNL     1      43.010 -15.093   2.039  1.00  0.00     0.008 A 
ENDBRANCH   8  24
BRANCH   9  30
HETATM   30  C   UNL     1      39.952 -12.931   1.982  1.00  0.00     0.255 C 
HETATM   31  N   UNL     1      38.869 -12.451   2.663  1.00  0.00    -0.321 N 
HETATM   32  H   UNL     1      38.184 -13.155   2.920  1.00  0.00     0.169 HD
HETATM   33  O   UNL     1      39.881 -13.581   0.946  1.00  0.00    -0.268 OA
BRANCH  31  34
HETATM   34  C   UNL     1      38.206 -11.243   2.314  1.00  0.00     0.068 A 
HETATM   35  C   UNL     1      38.455 -10.108   3.103  1.00  0.00     0.095 A 
HETATM   36  C   UNL     1      37.934  -8.866   2.728  1.00  0.00     0.039 A 
HETATM   37  C   UNL     1      37.115  -8.765   1.603  1.00  0.00     0.003 A 
HETATM   38  C   UNL     1      36.803  -9.904   0.864  1.00  0.00     0.002 A 
HETATM   39  C   UNL     1      37.343 -11.141   1.220  1.00  0.00     0.032 A 
BRANCH  35  40
HETATM   40  O   UNL     1      39.262 -10.274   4.203  1.00  0.00    -0.354 OA
HETATM   41  C   UNL     1      38.573 -10.079   5.438  1.00  0.00     0.210 C 
ENDBRANCH  35  40
ENDBRANCH  31  34
ENDBRANCH   9  30
TORSDOF 8
ENDMDL
MODEL 10
REMARK VINA RESULT:      -8.7      3.560      8.737
REMARK  8 active torsions:
REMARK  status: ('A' for Active; 'I' for Inactive)
REMARK    1  A    between atoms: C_4  and  S_5 
REMARK    2  A    between atoms: S_5  and  C_6 
REMARK    3  A    between atoms: C_6  and  C_7 
REMARK       I    between atoms: C_7  and  N_8 
REMARK    4  A    between atoms: N_8  and  C_9 
REMARK    5  A    between atoms: C_20  and  C_21 
REMARK    6  A    between atoms: C_27  and  C_28 
REMARK       I    between atoms: C_28  and  N_29 
REMARK    7  A    between atoms: N_29  and  C_30 
REMARK    8  A    between atoms: C_31  and  O_32 
ROOT
HETATM    1  C   UNL     1      38.981  -7.986   6.908  1.00  0.00     0.069 C 
HETATM    2  C   UNL     1      39.847  -8.803   5.985  1.00  0.00     0.019 C 
HETATM    3  N   UNL     1      39.180  -9.543   5.016  1.00  0.00    -0.353 N 
HETATM    4  C   UNL     1      39.794 -10.053   3.882  1.00  0.00     0.088 C 
HETATM    5  C   UNL     1      41.149 -10.105   3.826  1.00  0.00     0.069 C 
HETATM    6  C   UNL     1      41.865 -10.475   2.651  1.00  0.00     0.099 C 
HETATM    7  N   UNL     1      42.449 -10.773   1.693  1.00  0.00    -0.192 NA
HETATM    8  C   UNL     1      41.980  -9.710   5.052  1.00  0.00     0.106 C 
HETATM    9  C   UNL     1      41.199  -8.847   6.031  1.00  0.00     0.046 C 
HETATM   10  H   UNL     1      38.188  -9.352   4.899  1.00  0.00     0.166 HD
ENDROOT
BRANCH   4  11
HETATM   11  S   UNL     1      38.796 -10.540   2.522  1.00  0.00    -0.102 SA
BRANCH  11  12
HETATM   12  C   UNL     1      38.384 -12.248   3.028  1.00  0.00     0.184 C 
BRANCH  12  13
HETATM   13  C   UNL     1      39.523 -13.218   2.737  1.00  0.00     0.231 C 
HETATM   14  N   UNL     1      40.075 -13.795   3.868  1.00  0.00    -0.327 N 
HETATM   15  H   UNL     1      39.746 -13.420   4.752  1.00  0.00     0.169 HD
HETATM   16  O   UNL     1      39.825 -13.478   1.574  1.00  0.00    -0.272 OA
BRANCH  14  17
HETATM   17  C   UNL     1      41.104 -14.753   3.939  1.00  0.00     0.034 A 
HETATM   18  C   UNL     1      42.341 -14.619   3.304  1.00  0.00     0.031 A 
HETATM   19  C   UNL     1      43.316 -15.615   3.431  1.00  0.00     0.026 A 
HETATM   20  C   UNL     1      43.056 -16.749   4.194  1.00  0.00     0.034 A 
HETATM   21 CL   UNL     1      44.258 -17.969   4.355  1.00  0.00    -0.084 Cl
HETATM   22  C   UNL     1      41.826 -16.900   4.828  1.00  0.00     0.026 A 
HETATM   23  C   UNL     1      40.852 -15.905   4.697  1.00  0.00     0.031 A 
ENDBRANCH  14  17
ENDBRANCH  12  13
ENDBRANCH  11  12
ENDBRANCH   4  11
BRANCH   8  24
HETATM   24  C   UNL     1      42.574 -10.975   5.689  1.00  0.00    -0.044 A 
HETATM   25  C   UNL     1      43.968 -11.154   5.716  1.00  0.00     0.008 A 
HETATM   26  C   UNL     1      44.530 -12.304   6.271  1.00  0.00     0.001 A 
HETATM   27  C   UNL     1      43.712 -13.296   6.804  1.00  0.00     0.000 A 
HETATM   28  C   UNL     1      42.329 -13.145   6.771  1.00  0.00     0.001 A 
HETATM   29  C   UNL     1      41.763 -11.999   6.207  1.00  0.00     0.008 A 
ENDBRANCH   8  24
BRANCH   9  30
HETATM   30  C   UNL     1      41.951  -7.930   6.927  1.00  0.00     0.255 C 
HETATM   31  N   UNL     1      42.003  -8.353   8.226  1.00  0.00    -0.321 N 
HETATM   32  H   UNL     1      41.527  -7.748   8.888  1.00  0.00     0.169 HD
HETATM   33  O   UNL     1      42.323  -6.827   6.548  1.00  0.00    -0.268 OA
BRANCH  31  34
HETATM   34  C   UNL     1      43.177  -8.887   8.822  1.00  0.00     0.068 A 
HETATM   35  C   UNL     1      43.033  -9.626  10.008  1.00  0.00     0.095 A 
HETATM   36  C   UNL     1      44.135 -10.282  10.563  1.00  0.00     0.039 A 
HETATM   37  C   UNL     1      45.393 -10.152   9.974  1.00  0.00     0.003 A 
HETATM   38  C   UNL     1      45.553  -9.356   8.842  1.00  0.00     0.002 A 
HETATM   39  C   UNL     1      44.450  -8.720   8.269  1.00  0.00     0.032 A 
BRANCH  35  40
HETATM   40  O   UNL     1      41.770  -9.709  10.544  1.00  0.00    -0.354 OA
HETATM   41  C   UNL     1      41.744  -9.479  11.953  1.00  0.00     0.210 C 
ENDBRANCH  35  40
ENDBRANCH  31  34
ENDBRANCH   9  30
TORSDOF 8
ENDMDL
