MODEL 1
REMARK VINA RESULT:      -9.7      0.000      0.000
REMARK  1 active torsions:
REMARK  status: ('A' for Active; 'I' for Inactive)
REMARK    1  A    between atoms: C_8  and  C_9 
ROOT
HETATM    1  C   UNL     1      43.183 -16.116   1.581  1.00  0.00     0.049 C 
HETATM    2  C   UNL     1      43.398 -17.183   2.621  1.00  0.00    -0.050 A 
HETATM    3  C   UNL     1      43.402 -16.903   4.002  1.00  0.00    -0.002 A 
HETATM    4  C   UNL     1      43.638 -17.942   4.922  1.00  0.00     0.051 A 
HETATM    5  N   UNL     1      43.692 -17.628   6.288  1.00  0.00    -0.322 N 
HETATM    6  C   UNL     1      43.529 -16.373   6.799  1.00  0.00     0.255 A 
HETATM    7  O   UNL     1      43.642 -16.167   8.005  1.00  0.00    -0.268 OA
HETATM    8  C   UNL     1      43.182 -15.275   5.853  1.00  0.00     0.048 A 
HETATM    9  C   UNL     1      43.155 -15.556   4.534  1.00  0.00     0.030 A 
HETATM   10  C   UNL     1      43.835 -19.266   4.492  1.00  0.00    -0.034 A 
HETATM   11  C   UNL     1      44.054 -20.399   5.454  1.00  0.00     0.050 C 
HETATM   12  C   UNL     1      43.811 -19.532   3.118  1.00  0.00     0.009 A 
HETATM   13  C   UNL     1      43.602 -18.505   2.196  1.00  0.00     0.008 A 
HETATM   14  H   UNL     1      43.897 -18.346   6.969  1.00  0.00     0.169 HD
ENDROOT
BRANCH   8  15
HETATM   15  C   UNL     1      42.940 -13.914   6.465  1.00  0.00     0.202 C 
HETATM   16  N   UNL     1      42.118 -13.089   5.629  1.00  0.00    -0.336 N 
HETATM   17  C   UNL     1      41.851 -11.796   6.012  1.00  0.00     0.255 C 
HETATM   18  H   UNL     1      41.291 -13.539   5.241  1.00  0.00     0.164 HD
HETATM   19  O   UNL     1      40.836 -11.210   5.661  1.00  0.00    -0.268 OA
HETATM   20  C   UNL     1      42.886 -11.148   6.841  1.00  0.00     0.053 A 
HETATM   21  C   UNL     1      44.037 -11.890   7.133  1.00  0.00     0.026 A 
HETATM   22  C   UNL     1      42.751  -9.822   7.261  1.00  0.00     0.019 A 
HETATM   23  N   UNL     1      44.213 -13.203   6.628  1.00  0.00    -0.266 NA
HETATM   24  C   UNL     1      45.097 -11.255   7.782  1.00  0.00     0.024 A 
HETATM   25  H   UNL     1      44.619 -13.097   5.697  1.00  0.00     0.130 HD
HETATM   26  C   UNL     1      44.973  -9.928   8.204  1.00  0.00     0.002 A 
HETATM   27  C   UNL     1      43.799  -9.216   7.952  1.00  0.00     0.001 A 
ENDBRANCH   8  15
TORSDOF 1
ENDMDL
MODEL 2
REMARK VINA RESULT:      -9.3      3.969      6.667
REMARK  1 active torsions:
REMARK  status: ('A' for Active; 'I' for Inactive)
REMARK    1  A    between atoms: C_8  and  C_9 
ROOT
HETATM    1  C   UNL     1      42.861 -19.092   1.875  1.00  0.00     0.049 C 
HETATM    2  C   UNL     1      43.238 -18.236   3.055  1.00  0.00    -0.050 A 
HETATM    3  C   UNL     1      42.932 -16.861   3.119  1.00  0.00    -0.002 A 
HETATM    4  C   UNL     1      43.339 -16.111   4.239  1.00  0.00     0.051 A 
HETATM    5  N   UNL     1      43.072 -14.733   4.254  1.00  0.00    -0.322 N 
HETATM    6  C   UNL     1      42.438 -14.058   3.252  1.00  0.00     0.255 A 
HETATM    7  O   UNL     1      42.287 -12.840   3.315  1.00  0.00    -0.268 OA
HETATM    8  C   UNL     1      41.913 -14.849   2.103  1.00  0.00     0.048 A 
HETATM    9  C   UNL     1      42.187 -16.168   2.060  1.00  0.00     0.030 A 
HETATM   10  C   UNL     1      44.014 -16.713   5.314  1.00  0.00    -0.034 A 
HETATM   11  C   UNL     1      44.429 -15.942   6.535  1.00  0.00     0.050 C 
HETATM   12  C   UNL     1      44.295 -18.082   5.243  1.00  0.00     0.009 A 
HETATM   13  C   UNL     1      43.918 -18.831   4.127  1.00  0.00     0.008 A 
HETATM   14  H   UNL     1      43.386 -14.161   5.026  1.00  0.00     0.169 HD
ENDROOT
BRANCH   8  15
HETATM   15  C   UNL     1      41.155 -14.075   1.048  1.00  0.00     0.202 C 
HETATM   16  N   UNL     1      40.187 -13.188   1.626  1.00  0.00    -0.336 N 
HETATM   17  C   UNL     1      39.370 -12.453   0.801  1.00  0.00     0.255 C 
HETATM   18  H   UNL     1      40.513 -12.634   2.415  1.00  0.00     0.164 HD
HETATM   19  O   UNL     1      38.893 -11.380   1.146  1.00  0.00    -0.268 OA
HETATM   20  C   UNL     1      39.073 -13.060  -0.511  1.00  0.00     0.053 A 
HETATM   21  C   UNL     1      39.622 -14.320  -0.778  1.00  0.00     0.026 A 
HETATM   22  C   UNL     1      38.222 -12.431  -1.423  1.00  0.00     0.019 A 
HETATM   23  N   UNL     1      40.409 -14.998   0.186  1.00  0.00    -0.266 NA
HETATM   24  C   UNL     1      39.236 -14.986  -1.942  1.00  0.00     0.024 A 
HETATM   25  H   UNL     1      39.753 -15.503   0.783  1.00  0.00     0.130 HD
HETATM   26  C   UNL     1      38.383 -14.366  -2.861  1.00  0.00     0.002 A 
HETATM   27  C   UNL     1      37.885 -13.087  -2.606  1.00  0.00     0.001 A 
ENDBRANCH   8  15
TORSDOF 1
ENDMDL
MODEL 3
REMARK VINA RESULT:      -9.1      2.066      3.581
REMARK  1 active torsions:
REMARK  status: ('A' for Active; 'I' for Inactive)
REMARK    1  A    between atoms: C_8  and  C_9 
ROOT
HETATM    1  C   UNL     1      43.588 -19.229   7.255  1.00  0.00     0.049 C 
HETATM    2  C   UNL     1      43.659 -19.455   5.768  1.00  0.00    -0.050 A 
HETATM    3  C   UNL     1      43.547 -18.403   4.837  1.00  0.00    -0.002 A 
HETATM    4  C   UNL     1      43.591 -18.687   3.459  1.00  0.00     0.051 A 
HETATM    5  N   UNL     1      43.422 -17.630   2.552  1.00  0.00    -0.322 N 
HETATM    6  C   UNL     1      43.214 -16.329   2.911  1.00  0.00     0.255 A 
HETATM    7  O   UNL     1      43.022 -15.467   2.058  1.00  0.00    -0.268 OA
HETATM    8  C   UNL     1      43.261 -15.992   4.362  1.00  0.00     0.048 A 
HETATM    9  C   UNL     1      43.394 -17.000   5.246  1.00  0.00     0.030 A 
HETATM   10  C   UNL     1      43.783 -19.998   2.990  1.00  0.00    -0.034 A 
HETATM   11  C   UNL     1      43.869 -20.323   1.526  1.00  0.00     0.050 C 
HETATM   12  C   UNL     1      43.910 -21.029   3.927  1.00  0.00     0.009 A 
HETATM   13  C   UNL     1      43.843 -20.763   5.295  1.00  0.00     0.008 A 
HETATM   14  H   UNL     1      43.411 -17.808   1.557  1.00  0.00     0.169 HD
ENDROOT
BRANCH   8  15
HETATM   15  C   UNL     1      43.098 -14.531   4.715  1.00  0.00     0.202 C 
HETATM   16  N   UNL     1      43.448 -14.267   6.080  1.00  0.00    -0.336 N 
HETATM   17  C   UNL     1      43.299 -12.995   6.580  1.00  0.00     0.255 C 
HETATM   18  H   UNL     1      44.314 -14.694   6.403  1.00  0.00     0.164 HD
HETATM   19  O   UNL     1      43.982 -12.576   7.504  1.00  0.00    -0.268 OA
HETATM   20  C   UNL     1      42.235 -12.184   5.958  1.00  0.00     0.053 A 
HETATM   21  C   UNL     1      41.472 -12.785   4.949  1.00  0.00     0.026 A 
HETATM   22  C   UNL     1      41.957 -10.889   6.405  1.00  0.00     0.019 A 
HETATM   23  N   UNL     1      41.695 -14.130   4.562  1.00  0.00    -0.266 NA
HETATM   24  C   UNL     1      40.363 -12.100   4.450  1.00  0.00     0.024 A 
HETATM   25  H   UNL     1      41.147 -14.705   5.203  1.00  0.00     0.130 HD
HETATM   26  C   UNL     1      40.075 -10.805   4.892  1.00  0.00     0.002 A 
HETATM   27  C   UNL     1      40.876 -10.198   5.861  1.00  0.00     0.001 A 
ENDBRANCH   8  15
TORSDOF 1
ENDMDL
MODEL 4
REMARK VINA RESULT:      -9.1      1.952      2.955
REMARK  1 active torsions:
REMARK  status: ('A' for Active; 'I' for Inactive)
REMARK    1  A    between atoms: C_8  and  C_9 
ROOT
HETATM    1  C   UNL     1      43.569 -17.837   6.727  1.00  0.00     0.049 C 
HETATM    2  C   UNL     1      43.445 -17.356   5.306  1.00  0.00    -0.050 A 
HETATM    3  C   UNL     1      43.345 -15.990   4.976  1.00  0.00    -0.002 A 
HETATM    4  C   UNL     1      43.201 -15.609   3.628  1.00  0.00     0.051 A 
HETATM    5  N   UNL     1      43.047 -14.246   3.330  1.00  0.00    -0.322 N 
HETATM    6  C   UNL     1      43.027 -13.249   4.262  1.00  0.00     0.255 A 
HETATM    7  O   UNL     1      42.835 -12.083   3.928  1.00  0.00    -0.268 OA
HETATM    8  C   UNL     1      43.275 -13.620   5.684  1.00  0.00     0.048 A 
HETATM    9  C   UNL     1      43.395 -14.927   5.990  1.00  0.00     0.030 A 
HETATM   10  C   UNL     1      43.192 -16.564   2.597  1.00  0.00    -0.034 A 
HETATM   11  C   UNL     1      43.075 -16.181   1.149  1.00  0.00     0.050 C 
HETATM   12  C   UNL     1      43.311 -17.916   2.939  1.00  0.00     0.009 A 
HETATM   13  C   UNL     1      43.429 -18.307   4.274  1.00  0.00     0.008 A 
HETATM   14  H   UNL     1      42.904 -13.946   2.376  1.00  0.00     0.169 HD
ENDROOT
BRANCH   8  15
HETATM   15  C   UNL     1      43.315 -12.480   6.676  1.00  0.00     0.202 C 
HETATM   16  N   UNL     1      42.237 -11.556   6.474  1.00  0.00    -0.336 N 
HETATM   17  C   UNL     1      42.162 -10.428   7.256  1.00  0.00     0.255 C 
HETATM   18  H   UNL     1      41.319 -11.972   6.335  1.00  0.00     0.164 HD
HETATM   19  O   UNL     1      41.099  -9.871   7.495  1.00  0.00    -0.268 OA
HETATM   20  C   UNL     1      43.450  -9.908   7.755  1.00  0.00     0.053 A 
HETATM   21  C   UNL     1      44.612 -10.588   7.371  1.00  0.00     0.026 A 
HETATM   22  C   UNL     1      43.511  -8.745   8.527  1.00  0.00     0.019 A 
HETATM   23  N   UNL     1      44.555 -11.714   6.512  1.00  0.00    -0.266 NA
HETATM   24  C   UNL     1      45.852 -10.035   7.698  1.00  0.00     0.024 A 
HETATM   25  H   UNL     1      44.557 -11.345   5.560  1.00  0.00     0.130 HD
HETATM   26  C   UNL     1      45.923  -8.870   8.468  1.00  0.00     0.002 A 
HETATM   27  C   UNL     1      44.755  -8.231   8.889  1.00  0.00     0.001 A 
ENDBRANCH   8  15
TORSDOF 1
ENDMDL
MODEL 5
REMARK VINA RESULT:      -9.0      4.348      6.697
REMARK  1 active torsions:
REMARK  status: ('A' for Active; 'I' for Inactive)
REMARK    1  A    between atoms: C_8  and  C_9 
ROOT
HETATM    1  C   UNL     1      43.121 -18.564   2.166  1.00  0.00     0.049 C 
HETATM    2  C   UNL     1      43.293 -17.620   3.326  1.00  0.00    -0.050 A 
HETATM    3  C   UNL     1      42.772 -16.311   3.319  1.00  0.00    -0.002 A 
HETATM    4  C   UNL     1      42.994 -15.468   4.425  1.00  0.00     0.051 A 
HETATM    5  N   UNL     1      42.513 -14.151   4.371  1.00  0.00    -0.322 N 
HETATM    6  C   UNL     1      41.836 -13.619   3.312  1.00  0.00     0.255 A 
HETATM    7  O   UNL     1      41.491 -12.440   3.317  1.00  0.00    -0.268 OA
HETATM    8  C   UNL     1      41.505 -14.521   2.173  1.00  0.00     0.048 A 
HETATM    9  C   UNL     1      41.985 -15.780   2.197  1.00  0.00     0.030 A 
HETATM   10  C   UNL     1      43.697 -15.918   5.556  1.00  0.00    -0.034 A 
HETATM   11  C   UNL     1      43.917 -15.051   6.763  1.00  0.00     0.050 C 
HETATM   12  C   UNL     1      44.193 -17.227   5.555  1.00  0.00     0.009 A 
HETATM   13  C   UNL     1      44.000 -18.063   4.455  1.00  0.00     0.008 A 
HETATM   14  H   UNL     1      42.690 -13.511   5.132  1.00  0.00     0.169 HD
ENDROOT
BRANCH   8  15
HETATM   15  C   UNL     1      40.692 -13.914   1.051  1.00  0.00     0.202 C 
HETATM   16  N   UNL     1      40.353 -14.882   0.050  1.00  0.00    -0.336 N 
HETATM   17  C   UNL     1      39.665 -14.481  -1.070  1.00  0.00     0.255 C 
HETATM   18  H   UNL     1      40.007 -15.774   0.398  1.00  0.00     0.164 HD
HETATM   19  O   UNL     1      38.943 -15.243  -1.698  1.00  0.00    -0.268 OA
HETATM   20  C   UNL     1      39.887 -13.083  -1.490  1.00  0.00     0.053 A 
HETATM   21  C   UNL     1      40.783 -12.317  -0.734  1.00  0.00     0.026 A 
HETATM   22  C   UNL     1      39.277 -12.566  -2.636  1.00  0.00     0.019 A 
HETATM   23  N   UNL     1      41.471 -12.871   0.374  1.00  0.00    -0.266 NA
HETATM   24  C   UNL     1      41.129 -11.045  -1.192  1.00  0.00     0.024 A 
HETATM   25  H   UNL     1      42.306 -13.319  -0.006  1.00  0.00     0.130 HD
HETATM   26  C   UNL     1      40.527 -10.519  -2.339  1.00  0.00     0.002 A 
HETATM   27  C   UNL     1      39.595 -11.275  -3.054  1.00  0.00     0.001 A 
ENDBRANCH   8  15
TORSDOF 1
ENDMDL
MODEL 6
REMARK VINA RESULT:      -8.9      2.526      4.075
REMARK  1 active torsions:
REMARK  status: ('A' for Active; 'I' for Inactive)
REMARK    1  A    between atoms: C_8  and  C_9 
ROOT
HETATM    1  C   UNL     1      43.572 -18.000   7.107  1.00  0.00     0.049 C 
HETATM    2  C   UNL     1      43.643 -18.574   5.717  1.00  0.00    -0.050 A 
HETATM    3  C   UNL     1      43.436 -17.789   4.565  1.00  0.00    -0.002 A 
HETATM    4  C   UNL     1      43.487 -18.394   3.294  1.00  0.00     0.051 A 
HETATM    5  N   UNL     1      43.222 -17.603   2.165  1.00  0.00    -0.322 N 
HETATM    6  C   UNL     1      42.916 -16.274   2.208  1.00  0.00     0.255 A 
HETATM    7  O   UNL     1      42.645 -15.660   1.179  1.00  0.00    -0.268 OA
HETATM    8  C   UNL     1      42.952 -15.593   3.533  1.00  0.00     0.048 A 
HETATM    9  C   UNL     1      43.176 -16.344   4.629  1.00  0.00     0.030 A 
HETATM   10  C   UNL     1      43.777 -19.761   3.148  1.00  0.00    -0.034 A 
HETATM   11  C   UNL     1      43.872 -20.423   1.803  1.00  0.00     0.050 C 
HETATM   12  C   UNL     1      43.998 -20.523   4.301  1.00  0.00     0.009 A 
HETATM   13  C   UNL     1      43.926 -19.940   5.567  1.00  0.00     0.008 A 
HETATM   14  H   UNL     1      43.214 -18.017   1.243  1.00  0.00     0.169 HD
ENDROOT
BRANCH   8  15
HETATM   15  C   UNL     1      42.676 -14.106   3.530  1.00  0.00     0.202 C 
HETATM   16  N   UNL     1      43.116 -13.477   4.741  1.00  0.00    -0.336 N 
HETATM   17  C   UNL     1      42.886 -12.134   4.925  1.00  0.00     0.255 C 
HETATM   18  H   UNL     1      44.044 -13.742   5.064  1.00  0.00     0.164 HD
HETATM   19  O   UNL     1      43.601 -11.443   5.637  1.00  0.00    -0.268 OA
HETATM   20  C   UNL     1      41.696 -11.590   4.240  1.00  0.00     0.053 A 
HETATM   21  C   UNL     1      40.912 -12.484   3.500  1.00  0.00     0.026 A 
HETATM   22  C   UNL     1      41.332 -10.249   4.381  1.00  0.00     0.019 A 
HETATM   23  N   UNL     1      41.233 -13.863   3.435  1.00  0.00    -0.266 NA
HETATM   24  C   UNL     1      39.702 -12.033   2.971  1.00  0.00     0.024 A 
HETATM   25  H   UNL     1      40.801 -14.293   4.254  1.00  0.00     0.130 HD
HETATM   26  C   UNL     1      39.327 -10.693   3.108  1.00  0.00     0.002 A 
HETATM   27  C   UNL     1      40.144  -9.800   3.804  1.00  0.00     0.001 A 
ENDBRANCH   8  15
TORSDOF 1
ENDMDL
MODEL 7
REMARK VINA RESULT:      -8.7      4.419      6.900
REMARK  1 active torsions:
REMARK  status: ('A' for Active; 'I' for Inactive)
REMARK    1  A    between atoms: C_8  and  C_9 
ROOT
HETATM    1  C   UNL     1      41.457 -10.399  -0.520  1.00  0.00     0.049 C 
HETATM    2  C   UNL     1      40.645 -11.524  -1.106  1.00  0.00    -0.050 A 
HETATM    3  C   UNL     1      40.439 -12.741  -0.428  1.00  0.00    -0.002 A 
HETATM    4  C   UNL     1      39.695 -13.764  -1.045  1.00  0.00     0.051 A 
HETATM    5  N   UNL     1      39.551 -14.988  -0.372  1.00  0.00    -0.322 N 
HETATM    6  C   UNL     1      40.085 -15.263   0.853  1.00  0.00     0.255 A 
HETATM    7  O   UNL     1      39.959 -16.377   1.356  1.00  0.00    -0.268 OA
HETATM    8  C   UNL     1      40.793 -14.163   1.567  1.00  0.00     0.048 A 
HETATM    9  C   UNL     1      40.965 -12.992   0.922  1.00  0.00     0.030 A 
HETATM   10  C   UNL     1      39.120 -13.583  -2.314  1.00  0.00    -0.034 A 
HETATM   11  C   UNL     1      38.292 -14.645  -2.981  1.00  0.00     0.050 C 
HETATM   12  C   UNL     1      39.318 -12.362  -2.969  1.00  0.00     0.009 A 
HETATM   13  C   UNL     1      40.075 -11.350  -2.376  1.00  0.00     0.008 A 
HETATM   14  H   UNL     1      39.054 -15.753  -0.807  1.00  0.00     0.169 HD
ENDROOT
BRANCH   8  15
HETATM   15  C   UNL     1      41.309 -14.486   2.951  1.00  0.00     0.202 C 
HETATM   16  N   UNL     1      41.843 -13.328   3.607  1.00  0.00    -0.336 N 
HETATM   17  C   UNL     1      42.408 -13.461   4.853  1.00  0.00     0.255 C 
HETATM   18  H   UNL     1      41.276 -12.485   3.545  1.00  0.00     0.164 HD
HETATM   19  O   UNL     1      42.440 -12.538   5.655  1.00  0.00    -0.268 OA
HETATM   20  C   UNL     1      43.012 -14.777   5.145  1.00  0.00     0.053 A 
HETATM   21  C   UNL     1      42.974 -15.742   4.132  1.00  0.00     0.026 A 
HETATM   22  C   UNL     1      43.653 -15.024   6.361  1.00  0.00     0.019 A 
HETATM   23  N   UNL     1      42.405 -15.457   2.866  1.00  0.00    -0.266 NA
HETATM   24  C   UNL     1      43.668 -16.938   4.320  1.00  0.00     0.024 A 
HETATM   25  H   UNL     1      43.146 -15.026   2.312  1.00  0.00     0.130 HD
HETATM   26  C   UNL     1      44.315 -17.195   5.532  1.00  0.00     0.002 A 
HETATM   27  C   UNL     1      44.300 -16.244   6.554  1.00  0.00     0.001 A 
ENDBRANCH   8  15
TORSDOF 1
ENDMDL
MODEL 8
REMARK VINA RESULT:      -8.6      1.528      7.793
REMARK  1 active torsions:
REMARK  status: ('A' for Active; 'I' for Inactive)
REMARK    1  A    between atoms: C_8  and  C_9 
ROOT
HETATM    1  C   UNL     1      46.644 -10.820   7.553  1.00  0.00     0.049 C 
HETATM    2  C   UNL     1      45.342 -10.099   7.778  1.00  0.00    -0.050 A 
HETATM    3  C   UNL     1      44.104 -10.620   7.349  1.00  0.00    -0.002 A 
HETATM    4  C   UNL     1      42.926  -9.880   7.565  1.00  0.00     0.051 A 
HETATM    5  N   UNL     1      41.714 -10.395   7.079  1.00  0.00    -0.322 N 
HETATM    6  C   UNL     1      41.591 -11.575   6.405  1.00  0.00     0.255 A 
HETATM    7  O   UNL     1      40.501 -11.935   5.965  1.00  0.00    -0.268 OA
HETATM    8  C   UNL     1      42.809 -12.420   6.252  1.00  0.00     0.048 A 
HETATM    9  C   UNL     1      43.985 -11.926   6.687  1.00  0.00     0.030 A 
HETATM   10  C   UNL     1      42.953  -8.644   8.233  1.00  0.00    -0.034 A 
HETATM   11  C   UNL     1      41.706  -7.852   8.507  1.00  0.00     0.050 C 
HETATM   12  C   UNL     1      44.187  -8.148   8.669  1.00  0.00     0.009 A 
HETATM   13  C   UNL     1      45.364  -8.861   8.439  1.00  0.00     0.008 A 
HETATM   14  H   UNL     1      40.858  -9.869   7.185  1.00  0.00     0.169 HD
ENDROOT
BRANCH   8  15
HETATM   15  C   UNL     1      42.617 -13.752   5.562  1.00  0.00     0.202 C 
HETATM   16  N   UNL     1      43.302 -14.811   6.244  1.00  0.00    -0.336 N 
HETATM   17  C   UNL     1      43.279 -16.079   5.714  1.00  0.00     0.255 C 
HETATM   18  H   UNL     1      43.190 -14.830   7.256  1.00  0.00     0.164 HD
HETATM   19  O   UNL     1      43.394 -17.078   6.411  1.00  0.00    -0.268 OA
HETATM   20  C   UNL     1      43.149 -16.156   4.245  1.00  0.00     0.053 A 
HETATM   21  C   UNL     1      43.087 -14.948   3.539  1.00  0.00     0.026 A 
HETATM   22  C   UNL     1      43.154 -17.386   3.582  1.00  0.00     0.019 A 
HETATM   23  N   UNL     1      43.175 -13.701   4.207  1.00  0.00    -0.266 NA
HETATM   24  C   UNL     1      43.118 -14.986   2.144  1.00  0.00     0.024 A 
HETATM   25  H   UNL     1      44.172 -13.499   4.300  1.00  0.00     0.130 HD
HETATM   26  C   UNL     1      43.125 -16.211   1.471  1.00  0.00     0.002 A 
HETATM   27  C   UNL     1      43.134 -17.409   2.188  1.00  0.00     0.001 A 
ENDBRANCH   8  15
TORSDOF 1
ENDMDL
MODEL 9
REMARK VINA RESULT:      -8.6      3.491      4.512
REMARK  1 active torsions:
REMARK  status: ('A' for Active; 'I' for Inactive)
REMARK    1  A    between atoms: C_8  and  C_9 
ROOT
HETATM    1  C   UNL     1      44.066 -15.760   6.431  1.00  0.00     0.049 C 
HETATM    2  C   UNL     1      43.838 -16.685   5.266  1.00  0.00    -0.050 A 
HETATM    3  C   UNL     1      42.863 -16.432   4.280  1.00  0.00    -0.002 A 
HETATM    4  C   UNL     1      42.680 -17.354   3.231  1.00  0.00     0.051 A 
HETATM    5  N   UNL     1      41.666 -17.107   2.292  1.00  0.00    -0.322 N 
HETATM    6  C   UNL     1      40.834 -16.026   2.321  1.00  0.00     0.255 A 
HETATM    7  O   UNL     1      39.934 -15.905   1.492  1.00  0.00    -0.268 OA
HETATM    8  C   UNL     1      41.074 -14.989   3.364  1.00  0.00     0.048 A 
HETATM    9  C   UNL     1      42.025 -15.225   4.290  1.00  0.00     0.030 A 
HETATM   10  C   UNL     1      43.476 -18.507   3.126  1.00  0.00    -0.034 A 
HETATM   11  C   UNL     1      43.324 -19.488   1.999  1.00  0.00     0.050 C 
HETATM   12  C   UNL     1      44.451 -18.736   4.104  1.00  0.00     0.009 A 
HETATM   13  C   UNL     1      44.625 -17.842   5.161  1.00  0.00     0.008 A 
HETATM   14  H   UNL     1      41.485 -17.769   1.551  1.00  0.00     0.169 HD
ENDROOT
BRANCH   8  15
HETATM   15  C   UNL     1      40.177 -13.772   3.318  1.00  0.00     0.202 C 
HETATM   16  N   UNL     1      40.540 -12.879   2.257  1.00  0.00    -0.336 N 
HETATM   17  C   UNL     1      39.861 -11.693   2.114  1.00  0.00     0.255 C 
HETATM   18  H   UNL     1      40.720 -13.315   1.355  1.00  0.00     0.164 HD
HETATM   19  O   UNL     1      39.756 -11.130   1.032  1.00  0.00    -0.268 OA
HETATM   20  C   UNL     1      39.302 -11.121   3.355  1.00  0.00     0.053 A 
HETATM   21  C   UNL     1      39.534 -11.818   4.547  1.00  0.00     0.026 A 
HETATM   22  C   UNL     1      38.624  -9.899   3.347  1.00  0.00     0.019 A 
HETATM   23  N   UNL     1      40.301 -13.009   4.565  1.00  0.00    -0.266 NA
HETATM   24  C   UNL     1      39.153 -11.227   5.753  1.00  0.00     0.024 A 
HETATM   25  H   UNL     1      41.276 -12.718   4.643  1.00  0.00     0.130 HD
HETATM   26  C   UNL     1      38.477 -10.003   5.757  1.00  0.00     0.002 A 
HETATM   27  C   UNL     1      38.205  -9.345   4.556  1.00  0.00     0.001 A 
ENDBRANCH   8  15
TORSDOF 1
ENDMDL
MODEL 10
REMARK VINA RESULT:      -8.5      2.346      3.884
REMARK  1 active torsions:
REMARK  status: ('A' for Active; 'I' for Inactive)
REMARK    1  A    between atoms: C_8  and  C_9 
ROOT
HETATM    1  C   UNL     1      44.338 -16.817   5.420  1.00  0.00     0.049 C 
HETATM    2  C   UNL     1      43.332 -16.392   4.384  1.00  0.00    -0.050 A 
HETATM    3  C   UNL     1      42.906 -15.055   4.249  1.00  0.00    -0.002 A 
HETATM    4  C   UNL     1      41.939 -14.729   3.278  1.00  0.00     0.051 A 
HETATM    5  N   UNL     1      41.490 -13.401   3.200  1.00  0.00    -0.322 N 
HETATM    6  C   UNL     1      41.927 -12.390   4.006  1.00  0.00     0.255 A 
HETATM    7  O   UNL     1      41.448 -11.262   3.912  1.00  0.00    -0.268 OA
HETATM    8  C   UNL     1      43.019 -12.692   4.973  1.00  0.00     0.048 A 
HETATM    9  C   UNL     1      43.441 -13.968   5.080  1.00  0.00     0.030 A 
HETATM   10  C   UNL     1      41.415 -15.704   2.413  1.00  0.00    -0.034 A 
HETATM   11  C   UNL     1      40.410 -15.376   1.347  1.00  0.00     0.050 C 
HETATM   12  C   UNL     1      41.862 -17.024   2.548  1.00  0.00     0.009 A 
HETATM   13  C   UNL     1      42.801 -17.364   3.523  1.00  0.00     0.008 A 
HETATM   14  H   UNL     1      40.770 -13.144   2.540  1.00  0.00     0.169 HD
ENDROOT
BRANCH   8  15
HETATM   15  C   UNL     1      43.525 -11.529   5.798  1.00  0.00     0.202 C 
HETATM   16  N   UNL     1      44.771 -11.829   6.439  1.00  0.00    -0.336 N 
HETATM   17  C   UNL     1      45.340 -10.898   7.276  1.00  0.00     0.255 C 
HETATM   18  H   UNL     1      45.472 -12.278   5.853  1.00  0.00     0.164 HD
HETATM   19  O   UNL     1      46.547 -10.846   7.466  1.00  0.00    -0.268 OA
HETATM   20  C   UNL     1      44.396  -9.994   7.961  1.00  0.00     0.053 A 
HETATM   21  C   UNL     1      43.030 -10.182   7.717  1.00  0.00     0.026 A 
HETATM   22  C   UNL     1      44.846  -9.031   8.868  1.00  0.00     0.019 A 
HETATM   23  N   UNL     1      42.571 -11.220   6.868  1.00  0.00    -0.266 NA
HETATM   24  C   UNL     1      42.108  -9.446   8.464  1.00  0.00     0.024 A 
HETATM   25  H   UNL     1      42.496 -12.053   7.454  1.00  0.00     0.130 HD
HETATM   26  C   UNL     1      42.548  -8.482   9.376  1.00  0.00     0.002 A 
HETATM   27  C   UNL     1      43.914  -8.268   9.571  1.00  0.00     0.001 A 
ENDBRANCH   8  15
TORSDOF 1
ENDMDL
