MODEL 1
REMARK VINA RESULT:      -7.7      0.000      0.000
REMARK  6 active torsions:
REMARK  status: ('A' for Active; 'I' for Inactive)
REMARK    1  A    between atoms: C_3  and  C_4 
REMARK    2  A    between atoms: C_4  and  C_5 
REMARK    3  A    between atoms: C_5  and  C_6 
REMARK    4  A    between atoms: C_6  and  C_7 
REMARK       I    between atoms: C_7  and  N_8 
REMARK    5  A    between atoms: N_8  and  C_9 
REMARK    6  A    between atoms: C_11  and  C_12 
ROOT
HETATM    1  C   UNL     1      40.847 -15.070   4.574  1.00  0.00     0.222 C 
HETATM    2  N   UNL     1      40.234 -15.201   3.341  1.00  0.00    -0.327 N 
HETATM    3  O   UNL     1      41.224 -14.026   5.096  1.00  0.00    -0.273 OA
HETATM    4  H   UNL     1      39.982 -16.137   3.049  1.00  0.00     0.169 HD
ENDROOT
BRANCH   2   5
HETATM    5  C   UNL     1      39.898 -14.171   2.434  1.00  0.00     0.035 A 
HETATM    6  C   UNL     1      40.329 -14.127   1.104  1.00  0.00     0.042 A 
HETATM    7  C   UNL     1      39.952 -13.075   0.249  1.00  0.00    -0.021 A 
HETATM    8  C   UNL     1      39.140 -12.055   0.758  1.00  0.00     0.012 A 
HETATM    9  C   UNL     1      38.709 -12.086   2.085  1.00  0.00     0.003 A 
HETATM   10  C   UNL     1      39.083 -13.141   2.916  1.00  0.00     0.029 A 
BRANCH   7  11
HETATM   11  C   UNL     1      40.393 -13.035  -1.140  1.00  0.00     0.010 A 
HETATM   12  C   UNL     1      40.153 -13.926  -2.216  1.00  0.00     0.152 A 
HETATM   13  N   UNL     1      40.749 -13.547  -3.351  1.00  0.00    -0.187 NA
HETATM   14  N   UNL     1      41.373 -12.410  -3.010  1.00  0.00    -0.289 N 
HETATM   15  H   UNL     1      41.907 -11.920  -3.720  1.00  0.00     0.188 HD
HETATM   16  C   UNL     1      41.195 -12.064  -1.702  1.00  0.00     0.123 A 
ENDBRANCH   7  11
ENDBRANCH   2   5
BRANCH   1  17
HETATM   17  C   UNL     1      41.028 -16.402   5.285  1.00  0.00     0.103 C 
BRANCH  17  18
HETATM   18  C   UNL     1      42.365 -16.464   6.020  1.00  0.00     0.014 C 
BRANCH  18  19
HETATM   19  C   UNL     1      43.549 -16.432   5.047  1.00  0.00     0.047 C 
BRANCH  19  20
HETATM   20  C   UNL     1      43.622 -17.686   4.222  1.00  0.00    -0.012 A 
HETATM   21  C   UNL     1      43.429 -17.829   2.856  1.00  0.00    -0.049 A 
HETATM   22  C   UNL     1      43.104 -16.720   1.907  1.00  0.00     0.049 C 
HETATM   23  C   UNL     1      43.596 -19.195   2.455  1.00  0.00     0.015 A 
HETATM   24  C   UNL     1      43.897 -20.027   3.509  1.00  0.00     0.051 A 
HETATM   25  S   UNL     1      43.990 -19.177   4.984  1.00  0.00    -0.106 SA
ENDBRANCH  19  20
ENDBRANCH  18  19
ENDBRANCH  17  18
ENDBRANCH   1  17
TORSDOF 6
ENDMDL
MODEL 2
REMARK VINA RESULT:      -7.7      3.835      8.375
REMARK  6 active torsions:
REMARK  status: ('A' for Active; 'I' for Inactive)
REMARK    1  A    between atoms: C_3  and  C_4 
REMARK    2  A    between atoms: C_4  and  C_5 
REMARK    3  A    between atoms: C_5  and  C_6 
REMARK    4  A    between atoms: C_6  and  C_7 
REMARK       I    between atoms: C_7  and  N_8 
REMARK    5  A    between atoms: N_8  and  C_9 
REMARK    6  A    between atoms: C_11  and  C_12 
ROOT
HETATM    1  C   UNL     1      40.741 -14.890   0.792  1.00  0.00     0.222 C 
HETATM    2  N   UNL     1      42.073 -15.096   1.107  1.00  0.00    -0.327 N 
HETATM    3  O   UNL     1      39.771 -15.272   1.437  1.00  0.00    -0.273 OA
HETATM    4  H   UNL     1      42.760 -14.716   0.469  1.00  0.00     0.169 HD
ENDROOT
BRANCH   2   5
HETATM    5  C   UNL     1      42.596 -15.769   2.233  1.00  0.00     0.035 A 
HETATM    6  C   UNL     1      42.879 -17.138   2.267  1.00  0.00     0.042 A 
HETATM    7  C   UNL     1      43.407 -17.747   3.420  1.00  0.00    -0.021 A 
HETATM    8  C   UNL     1      43.637 -16.955   4.551  1.00  0.00     0.012 A 
HETATM    9  C   UNL     1      43.353 -15.589   4.531  1.00  0.00     0.003 A 
HETATM   10  C   UNL     1      42.839 -14.999   3.376  1.00  0.00     0.029 A 
BRANCH   7  11
HETATM   11  C   UNL     1      43.712 -19.172   3.450  1.00  0.00     0.010 A 
HETATM   12  C   UNL     1      43.613 -20.164   2.444  1.00  0.00     0.152 A 
HETATM   13  N   UNL     1      43.978 -21.378   2.869  1.00  0.00    -0.187 NA
HETATM   14  N   UNL     1      44.315 -21.171   4.150  1.00  0.00    -0.289 N 
HETATM   15  H   UNL     1      44.633 -21.961   4.700  1.00  0.00     0.188 HD
HETATM   16  C   UNL     1      44.169 -19.873   4.547  1.00  0.00     0.123 A 
ENDBRANCH   7  11
ENDBRANCH   2   5
BRANCH   1  17
HETATM   17  C   UNL     1      40.557 -14.098  -0.493  1.00  0.00     0.103 C 
BRANCH  17  18
HETATM   18  C   UNL     1      39.398 -14.648  -1.323  1.00  0.00     0.014 C 
BRANCH  18  19
HETATM   19  C   UNL     1      39.415 -14.100  -2.754  1.00  0.00     0.047 C 
BRANCH  19  20
HETATM   20  C   UNL     1      38.810 -12.726  -2.828  1.00  0.00    -0.012 A 
HETATM   21  C   UNL     1      39.451 -11.514  -3.035  1.00  0.00    -0.049 A 
HETATM   22  C   UNL     1      40.922 -11.336  -3.235  1.00  0.00     0.049 C 
HETATM   23  C   UNL     1      38.510 -10.432  -3.047  1.00  0.00     0.015 A 
HETATM   24  C   UNL     1      37.215 -10.850  -2.846  1.00  0.00     0.051 A 
HETATM   25  S   UNL     1      37.115 -12.541  -2.650  1.00  0.00    -0.106 SA
ENDBRANCH  19  20
ENDBRANCH  18  19
ENDBRANCH  17  18
ENDBRANCH   1  17
TORSDOF 6
ENDMDL
MODEL 3
REMARK VINA RESULT:      -7.5      3.417      6.733
REMARK  6 active torsions:
REMARK  status: ('A' for Active; 'I' for Inactive)
REMARK    1  A    between atoms: C_3  and  C_4 
REMARK    2  A    between atoms: C_4  and  C_5 
REMARK    3  A    between atoms: C_5  and  C_6 
REMARK    4  A    between atoms: C_6  and  C_7 
REMARK       I    between atoms: C_7  and  N_8 
REMARK    5  A    between atoms: N_8  and  C_9 
REMARK    6  A    between atoms: C_11  and  C_12 
ROOT
HETATM    1  C   UNL     1      40.462 -13.979   5.761  1.00  0.00     0.222 C 
HETATM    2  N   UNL     1      41.657 -14.129   5.079  1.00  0.00    -0.327 N 
HETATM    3  O   UNL     1      39.991 -14.753   6.587  1.00  0.00    -0.273 OA
HETATM    4  H   UNL     1      41.908 -13.398   4.425  1.00  0.00     0.169 HD
ENDROOT
BRANCH   2   5
HETATM    5  C   UNL     1      42.588 -15.184   5.196  1.00  0.00     0.035 A 
HETATM    6  C   UNL     1      42.599 -16.316   4.375  1.00  0.00     0.042 A 
HETATM    7  C   UNL     1      43.560 -17.330   4.540  1.00  0.00    -0.021 A 
HETATM    8  C   UNL     1      44.511 -17.193   5.559  1.00  0.00     0.012 A 
HETATM    9  C   UNL     1      44.506 -16.071   6.388  1.00  0.00     0.003 A 
HETATM   10  C   UNL     1      43.552 -15.071   6.205  1.00  0.00     0.029 A 
BRANCH   7  11
HETATM   11  C   UNL     1      43.577 -18.503   3.676  1.00  0.00     0.010 A 
HETATM   12  C   UNL     1      43.136 -18.680   2.341  1.00  0.00     0.152 A 
HETATM   13  N   UNL     1      43.311 -19.928   1.893  1.00  0.00    -0.187 NA
HETATM   14  N   UNL     1      43.867 -20.558   2.939  1.00  0.00    -0.289 N 
HETATM   15  H   UNL     1      44.100 -21.540   2.842  1.00  0.00     0.188 HD
HETATM   16  C   UNL     1      44.043 -19.754   4.027  1.00  0.00     0.123 A 
ENDBRANCH   7  11
ENDBRANCH   2   5
BRANCH   1  17
HETATM   17  C   UNL     1      39.731 -12.698   5.391  1.00  0.00     0.103 C 
BRANCH  17  18
HETATM   18  C   UNL     1      40.101 -12.233   3.984  1.00  0.00     0.014 C 
BRANCH  18  19
HETATM   19  C   UNL     1      39.010 -12.585   2.965  1.00  0.00     0.047 C 
BRANCH  19  20
HETATM   20  C   UNL     1      39.596 -13.116   1.687  1.00  0.00    -0.012 A 
HETATM   21  C   UNL     1      39.947 -14.422   1.380  1.00  0.00    -0.049 A 
HETATM   22  C   UNL     1      39.801 -15.596   2.295  1.00  0.00     0.049 C 
HETATM   23  C   UNL     1      40.466 -14.513   0.047  1.00  0.00     0.015 A 
HETATM   24  C   UNL     1      40.496 -13.298  -0.597  1.00  0.00     0.051 A 
HETATM   25  S   UNL     1      39.897 -12.041   0.387  1.00  0.00    -0.106 SA
ENDBRANCH  19  20
ENDBRANCH  18  19
ENDBRANCH  17  18
ENDBRANCH   1  17
TORSDOF 6
ENDMDL
MODEL 4
REMARK VINA RESULT:      -7.5      1.740      2.396
REMARK  6 active torsions:
REMARK  status: ('A' for Active; 'I' for Inactive)
REMARK    1  A    between atoms: C_3  and  C_4 
REMARK    2  A    between atoms: C_4  and  C_5 
REMARK    3  A    between atoms: C_5  and  C_6 
REMARK    4  A    between atoms: C_6  and  C_7 
REMARK       I    between atoms: C_7  and  N_8 
REMARK    5  A    between atoms: N_8  and  C_9 
REMARK    6  A    between atoms: C_11  and  C_12 
ROOT
HETATM    1  C   UNL     1      41.681 -15.712   6.597  1.00  0.00     0.222 C 
HETATM    2  N   UNL     1      41.992 -14.738   5.664  1.00  0.00    -0.327 N 
HETATM    3  O   UNL     1      40.559 -16.100   6.901  1.00  0.00    -0.273 OA
HETATM    4  H   UNL     1      42.973 -14.528   5.527  1.00  0.00     0.169 HD
ENDROOT
BRANCH   2   5
HETATM    5  C   UNL     1      41.095 -14.001   4.859  1.00  0.00     0.035 A 
HETATM    6  C   UNL     1      40.906 -14.224   3.491  1.00  0.00     0.042 A 
HETATM    7  C   UNL     1      39.990 -13.458   2.747  1.00  0.00    -0.021 A 
HETATM    8  C   UNL     1      39.271 -12.449   3.400  1.00  0.00     0.012 A 
HETATM    9  C   UNL     1      39.458 -12.214   4.763  1.00  0.00     0.003 A 
HETATM   10  C   UNL     1      40.362 -12.989   5.488  1.00  0.00     0.029 A 
BRANCH   7  11
HETATM   11  C   UNL     1      39.784 -13.698   1.324  1.00  0.00     0.010 A 
HETATM   12  C   UNL     1      39.350 -12.832   0.290  1.00  0.00     0.152 A 
HETATM   13  N   UNL     1      39.272 -13.437  -0.900  1.00  0.00    -0.187 NA
HETATM   14  N   UNL     1      39.659 -14.694  -0.636  1.00  0.00    -0.289 N 
HETATM   15  H   UNL     1      39.684 -15.362  -1.399  1.00  0.00     0.188 HD
HETATM   16  C   UNL     1      39.970 -14.902   0.676  1.00  0.00     0.123 A 
ENDBRANCH   7  11
ENDBRANCH   2   5
BRANCH   1  17
HETATM   17  C   UNL     1      42.915 -16.308   7.257  1.00  0.00     0.103 C 
BRANCH  17  18
HETATM   18  C   UNL     1      43.291 -17.646   6.625  1.00  0.00     0.014 C 
BRANCH  18  19
HETATM   19  C   UNL     1      44.218 -17.463   5.419  1.00  0.00     0.047 C 
BRANCH  19  20
HETATM   20  C   UNL     1      43.962 -18.500   4.361  1.00  0.00    -0.012 A 
HETATM   21  C   UNL     1      43.520 -18.310   3.060  1.00  0.00    -0.049 A 
HETATM   22  C   UNL     1      43.204 -16.989   2.437  1.00  0.00     0.049 C 
HETATM   23  C   UNL     1      43.412 -19.562   2.369  1.00  0.00     0.015 A 
HETATM   24  C   UNL     1      43.762 -20.636   3.153  1.00  0.00     0.051 A 
HETATM   25  S   UNL     1      44.231 -20.155   4.720  1.00  0.00    -0.106 SA
ENDBRANCH  19  20
ENDBRANCH  18  19
ENDBRANCH  17  18
ENDBRANCH   1  17
TORSDOF 6
ENDMDL
MODEL 5
REMARK VINA RESULT:      -7.5      4.218      6.174
REMARK  6 active torsions:
REMARK  status: ('A' for Active; 'I' for Inactive)
REMARK    1  A    between atoms: C_3  and  C_4 
REMARK    2  A    between atoms: C_4  and  C_5 
REMARK    3  A    between atoms: C_5  and  C_6 
REMARK    4  A    between atoms: C_6  and  C_7 
REMARK       I    between atoms: C_7  and  N_8 
REMARK    5  A    between atoms: N_8  and  C_9 
REMARK    6  A    between atoms: C_11  and  C_12 
ROOT
HETATM    1  C   UNL     1      41.371 -14.878   3.821  1.00  0.00     0.222 C 
HETATM    2  N   UNL     1      41.649 -14.524   5.130  1.00  0.00    -0.327 N 
HETATM    3  O   UNL     1      41.256 -14.117   2.867  1.00  0.00    -0.273 OA
HETATM    4  H   UNL     1      41.711 -15.275   5.806  1.00  0.00     0.169 HD
ENDROOT
BRANCH   2   5
HETATM    5  C   UNL     1      41.875 -13.226   5.640  1.00  0.00     0.035 A 
HETATM    6  C   UNL     1      43.126 -12.749   6.043  1.00  0.00     0.042 A 
HETATM    7  C   UNL     1      43.285 -11.442   6.537  1.00  0.00    -0.021 A 
HETATM    8  C   UNL     1      42.156 -10.618   6.632  1.00  0.00     0.012 A 
HETATM    9  C   UNL     1      40.902 -11.086   6.237  1.00  0.00     0.003 A 
HETATM   10  C   UNL     1      40.764 -12.382   5.741  1.00  0.00     0.029 A 
BRANCH   7  11
HETATM   11  C   UNL     1      44.591 -10.941   6.946  1.00  0.00     0.010 A 
HETATM   12  C   UNL     1      44.949  -9.932   7.875  1.00  0.00     0.152 A 
HETATM   13  N   UNL     1      46.270  -9.750   7.965  1.00  0.00    -0.187 NA
HETATM   14  N   UNL     1      46.767 -10.642   7.096  1.00  0.00    -0.289 N 
HETATM   15  H   UNL     1      47.774 -10.698   6.982  1.00  0.00     0.188 HD
HETATM   16  C   UNL     1      45.807 -11.374   6.459  1.00  0.00     0.123 A 
ENDBRANCH   7  11
ENDBRANCH   2   5
BRANCH   1  17
HETATM   17  C   UNL     1      41.212 -16.380   3.640  1.00  0.00     0.103 C 
BRANCH  17  18
HETATM   18  C   UNL     1      41.773 -16.840   2.296  1.00  0.00     0.014 C 
BRANCH  18  19
HETATM   19  C   UNL     1      43.282 -17.099   2.371  1.00  0.00     0.047 C 
BRANCH  19  20
HETATM   20  C   UNL     1      43.588 -18.394   3.068  1.00  0.00    -0.012 A 
HETATM   21  C   UNL     1      44.057 -18.586   4.360  1.00  0.00    -0.049 A 
HETATM   22  C   UNL     1      44.355 -17.499   5.342  1.00  0.00     0.049 C 
HETATM   23  C   UNL     1      44.211 -19.982   4.647  1.00  0.00     0.015 A 
HETATM   24  C   UNL     1      43.867 -20.785   3.585  1.00  0.00     0.051 A 
HETATM   25  S   UNL     1      43.350 -19.876   2.239  1.00  0.00    -0.106 SA
ENDBRANCH  19  20
ENDBRANCH  18  19
ENDBRANCH  17  18
ENDBRANCH   1  17
TORSDOF 6
ENDMDL
MODEL 6
REMARK VINA RESULT:      -7.4      4.982      7.951
REMARK  6 active torsions:
REMARK  status: ('A' for Active; 'I' for Inactive)
REMARK    1  A    between atoms: C_3  and  C_4 
REMARK    2  A    between atoms: C_4  and  C_5 
REMARK    3  A    between atoms: C_5  and  C_6 
REMARK    4  A    between atoms: C_6  and  C_7 
REMARK       I    between atoms: C_7  and  N_8 
REMARK    5  A    between atoms: N_8  and  C_9 
REMARK    6  A    between atoms: C_11  and  C_12 
ROOT
HETATM    1  C   UNL     1      41.664 -13.928   5.353  1.00  0.00     0.222 C 
HETATM    2  N   UNL     1      42.814 -14.218   4.640  1.00  0.00    -0.327 N 
HETATM    3  O   UNL     1      40.627 -14.583   5.364  1.00  0.00    -0.273 OA
HETATM    4  H   UNL     1      43.589 -13.574   4.737  1.00  0.00     0.169 HD
ENDROOT
BRANCH   2   5
HETATM    5  C   UNL     1      43.046 -15.325   3.794  1.00  0.00     0.035 A 
HETATM    6  C   UNL     1      43.300 -16.622   4.251  1.00  0.00     0.042 A 
HETATM    7  C   UNL     1      43.516 -17.684   3.354  1.00  0.00    -0.021 A 
HETATM    8  C   UNL     1      43.484 -17.418   1.979  1.00  0.00     0.012 A 
HETATM    9  C   UNL     1      43.236 -16.126   1.512  1.00  0.00     0.003 A 
HETATM   10  C   UNL     1      43.015 -15.087   2.415  1.00  0.00     0.029 A 
BRANCH   7  11
HETATM   11  C   UNL     1      43.770 -19.037   3.831  1.00  0.00     0.010 A 
HETATM   12  C   UNL     1      44.124 -19.517   5.117  1.00  0.00     0.152 A 
HETATM   13  N   UNL     1      44.287 -20.843   5.153  1.00  0.00    -0.187 NA
HETATM   14  N   UNL     1      44.036 -21.222   3.891  1.00  0.00    -0.289 N 
HETATM   15  H   UNL     1      44.097 -22.208   3.661  1.00  0.00     0.188 HD
HETATM   16  C   UNL     1      43.728 -20.182   3.062  1.00  0.00     0.123 A 
ENDBRANCH   7  11
ENDBRANCH   2   5
BRANCH   1  17
HETATM   17  C   UNL     1      41.789 -12.659   6.180  1.00  0.00     0.103 C 
BRANCH  17  18
HETATM   18  C   UNL     1      43.253 -12.292   6.418  1.00  0.00     0.014 C 
BRANCH  18  19
HETATM   19  C   UNL     1      43.476 -10.777   6.348  1.00  0.00     0.047 C 
BRANCH  19  20
HETATM   20  C   UNL     1      43.939 -10.225   7.668  1.00  0.00    -0.012 A 
HETATM   21  C   UNL     1      45.226 -10.195   8.184  1.00  0.00    -0.049 A 
HETATM   22  C   UNL     1      46.445 -10.723   7.499  1.00  0.00     0.049 C 
HETATM   23  C   UNL     1      45.246  -9.572   9.475  1.00  0.00     0.015 A 
HETATM   24  C   UNL     1      43.999  -9.164   9.889  1.00  0.00     0.051 A 
HETATM   25  S   UNL     1      42.797  -9.517   8.732  1.00  0.00    -0.106 SA
ENDBRANCH  19  20
ENDBRANCH  18  19
ENDBRANCH  17  18
ENDBRANCH   1  17
TORSDOF 6
ENDMDL
MODEL 7
REMARK VINA RESULT:      -7.4      2.159      3.010
REMARK  6 active torsions:
REMARK  status: ('A' for Active; 'I' for Inactive)
REMARK    1  A    between atoms: C_3  and  C_4 
REMARK    2  A    between atoms: C_4  and  C_5 
REMARK    3  A    between atoms: C_5  and  C_6 
REMARK    4  A    between atoms: C_6  and  C_7 
REMARK       I    between atoms: C_7  and  N_8 
REMARK    5  A    between atoms: N_8  and  C_9 
REMARK    6  A    between atoms: C_11  and  C_12 
ROOT
HETATM    1  C   UNL     1      40.696 -15.139   2.600  1.00  0.00     0.222 C 
HETATM    2  N   UNL     1      41.045 -15.093   1.261  1.00  0.00    -0.327 N 
HETATM    3  O   UNL     1      39.984 -14.339   3.197  1.00  0.00    -0.273 OA
HETATM    4  H   UNL     1      41.644 -15.832   0.916  1.00  0.00     0.169 HD
ENDROOT
BRANCH   2   5
HETATM    5  C   UNL     1      40.648 -14.136   0.301  1.00  0.00     0.035 A 
HETATM    6  C   UNL     1      41.121 -12.820   0.264  1.00  0.00     0.042 A 
HETATM    7  C   UNL     1      40.691 -11.917  -0.725  1.00  0.00    -0.021 A 
HETATM    8  C   UNL     1      39.760 -12.355  -1.675  1.00  0.00     0.012 A 
HETATM    9  C   UNL     1      39.277 -13.664  -1.644  1.00  0.00     0.003 A 
HETATM   10  C   UNL     1      39.722 -14.549  -0.663  1.00  0.00     0.029 A 
BRANCH   7  11
HETATM   11  C   UNL     1      41.193 -10.550  -0.770  1.00  0.00     0.010 A 
HETATM   12  C   UNL     1      41.426  -9.682  -1.866  1.00  0.00     0.152 A 
HETATM   13  N   UNL     1      41.912  -8.492  -1.497  1.00  0.00    -0.187 NA
HETATM   14  N   UNL     1      41.991  -8.590  -0.162  1.00  0.00    -0.289 N 
HETATM   15  H   UNL     1      42.340  -7.793   0.360  1.00  0.00     0.188 HD
HETATM   16  C   UNL     1      41.579  -9.797   0.321  1.00  0.00     0.123 A 
ENDBRANCH   7  11
ENDBRANCH   2   5
BRANCH   1  17
HETATM   17  C   UNL     1      41.296 -16.335   3.322  1.00  0.00     0.103 C 
BRANCH  17  18
HETATM   18  C   UNL     1      42.000 -17.278   2.348  1.00  0.00     0.014 C 
BRANCH  18  19
HETATM   19  C   UNL     1      43.478 -17.466   2.708  1.00  0.00     0.047 C 
BRANCH  19  20
HETATM   20  C   UNL     1      43.697 -18.722   3.504  1.00  0.00    -0.012 A 
HETATM   21  C   UNL     1      43.723 -20.033   3.051  1.00  0.00    -0.049 A 
HETATM   22  C   UNL     1      43.534 -20.463   1.632  1.00  0.00     0.049 C 
HETATM   23  C   UNL     1      43.972 -20.943   4.131  1.00  0.00     0.015 A 
HETATM   24  C   UNL     1      44.116 -20.306   5.342  1.00  0.00     0.051 A 
HETATM   25  S   UNL     1      43.964 -18.615   5.194  1.00  0.00    -0.106 SA
ENDBRANCH  19  20
ENDBRANCH  18  19
ENDBRANCH  17  18
ENDBRANCH   1  17
TORSDOF 6
ENDMDL
MODEL 8
REMARK VINA RESULT:      -7.4      4.421      7.057
REMARK  6 active torsions:
REMARK  status: ('A' for Active; 'I' for Inactive)
REMARK    1  A    between atoms: C_3  and  C_4 
REMARK    2  A    between atoms: C_4  and  C_5 
REMARK    3  A    between atoms: C_5  and  C_6 
REMARK    4  A    between atoms: C_6  and  C_7 
REMARK       I    between atoms: C_7  and  N_8 
REMARK    5  A    between atoms: N_8  and  C_9 
REMARK    6  A    between atoms: C_11  and  C_12 
ROOT
HETATM    1  C   UNL     1      40.585 -13.932   5.521  1.00  0.00     0.222 C 
HETATM    2  N   UNL     1      41.729 -14.226   4.801  1.00  0.00    -0.327 N 
HETATM    3  O   UNL     1      40.122 -14.580   6.454  1.00  0.00    -0.273 OA
HETATM    4  H   UNL     1      41.980 -13.589   4.056  1.00  0.00     0.169 HD
ENDROOT
BRANCH   2   5
HETATM    5  C   UNL     1      42.609 -15.315   4.991  1.00  0.00     0.035 A 
HETATM    6  C   UNL     1      42.612 -16.468   4.200  1.00  0.00     0.042 A 
HETATM    7  C   UNL     1      43.522 -17.515   4.437  1.00  0.00    -0.021 A 
HETATM    8  C   UNL     1      44.426 -17.389   5.499  1.00  0.00     0.012 A 
HETATM    9  C   UNL     1      44.428 -16.246   6.299  1.00  0.00     0.003 A 
HETATM   10  C   UNL     1      43.526 -15.213   6.043  1.00  0.00     0.029 A 
BRANCH   7  11
HETATM   11  C   UNL     1      43.532 -18.711   3.605  1.00  0.00     0.010 A 
HETATM   12  C   UNL     1      43.951 -20.035   3.888  1.00  0.00     0.152 A 
HETATM   13  N   UNL     1      43.816 -20.860   2.845  1.00  0.00    -0.187 NA
HETATM   14  N   UNL     1      43.307 -20.070   1.888  1.00  0.00    -0.289 N 
HETATM   15  H   UNL     1      43.111 -20.477   0.979  1.00  0.00     0.188 HD
HETATM   16  C   UNL     1      43.124 -18.779   2.289  1.00  0.00     0.123 A 
ENDBRANCH   7  11
ENDBRANCH   2   5
BRANCH   1  17
HETATM   17  C   UNL     1      39.902 -12.660   5.045  1.00  0.00     0.103 C 
BRANCH  17  18
HETATM   18  C   UNL     1      40.296 -11.461   5.907  1.00  0.00     0.014 C 
BRANCH  18  19
HETATM   19  C   UNL     1      41.339 -10.580   5.209  1.00  0.00     0.047 C 
BRANCH  19  20
HETATM   20  C   UNL     1      42.721 -10.832   5.742  1.00  0.00    -0.012 A 
HETATM   21  C   UNL     1      43.825 -11.332   5.066  1.00  0.00    -0.049 A 
HETATM   22  C   UNL     1      43.851 -11.728   3.625  1.00  0.00     0.049 C 
HETATM   23  C   UNL     1      44.963 -11.413   5.934  1.00  0.00     0.015 A 
HETATM   24  C   UNL     1      44.690 -10.986   7.212  1.00  0.00     0.051 A 
HETATM   25  S   UNL     1      43.071 -10.479   7.382  1.00  0.00    -0.106 SA
ENDBRANCH  19  20
ENDBRANCH  18  19
ENDBRANCH  17  18
ENDBRANCH   1  17
TORSDOF 6
ENDMDL
MODEL 9
REMARK VINA RESULT:      -7.4      3.436      7.339
REMARK  6 active torsions:
REMARK  status: ('A' for Active; 'I' for Inactive)
REMARK    1  A    between atoms: C_3  and  C_4 
REMARK    2  A    between atoms: C_4  and  C_5 
REMARK    3  A    between atoms: C_5  and  C_6 
REMARK    4  A    between atoms: C_6  and  C_7 
REMARK       I    between atoms: C_7  and  N_8 
REMARK    5  A    between atoms: N_8  and  C_9 
REMARK    6  A    between atoms: C_11  and  C_12 
ROOT
HETATM    1  C   UNL     1      40.409 -15.288   0.600  1.00  0.00     0.222 C 
HETATM    2  N   UNL     1      41.683 -15.051   1.087  1.00  0.00    -0.327 N 
HETATM    3  O   UNL     1      39.614 -16.127   1.011  1.00  0.00    -0.273 OA
HETATM    4  H   UNL     1      42.218 -14.320   0.636  1.00  0.00     0.169 HD
ENDROOT
BRANCH   2   5
HETATM    5  C   UNL     1      42.329 -15.705   2.159  1.00  0.00     0.035 A 
HETATM    6  C   UNL     1      42.645 -17.067   2.171  1.00  0.00     0.042 A 
HETATM    7  C   UNL     1      43.297 -17.656   3.270  1.00  0.00    -0.021 A 
HETATM    8  C   UNL     1      43.619 -16.851   4.370  1.00  0.00     0.012 A 
HETATM    9  C   UNL     1      43.303 -15.491   4.370  1.00  0.00     0.003 A 
HETATM   10  C   UNL     1      42.665 -14.922   3.269  1.00  0.00     0.029 A 
BRANCH   7  11
HETATM   11  C   UNL     1      43.636 -19.073   3.278  1.00  0.00     0.010 A 
HETATM   12  C   UNL     1      43.628 -20.036   2.237  1.00  0.00     0.152 A 
HETATM   13  N   UNL     1      43.995 -21.253   2.648  1.00  0.00    -0.187 NA
HETATM   14  N   UNL     1      44.243 -21.078   3.955  1.00  0.00    -0.289 N 
HETATM   15  H   UNL     1      44.545 -21.879   4.500  1.00  0.00     0.188 HD
HETATM   16  C   UNL     1      44.039 -19.798   4.380  1.00  0.00     0.123 A 
ENDBRANCH   7  11
ENDBRANCH   2   5
BRANCH   1  17
HETATM   17  C   UNL     1      40.040 -14.370  -0.555  1.00  0.00     0.103 C 
BRANCH  17  18
HETATM   18  C   UNL     1      40.757 -13.025  -0.445  1.00  0.00     0.014 C 
BRANCH  18  19
HETATM   19  C   UNL     1      39.890 -11.976   0.262  1.00  0.00     0.047 C 
BRANCH  19  20
HETATM   20  C   UNL     1      40.480 -11.570   1.583  1.00  0.00    -0.012 A 
HETATM   21  C   UNL     1      40.201 -12.079   2.842  1.00  0.00    -0.049 A 
HETATM   22  C   UNL     1      39.225 -13.172   3.137  1.00  0.00     0.049 C 
HETATM   23  C   UNL     1      40.988 -11.423   3.845  1.00  0.00     0.015 A 
HETATM   24  C   UNL     1      41.816 -10.456   3.325  1.00  0.00     0.051 A 
HETATM   25  S   UNL     1      41.663 -10.330   1.632  1.00  0.00    -0.106 SA
ENDBRANCH  19  20
ENDBRANCH  18  19
ENDBRANCH  17  18
ENDBRANCH   1  17
TORSDOF 6
ENDMDL
MODEL 10
REMARK VINA RESULT:      -7.3      6.106      8.658
REMARK  6 active torsions:
REMARK  status: ('A' for Active; 'I' for Inactive)
REMARK    1  A    between atoms: C_3  and  C_4 
REMARK    2  A    between atoms: C_4  and  C_5 
REMARK    3  A    between atoms: C_5  and  C_6 
REMARK    4  A    between atoms: C_6  and  C_7 
REMARK       I    between atoms: C_7  and  N_8 
REMARK    5  A    between atoms: N_8  and  C_9 
REMARK    6  A    between atoms: C_11  and  C_12 
ROOT
HETATM    1  C   UNL     1      43.292 -12.408   5.553  1.00  0.00     0.222 C 
HETATM    2  N   UNL     1      44.236 -12.510   6.559  1.00  0.00    -0.327 N 
HETATM    3  O   UNL     1      42.659 -11.404   5.243  1.00  0.00    -0.273 OA
HETATM    4  H   UNL     1      44.672 -13.414   6.691  1.00  0.00     0.169 HD
ENDROOT
BRANCH   2   5
HETATM    5  C   UNL     1      44.680 -11.488   7.428  1.00  0.00     0.035 A 
HETATM    6  C   UNL     1      44.050 -11.152   8.630  1.00  0.00     0.042 A 
HETATM    7  C   UNL     1      44.549 -10.127   9.455  1.00  0.00    -0.021 A 
HETATM    8  C   UNL     1      45.693  -9.432   9.043  1.00  0.00     0.012 A 
HETATM    9  C   UNL     1      46.326  -9.755   7.842  1.00  0.00     0.003 A 
HETATM   10  C   UNL     1      45.824 -10.780   7.042  1.00  0.00     0.029 A 
BRANCH   7  11
HETATM   11  C   UNL     1      43.899  -9.785  10.713  1.00  0.00     0.010 A 
HETATM   12  C   UNL     1      43.627  -8.526  11.306  1.00  0.00     0.152 A 
HETATM   13  N   UNL     1      43.018  -8.627  12.491  1.00  0.00    -0.187 NA
HETATM   14  N   UNL     1      42.893  -9.951  12.665  1.00  0.00    -0.289 N 
HETATM   15  H   UNL     1      42.450 -10.288  13.513  1.00  0.00     0.188 HD
HETATM   16  C   UNL     1      43.407 -10.685  11.636  1.00  0.00     0.123 A 
ENDBRANCH   7  11
ENDBRANCH   2   5
BRANCH   1  17
HETATM   17  C   UNL     1      43.087 -13.716   4.805  1.00  0.00     0.103 C 
BRANCH  17  18
HETATM   18  C   UNL     1      43.150 -14.914   5.752  1.00  0.00     0.014 C 
BRANCH  18  19
HETATM   19  C   UNL     1      42.138 -15.998   5.364  1.00  0.00     0.047 C 
BRANCH  19  20
HETATM   20  C   UNL     1      42.700 -16.935   4.332  1.00  0.00    -0.012 A 
HETATM   21  C   UNL     1      42.326 -17.076   3.004  1.00  0.00    -0.049 A 
HETATM   22  C   UNL     1      41.254 -16.290   2.318  1.00  0.00     0.049 C 
HETATM   23  C   UNL     1      43.117 -18.078   2.352  1.00  0.00     0.015 A 
HETATM   24  C   UNL     1      44.041 -18.656   3.191  1.00  0.00     0.051 A 
HETATM   25  S   UNL     1      43.973 -17.999   4.763  1.00  0.00    -0.106 SA
ENDBRANCH  19  20
ENDBRANCH  18  19
ENDBRANCH  17  18
ENDBRANCH   1  17
TORSDOF 6
ENDMDL
