MODEL 1
REMARK VINA RESULT:     -10.6      0.000      0.000
REMARK  2 active torsions:
REMARK  status: ('A' for Active; 'I' for Inactive)
REMARK    1  A    between atoms: C_5  and  N_6 
REMARK    2  A    between atoms: C_9  and  C_10 
REMARK       I    between atoms: C_10  and  N_11 
ROOT
HETATM    1  N   UNL     1      42.919 -15.425   4.718  1.00  0.00    -0.281 N 
HETATM    2  C   UNL     1      43.549 -14.441   5.513  1.00  0.00     0.268 A 
HETATM    3  O   UNL     1      44.399 -14.640   6.387  1.00  0.00    -0.267 OA
HETATM    4  C   UNL     1      43.202 -13.024   5.240  1.00  0.00     0.101 A 
HETATM    5  C   UNL     1      42.319 -12.740   4.273  1.00  0.00     0.040 A 
HETATM    6  C   UNL     1      41.674 -13.778   3.504  1.00  0.00     0.034 A 
HETATM    7  C   UNL     1      41.963 -15.076   3.729  1.00  0.00     0.034 A 
HETATM    8  C   UNL     1      41.194 -16.176   3.009  1.00  0.00     0.059 C 
HETATM    9  C   UNL     1      39.849 -15.710   2.461  1.00  0.00     0.014 C 
HETATM   10  C   UNL     1      40.015 -14.454   1.632  1.00  0.00     0.084 C 
HETATM   11  C   UNL     1      40.683 -13.376   2.446  1.00  0.00     0.161 C 
HETATM   12  O   UNL     1      40.484 -12.185   2.216  1.00  0.00    -0.292 OA
ENDROOT
BRANCH   4  13
HETATM   13  C   UNL     1      43.815 -11.884   5.964  1.00  0.00     0.262 C 
HETATM   14  N   UNL     1      43.479 -11.803   7.349  1.00  0.00    -0.309 N 
HETATM   15  H   UNL     1      42.791 -12.485   7.670  1.00  0.00     0.170 HD
HETATM   16  C   UNL     1      43.931 -10.983   8.279  1.00  0.00     0.108 A 
HETATM   17  N   UNL     1      43.488 -11.070   9.537  1.00  0.00    -0.346 N 
HETATM   18  C   UNL     1      44.962  -9.926   8.004  1.00  0.00     0.049 A 
HETATM   19  C   UNL     1      43.945 -10.241  10.561  1.00  0.00     0.007 A 
HETATM   20  H   UNL     1      42.792 -11.765   9.772  1.00  0.00     0.167 HD
HETATM   21  C   UNL     1      43.364 -10.467  11.925  1.00  0.00     0.068 C 
HETATM   22  C   UNL     1      44.868  -9.298  10.315  1.00  0.00     0.025 A 
HETATM   23  C   UNL     1      45.398  -9.128   8.988  1.00  0.00     0.006 A 
HETATM   24  O   UNL     1      44.564 -11.073   5.451  1.00  0.00    -0.267 OA
ENDBRANCH   4  13
BRANCH   1  25
HETATM   25  C   UNL     1      43.306 -16.791   4.952  1.00  0.00     0.042 A 
HETATM   26  C   UNL     1      42.919 -17.448   6.127  1.00  0.00     0.030 A 
HETATM   27  C   UNL     1      43.206 -18.805   6.308  1.00  0.00     0.009 A 
HETATM   28  C   UNL     1      43.898 -19.523   5.328  1.00  0.00    -0.062 A 
HETATM   29  C   UNL     1      44.174 -20.990   5.487  1.00  0.00     0.048 C 
HETATM   30  C   UNL     1      44.331 -18.856   4.178  1.00  0.00     0.009 A 
HETATM   31  C   UNL     1      44.040 -17.502   3.993  1.00  0.00     0.030 A 
ENDBRANCH   1  25
TORSDOF 2
ENDMDL
MODEL 2
REMARK VINA RESULT:      -9.7      1.729      4.858
REMARK  2 active torsions:
REMARK  status: ('A' for Active; 'I' for Inactive)
REMARK    1  A    between atoms: C_5  and  N_6 
REMARK    2  A    between atoms: C_9  and  C_10 
REMARK       I    between atoms: C_10  and  N_11 
ROOT
HETATM    1  N   UNL     1      42.257 -13.361   4.224  1.00  0.00    -0.281 N 
HETATM    2  C   UNL     1      42.787 -12.365   5.074  1.00  0.00     0.268 A 
HETATM    3  O   UNL     1      42.542 -11.155   5.024  1.00  0.00    -0.267 OA
HETATM    4  C   UNL     1      43.683 -12.813   6.170  1.00  0.00     0.101 A 
HETATM    5  C   UNL     1      43.951 -14.118   6.304  1.00  0.00     0.040 A 
HETATM    6  C   UNL     1      43.413 -15.103   5.395  1.00  0.00     0.034 A 
HETATM    7  C   UNL     1      42.600 -14.729   4.385  1.00  0.00     0.034 A 
HETATM    8  C   UNL     1      42.134 -15.745   3.352  1.00  0.00     0.059 C 
HETATM    9  C   UNL     1      43.017 -16.987   3.287  1.00  0.00     0.014 C 
HETATM   10  C   UNL     1      43.208 -17.580   4.667  1.00  0.00     0.084 C 
HETATM   11  C   UNL     1      43.775 -16.547   5.605  1.00  0.00     0.161 C 
HETATM   12  O   UNL     1      44.466 -16.870   6.570  1.00  0.00    -0.292 OA
ENDROOT
BRANCH   4  13
HETATM   13  C   UNL     1      44.277 -11.885   7.164  1.00  0.00     0.262 C 
HETATM   14  N   UNL     1      43.348 -11.330   8.095  1.00  0.00    -0.309 N 
HETATM   15  H   UNL     1      42.370 -11.564   7.926  1.00  0.00     0.170 HD
HETATM   16  C   UNL     1      43.567 -10.564   9.148  1.00  0.00     0.108 A 
HETATM   17  N   UNL     1      42.551 -10.144   9.906  1.00  0.00    -0.346 N 
HETATM   18  C   UNL     1      44.942 -10.131   9.571  1.00  0.00     0.049 A 
HETATM   19  C   UNL     1      42.727  -9.349  11.039  1.00  0.00     0.007 A 
HETATM   20  H   UNL     1      41.605 -10.408   9.662  1.00  0.00     0.167 HD
HETATM   21  C   UNL     1      41.492  -8.967  11.797  1.00  0.00     0.068 C 
HETATM   22  C   UNL     1      43.956  -8.964  11.417  1.00  0.00     0.025 A 
HETATM   23  C   UNL     1      45.110  -9.365  10.656  1.00  0.00     0.006 A 
HETATM   24  O   UNL     1      45.461 -11.611   7.218  1.00  0.00    -0.267 OA
ENDBRANCH   4  13
BRANCH   1  25
HETATM   25  C   UNL     1      41.345 -12.922   3.202  1.00  0.00     0.042 A 
HETATM   26  C   UNL     1      41.822 -12.536   1.943  1.00  0.00     0.030 A 
HETATM   27  C   UNL     1      40.929 -12.208   0.917  1.00  0.00     0.009 A 
HETATM   28  C   UNL     1      39.548 -12.245   1.136  1.00  0.00    -0.062 A 
HETATM   29  C   UNL     1      38.577 -11.940   0.032  1.00  0.00     0.048 C 
HETATM   30  C   UNL     1      39.072 -12.579   2.407  1.00  0.00     0.009 A 
HETATM   31  C   UNL     1      39.963 -12.912   3.431  1.00  0.00     0.030 A 
ENDBRANCH   1  25
TORSDOF 2
ENDMDL
MODEL 3
REMARK VINA RESULT:      -9.6      3.128      8.329
REMARK  2 active torsions:
REMARK  status: ('A' for Active; 'I' for Inactive)
REMARK    1  A    between atoms: C_5  and  N_6 
REMARK    2  A    between atoms: C_9  and  C_10 
REMARK       I    between atoms: C_10  and  N_11 
ROOT
HETATM    1  N   UNL     1      42.812 -15.130   4.149  1.00  0.00    -0.281 N 
HETATM    2  C   UNL     1      41.867 -14.725   3.180  1.00  0.00     0.268 A 
HETATM    3  O   UNL     1      41.351 -13.606   3.084  1.00  0.00    -0.267 OA
HETATM    4  C   UNL     1      41.494 -15.715   2.138  1.00  0.00     0.101 A 
HETATM    5  C   UNL     1      42.054 -16.932   2.161  1.00  0.00     0.040 A 
HETATM    6  C   UNL     1      42.993 -17.318   3.188  1.00  0.00     0.034 A 
HETATM    7  C   UNL     1      43.350 -16.444   4.152  1.00  0.00     0.034 A 
HETATM    8  C   UNL     1      44.240 -16.885   5.306  1.00  0.00     0.059 C 
HETATM    9  C   UNL     1      44.251 -18.397   5.513  1.00  0.00     0.014 C 
HETATM   10  C   UNL     1      44.554 -19.113   4.214  1.00  0.00     0.084 C 
HETATM   11  C   UNL     1      43.565 -18.708   3.152  1.00  0.00     0.161 C 
HETATM   12  O   UNL     1      43.274 -19.465   2.227  1.00  0.00    -0.292 OA
ENDROOT
BRANCH   4  13
HETATM   13  C   UNL     1      40.550 -15.416   1.034  1.00  0.00     0.262 C 
HETATM   14  N   UNL     1      40.901 -14.286   0.235  1.00  0.00    -0.309 N 
HETATM   15  H   UNL     1      41.713 -13.761   0.558  1.00  0.00     0.170 HD
HETATM   16  C   UNL     1      40.336 -13.825  -0.866  1.00  0.00     0.108 A 
HETATM   17  N   UNL     1      40.822 -12.741  -1.476  1.00  0.00    -0.346 N 
HETATM   18  C   UNL     1      39.145 -14.477  -1.506  1.00  0.00     0.049 A 
HETATM   19  C   UNL     1      40.276 -12.222  -2.649  1.00  0.00     0.007 A 
HETATM   20  H   UNL     1      41.624 -12.265  -1.082  1.00  0.00     0.167 HD
HETATM   21  C   UNL     1      40.938 -11.006  -3.225  1.00  0.00     0.068 C 
HETATM   22  C   UNL     1      39.211 -12.806  -3.223  1.00  0.00     0.025 A 
HETATM   23  C   UNL     1      38.618 -13.976  -2.632  1.00  0.00     0.006 A 
HETATM   24  O   UNL     1      39.554 -16.072   0.791  1.00  0.00    -0.267 OA
ENDBRANCH   4  13
BRANCH   1  25
HETATM   25  C   UNL     1      43.209 -14.144   5.118  1.00  0.00     0.042 A 
HETATM   26  C   UNL     1      43.797 -12.941   4.707  1.00  0.00     0.030 A 
HETATM   27  C   UNL     1      44.088 -11.940   5.640  1.00  0.00     0.009 A 
HETATM   28  C   UNL     1      43.812 -12.130   6.998  1.00  0.00    -0.062 A 
HETATM   29  C   UNL     1      44.077 -11.048   8.005  1.00  0.00     0.048 C 
HETATM   30  C   UNL     1      43.273 -13.351   7.416  1.00  0.00     0.009 A 
HETATM   31  C   UNL     1      42.977 -14.349   6.485  1.00  0.00     0.030 A 
ENDBRANCH   1  25
TORSDOF 2
ENDMDL
MODEL 4
REMARK VINA RESULT:      -9.2      1.935      2.715
REMARK  2 active torsions:
REMARK  status: ('A' for Active; 'I' for Inactive)
REMARK    1  A    between atoms: C_5  and  N_6 
REMARK    2  A    between atoms: C_9  and  C_10 
REMARK       I    between atoms: C_10  and  N_11 
ROOT
HETATM    1  N   UNL     1      42.089 -13.385   3.858  1.00  0.00    -0.281 N 
HETATM    2  C   UNL     1      42.917 -12.975   4.926  1.00  0.00     0.268 A 
HETATM    3  O   UNL     1      43.785 -13.656   5.482  1.00  0.00    -0.267 OA
HETATM    4  C   UNL     1      42.776 -11.573   5.397  1.00  0.00     0.101 A 
HETATM    5  C   UNL     1      41.882 -10.770   4.804  1.00  0.00     0.040 A 
HETATM    6  C   UNL     1      41.032 -11.238   3.734  1.00  0.00     0.034 A 
HETATM    7  C   UNL     1      41.131 -12.506   3.286  1.00  0.00     0.034 A 
HETATM    8  C   UNL     1      40.153 -13.039   2.248  1.00  0.00     0.059 C 
HETATM    9  C   UNL     1      38.861 -12.231   2.168  1.00  0.00     0.014 C 
HETATM   10  C   UNL     1      39.162 -10.755   2.007  1.00  0.00     0.084 C 
HETATM   11  C   UNL     1      40.045 -10.277   3.131  1.00  0.00     0.161 C 
HETATM   12  O   UNL     1      40.017  -9.109   3.513  1.00  0.00    -0.292 OA
ENDROOT
BRANCH   4  13
HETATM   13  C   UNL     1      43.608 -10.992   6.478  1.00  0.00     0.262 C 
HETATM   14  N   UNL     1      42.895 -10.660   7.670  1.00  0.00    -0.309 N 
HETATM   15  H   UNL     1      41.883 -10.781   7.619  1.00  0.00     0.170 HD
HETATM   16  C   UNL     1      43.351 -10.229   8.831  1.00  0.00     0.108 A 
HETATM   17  N   UNL     1      42.511  -9.974   9.839  1.00  0.00    -0.346 N 
HETATM   18  C   UNL     1      44.811 -10.012   9.106  1.00  0.00     0.049 A 
HETATM   19  C   UNL     1      42.939  -9.534  11.091  1.00  0.00     0.007 A 
HETATM   20  H   UNL     1      41.516 -10.104   9.703  1.00  0.00     0.167 HD
HETATM   21  C   UNL     1      41.881  -9.303  12.126  1.00  0.00     0.068 C 
HETATM   22  C   UNL     1      44.245  -9.342  11.336  1.00  0.00     0.025 A 
HETATM   23  C   UNL     1      45.222  -9.586  10.308  1.00  0.00     0.006 A 
HETATM   24  O   UNL     1      44.809 -10.814   6.395  1.00  0.00    -0.267 OA
ENDBRANCH   4  13
BRANCH   1  25
HETATM   25  C   UNL     1      42.274 -14.726   3.373  1.00  0.00     0.042 A 
HETATM   26  C   UNL     1      43.072 -14.970   2.248  1.00  0.00     0.030 A 
HETATM   27  C   UNL     1      43.337 -16.281   1.837  1.00  0.00     0.009 A 
HETATM   28  C   UNL     1      42.796 -17.368   2.533  1.00  0.00    -0.062 A 
HETATM   29  C   UNL     1      43.108 -18.781   2.132  1.00  0.00     0.048 C 
HETATM   30  C   UNL     1      41.957 -17.124   3.624  1.00  0.00     0.009 A 
HETATM   31  C   UNL     1      41.697 -15.815   4.038  1.00  0.00     0.030 A 
ENDBRANCH   1  25
TORSDOF 2
ENDMDL
MODEL 5
REMARK VINA RESULT:      -9.2      2.851      8.219
REMARK  2 active torsions:
REMARK  status: ('A' for Active; 'I' for Inactive)
REMARK    1  A    between atoms: C_5  and  N_6 
REMARK    2  A    between atoms: C_9  and  C_10 
REMARK       I    between atoms: C_10  and  N_11 
ROOT
HETATM    1  N   UNL     1      43.220 -12.525   5.285  1.00  0.00    -0.281 N 
HETATM    2  C   UNL     1      42.884 -11.866   4.081  1.00  0.00     0.268 A 
HETATM    3  O   UNL     1      43.114 -10.684   3.805  1.00  0.00    -0.267 OA
HETATM    4  C   UNL     1      42.242 -12.679   3.018  1.00  0.00     0.101 A 
HETATM    5  C   UNL     1      42.006 -13.979   3.239  1.00  0.00     0.040 A 
HETATM    6  C   UNL     1      42.337 -14.608   4.496  1.00  0.00     0.034 A 
HETATM    7  C   UNL     1      42.917 -13.897   5.485  1.00  0.00     0.034 A 
HETATM    8  C   UNL     1      43.151 -14.524   6.853  1.00  0.00     0.059 C 
HETATM    9  C   UNL     1      42.272 -15.743   7.116  1.00  0.00     0.014 C 
HETATM   10  C   UNL     1      42.379 -16.734   5.976  1.00  0.00     0.084 C 
HETATM   11  C   UNL     1      42.026 -16.069   4.671  1.00  0.00     0.161 C 
HETATM   12  O   UNL     1      41.556 -16.711   3.733  1.00  0.00    -0.292 OA
ENDROOT
BRANCH   4  13
HETATM   13  C   UNL     1      41.874 -12.133   1.688  1.00  0.00     0.262 C 
HETATM   14  N   UNL     1      41.210 -13.055   0.825  1.00  0.00    -0.309 N 
HETATM   15  H   UNL     1      41.134 -14.008   1.181  1.00  0.00     0.170 HD
HETATM   16  C   UNL     1      40.670 -12.856  -0.364  1.00  0.00     0.108 A 
HETATM   17  N   UNL     1      40.084 -13.861  -1.021  1.00  0.00    -0.346 N 
HETATM   18  C   UNL     1      40.662 -11.517  -1.043  1.00  0.00     0.049 A 
HETATM   19  C   UNL     1      39.483 -13.704  -2.269  1.00  0.00     0.007 A 
HETATM   20  H   UNL     1      40.064 -14.784  -0.604  1.00  0.00     0.167 HD
HETATM   21  C   UNL     1      38.854 -14.921  -2.877  1.00  0.00     0.068 C 
HETATM   22  C   UNL     1      39.475 -12.506  -2.876  1.00  0.00     0.025 A 
HETATM   23  C   UNL     1      40.088 -11.367  -2.244  1.00  0.00     0.006 A 
HETATM   24  O   UNL     1      42.092 -10.988   1.337  1.00  0.00    -0.267 OA
ENDBRANCH   4  13
BRANCH   1  25
HETATM   25  C   UNL     1      43.894 -11.742   6.286  1.00  0.00     0.042 A 
HETATM   26  C   UNL     1      45.293 -11.732   6.356  1.00  0.00     0.030 A 
HETATM   27  C   UNL     1      45.951 -10.891   7.261  1.00  0.00     0.009 A 
HETATM   28  C   UNL     1      45.223 -10.061   8.120  1.00  0.00    -0.062 A 
HETATM   29  C   UNL     1      45.915  -9.121   9.064  1.00  0.00     0.048 C 
HETATM   30  C   UNL     1      43.826 -10.108   8.087  1.00  0.00     0.009 A 
HETATM   31  C   UNL     1      43.168 -10.943   7.179  1.00  0.00     0.030 A 
ENDBRANCH   1  25
TORSDOF 2
ENDMDL
MODEL 6
REMARK VINA RESULT:      -8.9      3.437      8.884
REMARK  2 active torsions:
REMARK  status: ('A' for Active; 'I' for Inactive)
REMARK    1  A    between atoms: C_5  and  N_6 
REMARK    2  A    between atoms: C_9  and  C_10 
REMARK       I    between atoms: C_10  and  N_11 
ROOT
HETATM    1  N   UNL     1      41.249 -13.474   4.778  1.00  0.00    -0.281 N 
HETATM    2  C   UNL     1      40.513 -13.627   3.582  1.00  0.00     0.268 A 
HETATM    3  O   UNL     1      39.652 -12.853   3.149  1.00  0.00    -0.267 OA
HETATM    4  C   UNL     1      40.838 -14.798   2.728  1.00  0.00     0.101 A 
HETATM    5  C   UNL     1      41.794 -15.650   3.122  1.00  0.00     0.040 A 
HETATM    6  C   UNL     1      42.503 -15.475   4.368  1.00  0.00     0.034 A 
HETATM    7  C   UNL     1      42.229 -14.425   5.169  1.00  0.00     0.034 A 
HETATM    8  C   UNL     1      42.882 -14.306   6.539  1.00  0.00     0.059 C 
HETATM    9  C   UNL     1      43.416 -15.634   7.068  1.00  0.00     0.014 C 
HETATM   10  C   UNL     1      44.302 -16.302   6.037  1.00  0.00     0.084 C 
HETATM   11  C   UNL     1      43.552 -16.484   4.744  1.00  0.00     0.161 C 
HETATM   12  O   UNL     1      43.828 -17.398   3.968  1.00  0.00    -0.292 OA
ENDROOT
BRANCH   4  13
HETATM   13  C   UNL     1      40.178 -15.061   1.426  1.00  0.00     0.262 C 
HETATM   14  N   UNL     1      40.039 -13.917   0.583  1.00  0.00    -0.309 N 
HETATM   15  H   UNL     1      40.331 -13.033   0.998  1.00  0.00     0.170 HD
HETATM   16  C   UNL     1      39.596 -13.835  -0.658  1.00  0.00     0.108 A 
HETATM   17  N   UNL     1      39.545 -12.657  -1.285  1.00  0.00    -0.346 N 
HETATM   18  C   UNL     1      39.143 -15.032  -1.444  1.00  0.00     0.049 A 
HETATM   19  C   UNL     1      39.103 -12.515  -2.600  1.00  0.00     0.007 A 
HETATM   20  H   UNL     1      39.839 -11.820  -0.797  1.00  0.00     0.167 HD
HETATM   21  C   UNL     1      39.115 -11.130  -3.174  1.00  0.00     0.068 C 
HETATM   22  C   UNL     1      38.699 -13.586  -3.303  1.00  0.00     0.025 A 
HETATM   23  C   UNL     1      38.715 -14.895  -2.706  1.00  0.00     0.006 A 
HETATM   24  O   UNL     1      39.789 -16.157   1.067  1.00  0.00    -0.267 OA
ENDBRANCH   4  13
BRANCH   1  25
HETATM   25  C   UNL     1      40.967 -12.306   5.568  1.00  0.00     0.042 A 
HETATM   26  C   UNL     1      41.845 -11.215   5.561  1.00  0.00     0.030 A 
HETATM   27  C   UNL     1      41.520 -10.039   6.246  1.00  0.00     0.009 A 
HETATM   28  C   UNL     1      40.323  -9.940   6.962  1.00  0.00    -0.062 A 
HETATM   29  C   UNL     1      39.939  -8.670   7.664  1.00  0.00     0.048 C 
HETATM   30  C   UNL     1      39.469 -11.046   7.012  1.00  0.00     0.009 A 
HETATM   31  C   UNL     1      39.790 -12.219   6.324  1.00  0.00     0.030 A 
ENDBRANCH   1  25
TORSDOF 2
ENDMDL
MODEL 7
REMARK VINA RESULT:      -8.8      2.749      7.450
REMARK  2 active torsions:
REMARK  status: ('A' for Active; 'I' for Inactive)
REMARK    1  A    between atoms: C_5  and  N_6 
REMARK    2  A    between atoms: C_9  and  C_10 
REMARK       I    between atoms: C_10  and  N_11 
ROOT
HETATM    1  N   UNL     1      42.331 -14.210   4.517  1.00  0.00    -0.281 N 
HETATM    2  C   UNL     1      41.481 -13.914   3.428  1.00  0.00     0.268 A 
HETATM    3  O   UNL     1      41.000 -14.729   2.633  1.00  0.00    -0.267 OA
HETATM    4  C   UNL     1      41.078 -12.497   3.246  1.00  0.00     0.101 A 
HETATM    5  C   UNL     1      41.531 -11.571   4.103  1.00  0.00     0.040 A 
HETATM    6  C   UNL     1      42.424 -11.911   5.186  1.00  0.00     0.034 A 
HETATM    7  C   UNL     1      42.814 -13.188   5.376  1.00  0.00     0.034 A 
HETATM    8  C   UNL     1      43.852 -13.530   6.436  1.00  0.00     0.059 C 
HETATM    9  C   UNL     1      44.702 -12.334   6.855  1.00  0.00     0.014 C 
HETATM   10  C   UNL     1      43.822 -11.160   7.233  1.00  0.00     0.084 C 
HETATM   11  C   UNL     1      42.899 -10.811   6.094  1.00  0.00     0.161 C 
HETATM   12  O   UNL     1      42.480  -9.665   5.939  1.00  0.00    -0.292 OA
ENDROOT
BRANCH   4  13
HETATM   13  C   UNL     1      40.156 -12.046   2.174  1.00  0.00     0.262 C 
HETATM   14  N   UNL     1      40.043 -12.940   1.067  1.00  0.00    -0.309 N 
HETATM   15  H   UNL     1      40.666 -13.747   1.094  1.00  0.00     0.170 HD
HETATM   16  C   UNL     1      39.244 -12.882   0.017  1.00  0.00     0.108 A 
HETATM   17  N   UNL     1      39.288 -13.831  -0.923  1.00  0.00    -0.346 N 
HETATM   18  C   UNL     1      38.242 -11.782  -0.187  1.00  0.00     0.049 A 
HETATM   19  C   UNL     1      38.456 -13.829  -2.041  1.00  0.00     0.007 A 
HETATM   20  H   UNL     1      39.947 -14.593  -0.831  1.00  0.00     0.167 HD
HETATM   21  C   UNL     1      38.611 -14.968  -3.004  1.00  0.00     0.068 C 
HETATM   22  C   UNL     1      37.559 -12.846  -2.223  1.00  0.00     0.025 A 
HETATM   23  C   UNL     1      37.446 -11.779  -1.264  1.00  0.00     0.006 A 
HETATM   24  O   UNL     1      39.521 -11.009   2.213  1.00  0.00    -0.267 OA
ENDBRANCH   4  13
BRANCH   1  25
HETATM   25  C   UNL     1      42.669 -15.594   4.718  1.00  0.00     0.042 A 
HETATM   26  C   UNL     1      43.481 -16.267   3.797  1.00  0.00     0.030 A 
HETATM   27  C   UNL     1      43.894 -17.581   4.044  1.00  0.00     0.009 A 
HETATM   28  C   UNL     1      43.490 -18.248   5.205  1.00  0.00    -0.062 A 
HETATM   29  C   UNL     1      43.961 -19.641   5.506  1.00  0.00     0.048 C 
HETATM   30  C   UNL     1      42.637 -17.595   6.100  1.00  0.00     0.009 A 
HETATM   31  C   UNL     1      42.228 -16.281   5.856  1.00  0.00     0.030 A 
ENDBRANCH   1  25
TORSDOF 2
ENDMDL
MODEL 8
REMARK VINA RESULT:      -8.5     17.238     20.880
REMARK  2 active torsions:
REMARK  status: ('A' for Active; 'I' for Inactive)
REMARK    1  A    between atoms: C_5  and  N_6 
REMARK    2  A    between atoms: C_9  and  C_10 
REMARK       I    between atoms: C_10  and  N_11 
ROOT
HETATM    1  N   UNL     1      48.667 -30.356  -0.388  1.00  0.00    -0.281 N 
HETATM    2  C   UNL     1      49.647 -31.082  -1.099  1.00  0.00     0.268 A 
HETATM    3  O   UNL     1      49.582 -31.435  -2.282  1.00  0.00    -0.267 OA
HETATM    4  C   UNL     1      50.905 -31.410  -0.382  1.00  0.00     0.101 A 
HETATM    5  C   UNL     1      51.055 -31.016   0.890  1.00  0.00     0.040 A 
HETATM    6  C   UNL     1      50.015 -30.301   1.592  1.00  0.00     0.034 A 
HETATM    7  C   UNL     1      48.859 -29.992   0.971  1.00  0.00     0.034 A 
HETATM    8  C   UNL     1      47.713 -29.351   1.743  1.00  0.00     0.059 C 
HETATM    9  C   UNL     1      47.813 -29.560   3.251  1.00  0.00     0.014 C 
HETATM   10  C   UNL     1      49.180 -29.151   3.758  1.00  0.00     0.084 C 
HETATM   11  C   UNL     1      50.257 -29.907   3.023  1.00  0.00     0.161 C 
HETATM   12  O   UNL     1      51.343 -30.144   3.548  1.00  0.00    -0.292 OA
ENDROOT
BRANCH   4  13
HETATM   13  C   UNL     1      52.038 -32.129  -1.015  1.00  0.00     0.262 C 
HETATM   14  N   UNL     1      52.371 -31.682  -2.329  1.00  0.00    -0.309 N 
HETATM   15  H   UNL     1      51.746 -30.978  -2.721  1.00  0.00     0.170 HD
HETATM   16  C   UNL     1      53.374 -32.038  -3.110  1.00  0.00     0.108 A 
HETATM   17  N   UNL     1      53.518 -31.495  -4.322  1.00  0.00    -0.346 N 
HETATM   18  C   UNL     1      54.411 -33.044  -2.700  1.00  0.00     0.049 A 
HETATM   19  C   UNL     1      54.568 -31.821  -5.180  1.00  0.00     0.007 A 
HETATM   20  H   UNL     1      52.844 -30.812  -4.645  1.00  0.00     0.167 HD
HETATM   21  C   UNL     1      54.604 -31.119  -6.504  1.00  0.00     0.068 C 
HETATM   22  C   UNL     1      55.495 -32.719  -4.813  1.00  0.00     0.025 A 
HETATM   23  C   UNL     1      55.417 -33.360  -3.526  1.00  0.00     0.006 A 
HETATM   24  O   UNL     1      52.664 -33.023  -0.477  1.00  0.00    -0.267 OA
ENDBRANCH   4  13
BRANCH   1  25
HETATM   25  C   UNL     1      47.477 -29.993  -1.111  1.00  0.00     0.042 A 
HETATM   26  C   UNL     1      47.412 -28.781  -1.808  1.00  0.00     0.030 A 
HETATM   27  C   UNL     1      46.296 -28.475  -2.594  1.00  0.00     0.009 A 
HETATM   28  C   UNL     1      45.222 -29.366  -2.685  1.00  0.00    -0.062 A 
HETATM   29  C   UNL     1      44.039 -29.073  -3.561  1.00  0.00     0.048 C 
HETATM   30  C   UNL     1      45.264 -30.554  -1.948  1.00  0.00     0.009 A 
HETATM   31  C   UNL     1      46.380 -30.863  -1.166  1.00  0.00     0.030 A 
ENDBRANCH   1  25
TORSDOF 2
ENDMDL
MODEL 9
REMARK VINA RESULT:      -8.5      3.047      4.101
REMARK  2 active torsions:
REMARK  status: ('A' for Active; 'I' for Inactive)
REMARK    1  A    between atoms: C_5  and  N_6 
REMARK    2  A    between atoms: C_9  and  C_10 
REMARK       I    between atoms: C_10  and  N_11 
ROOT
HETATM    1  N   UNL     1      40.435 -13.230   3.503  1.00  0.00    -0.281 N 
HETATM    2  C   UNL     1      40.199 -12.861   4.846  1.00  0.00     0.268 A 
HETATM    3  O   UNL     1      40.567 -13.479   5.851  1.00  0.00    -0.267 OA
HETATM    4  C   UNL     1      39.488 -11.579   5.084  1.00  0.00     0.101 A 
HETATM    5  C   UNL     1      39.101 -10.840   4.034  1.00  0.00     0.040 A 
HETATM    6  C   UNL     1      39.335 -11.269   2.675  1.00  0.00     0.034 A 
HETATM    7  C   UNL     1      39.974 -12.431   2.425  1.00  0.00     0.034 A 
HETATM    8  C   UNL     1      40.110 -12.946   0.999  1.00  0.00     0.059 C 
HETATM    9  C   UNL     1      39.093 -12.337   0.039  1.00  0.00     0.014 C 
HETATM   10  C   UNL     1      39.107 -10.825   0.133  1.00  0.00     0.084 C 
HETATM   11  C   UNL     1      38.857 -10.389   1.554  1.00  0.00     0.161 C 
HETATM   12  O   UNL     1      38.334  -9.305   1.807  1.00  0.00    -0.292 OA
ENDROOT
BRANCH   4  13
HETATM   13  C   UNL     1      39.209 -11.043   6.439  1.00  0.00     0.262 C 
HETATM   14  N   UNL     1      40.358 -10.570   7.143  1.00  0.00    -0.309 N 
HETATM   15  H   UNL     1      41.250 -10.727   6.675  1.00  0.00     0.170 HD
HETATM   16  C   UNL     1      40.435  -9.952   8.307  1.00  0.00     0.108 A 
HETATM   17  N   UNL     1      41.620  -9.582   8.802  1.00  0.00    -0.346 N 
HETATM   18  C   UNL     1      39.229  -9.613   9.134  1.00  0.00     0.049 A 
HETATM   19  C   UNL     1      41.758  -8.911  10.016  1.00  0.00     0.007 A 
HETATM   20  H   UNL     1      42.463  -9.788   8.282  1.00  0.00     0.167 HD
HETATM   21  C   UNL     1      43.151  -8.548  10.436  1.00  0.00     0.068 C 
HETATM   22  C   UNL     1      40.679  -8.607  10.755  1.00  0.00     0.025 A 
HETATM   23  C   UNL     1      39.363  -8.972  10.302  1.00  0.00     0.006 A 
HETATM   24  O   UNL     1      38.099 -10.983   6.934  1.00  0.00    -0.267 OA
ENDBRANCH   4  13
BRANCH   1  25
HETATM   25  C   UNL     1      41.174 -14.445   3.287  1.00  0.00     0.042 A 
HETATM   26  C   UNL     1      40.506 -15.645   3.015  1.00  0.00     0.030 A 
HETATM   27  C   UNL     1      41.226 -16.803   2.702  1.00  0.00     0.009 A 
HETATM   28  C   UNL     1      42.624 -16.785   2.672  1.00  0.00    -0.062 A 
HETATM   29  C   UNL     1      43.410 -18.007   2.294  1.00  0.00     0.048 C 
HETATM   30  C   UNL     1      43.294 -15.601   2.994  1.00  0.00     0.009 A 
HETATM   31  C   UNL     1      42.575 -14.442   3.301  1.00  0.00     0.030 A 
ENDBRANCH   1  25
TORSDOF 2
ENDMDL
MODEL 10
REMARK VINA RESULT:      -8.5      3.273      7.602
REMARK  2 active torsions:
REMARK  status: ('A' for Active; 'I' for Inactive)
REMARK    1  A    between atoms: C_5  and  N_6 
REMARK    2  A    between atoms: C_9  and  C_10 
REMARK       I    between atoms: C_10  and  N_11 
ROOT
HETATM    1  N   UNL     1      43.290 -12.765   5.429  1.00  0.00    -0.281 N 
HETATM    2  C   UNL     1      42.572 -12.057   4.440  1.00  0.00     0.268 A 
HETATM    3  O   UNL     1      42.480 -10.828   4.342  1.00  0.00    -0.267 OA
HETATM    4  C   UNL     1      41.908 -12.855   3.379  1.00  0.00     0.101 A 
HETATM    5  C   UNL     1      42.009 -14.191   3.405  1.00  0.00     0.040 A 
HETATM    6  C   UNL     1      42.727 -14.879   4.452  1.00  0.00     0.034 A 
HETATM    7  C   UNL     1      43.338 -14.184   5.433  1.00  0.00     0.034 A 
HETATM    8  C   UNL     1      43.986 -14.908   6.605  1.00  0.00     0.059 C 
HETATM    9  C   UNL     1      43.466 -16.329   6.798  1.00  0.00     0.014 C 
HETATM   10  C   UNL     1      43.537 -17.105   5.499  1.00  0.00     0.084 C 
HETATM   11  C   UNL     1      42.781 -16.381   4.416  1.00  0.00     0.161 C 
HETATM   12  O   UNL     1      42.270 -16.990   3.477  1.00  0.00    -0.292 OA
ENDROOT
BRANCH   4  13
HETATM   13  C   UNL     1      41.157 -12.246   2.254  1.00  0.00     0.262 C 
HETATM   14  N   UNL     1      41.798 -11.126   1.643  1.00  0.00    -0.309 N 
HETATM   15  H   UNL     1      42.658 -10.816   2.096  1.00  0.00     0.170 HD
HETATM   16  C   UNL     1      41.449 -10.437   0.572  1.00  0.00     0.108 A 
HETATM   17  N   UNL     1      42.193  -9.410   0.152  1.00  0.00    -0.346 N 
HETATM   18  C   UNL     1      40.227 -10.755  -0.241  1.00  0.00     0.049 A 
HETATM   19  C   UNL     1      41.881  -8.660  -0.981  1.00  0.00     0.007 A 
HETATM   20  H   UNL     1      43.026  -9.155   0.668  1.00  0.00     0.167 HD
HETATM   21  C   UNL     1      42.819  -7.546  -1.336  1.00  0.00     0.068 C 
HETATM   22  C   UNL     1      40.789  -8.946  -1.709  1.00  0.00     0.025 A 
HETATM   23  C   UNL     1      39.926 -10.032  -1.327  1.00  0.00     0.006 A 
HETATM   24  O   UNL     1      40.085 -12.654   1.849  1.00  0.00    -0.267 OA
ENDBRANCH   4  13
BRANCH   1  25
HETATM   25  C   UNL     1      43.977 -11.979   6.418  1.00  0.00     0.042 A 
HETATM   26  C   UNL     1      45.315 -11.611   6.229  1.00  0.00     0.030 A 
HETATM   27  C   UNL     1      45.953 -10.762   7.139  1.00  0.00     0.009 A 
HETATM   28  C   UNL     1      45.271 -10.279   8.261  1.00  0.00    -0.062 A 
HETATM   29  C   UNL     1      45.927  -9.331   9.222  1.00  0.00     0.048 C 
HETATM   30  C   UNL     1      43.951 -10.687   8.479  1.00  0.00     0.009 A 
HETATM   31  C   UNL     1      43.312 -11.531   7.567  1.00  0.00     0.030 A 
ENDBRANCH   1  25
TORSDOF 2
ENDMDL
