MODEL 1
REMARK VINA RESULT:      -9.4      0.000      0.000
REMARK  5 active torsions:
REMARK  status: ('A' for Active; 'I' for Inactive)
REMARK    1  A    between atoms: C_4  and  N_5 
REMARK    2  A    between atoms: C_8  and  C_9 
REMARK    3  A    between atoms: C_9  and  N_10 
REMARK       I    between atoms: N_10  and  C_11 
REMARK       I    between atoms: C_11  and  N_12 
REMARK    4  A    between atoms: N_12  and  C_13 
REMARK    5  A    between atoms: C_13  and  C_14 
ROOT
HETATM    1  N   UNL     1      43.024 -16.275   3.918  1.00  0.00    -0.319 N 
HETATM    2  C   UNL     1      42.592 -15.771   5.149  1.00  0.00     0.021 A 
HETATM    3  C   UNL     1      42.339 -16.625   6.352  1.00  0.00     0.069 C 
HETATM    4  C   UNL     1      42.514 -14.383   5.060  1.00  0.00    -0.016 A 
HETATM    5  C   UNL     1      42.934 -14.035   3.755  1.00  0.00     0.035 A 
HETATM    6  C   UNL     1      43.221 -15.194   3.061  1.00  0.00     0.014 A 
HETATM    7  C   UNL     1      43.563 -15.304   1.614  1.00  0.00     0.068 C 
ENDROOT
BRANCH   4   8
HETATM    8  C   UNL     1      42.068 -13.415   6.113  1.00  0.00     0.165 C 
BRANCH   8   9
HETATM    9  N   UNL     1      43.203 -13.057   6.930  1.00  0.00    -0.339 N 
HETATM   10  C   UNL     1      43.768 -11.817   6.815  1.00  0.00     0.316 C 
HETATM   11  N   UNL     1      44.616 -11.556   7.857  1.00  0.00    -0.339 N 
HETATM   12  O   UNL     1      43.507 -11.017   5.929  1.00  0.00    -0.247 OA
HETATM   13  H   UNL     1      45.095 -12.345   8.261  1.00  0.00     0.164 HD
HETATM   14  H   UNL     1      43.281 -13.517   7.824  1.00  0.00     0.164 HD
BRANCH  11  15
HETATM   15  C   UNL     1      45.262 -10.267   7.967  1.00  0.00     0.162 C 
BRANCH  15  16
HETATM   16  C   UNL     1      44.600  -9.396   9.005  1.00  0.00    -0.040 A 
HETATM   17  C   UNL     1      43.970  -8.202   8.629  1.00  0.00     0.009 A 
HETATM   18  C   UNL     1      43.313  -7.416   9.578  1.00  0.00     0.001 A 
HETATM   19  C   UNL     1      43.273  -7.819  10.912  1.00  0.00     0.000 A 
HETATM   20  C   UNL     1      43.882  -9.010  11.298  1.00  0.00     0.001 A 
HETATM   21  C   UNL     1      44.534  -9.799  10.348  1.00  0.00     0.009 A 
ENDBRANCH  15  16
ENDBRANCH  11  15
ENDBRANCH   8   9
ENDBRANCH   4   8
BRANCH   1  22
HETATM   22  C   UNL     1      43.230 -17.651   3.594  1.00  0.00     0.040 A 
HETATM   23  C   UNL     1      43.787 -18.523   4.539  1.00  0.00     0.036 A 
HETATM   24  C   UNL     1      44.028 -19.867   4.217  1.00  0.00    -0.060 A 
HETATM   25  C   UNL     1      44.609 -20.800   5.239  1.00  0.00     0.048 C 
HETATM   26  C   UNL     1      43.667 -20.339   2.951  1.00  0.00     0.007 A 
HETATM   27  C   UNL     1      43.100 -19.478   2.012  1.00  0.00     0.003 A 
HETATM   28  C   UNL     1      42.886 -18.136   2.328  1.00  0.00     0.030 A 
ENDBRANCH   1  22
TORSDOF 5
ENDMDL
MODEL 2
REMARK VINA RESULT:      -9.4      1.981      3.342
REMARK  5 active torsions:
REMARK  status: ('A' for Active; 'I' for Inactive)
REMARK    1  A    between atoms: C_4  and  N_5 
REMARK    2  A    between atoms: C_8  and  C_9 
REMARK    3  A    between atoms: C_9  and  N_10 
REMARK       I    between atoms: N_10  and  C_11 
REMARK       I    between atoms: C_11  and  N_12 
REMARK    4  A    between atoms: N_12  and  C_13 
REMARK    5  A    between atoms: C_13  and  C_14 
ROOT
HETATM    1  N   UNL     1      42.893 -14.768   5.235  1.00  0.00    -0.319 N 
HETATM    2  C   UNL     1      43.204 -13.420   5.037  1.00  0.00     0.021 A 
HETATM    3  C   UNL     1      43.262 -12.772   3.689  1.00  0.00     0.069 C 
HETATM    4  C   UNL     1      43.372 -12.813   6.280  1.00  0.00    -0.016 A 
HETATM    5  C   UNL     1      43.131 -13.810   7.254  1.00  0.00     0.035 A 
HETATM    6  C   UNL     1      42.862 -15.000   6.609  1.00  0.00     0.014 A 
HETATM    7  C   UNL     1      42.689 -16.338   7.245  1.00  0.00     0.068 C 
ENDROOT
BRANCH   4   8
HETATM    8  C   UNL     1      43.745 -11.391   6.569  1.00  0.00     0.165 C 
BRANCH   8   9
HETATM    9  N   UNL     1      43.208 -11.020   7.856  1.00  0.00    -0.339 N 
HETATM   10  C   UNL     1      44.049 -10.687   8.882  1.00  0.00     0.316 C 
HETATM   11  N   UNL     1      43.373 -10.083   9.907  1.00  0.00    -0.339 N 
HETATM   12  O   UNL     1      45.260 -10.853   8.865  1.00  0.00    -0.247 OA
HETATM   13  H   UNL     1      42.416 -10.365  10.048  1.00  0.00     0.164 HD
HETATM   14  H   UNL     1      42.290 -10.602   7.861  1.00  0.00     0.164 HD
BRANCH  11  15
HETATM   15  C   UNL     1      44.090  -9.585  11.060  1.00  0.00     0.162 C 
BRANCH  15  16
HETATM   16  C   UNL     1      43.155  -9.238  12.192  1.00  0.00    -0.040 A 
HETATM   17  C   UNL     1      43.393  -8.106  12.983  1.00  0.00     0.009 A 
HETATM   18  C   UNL     1      42.505  -7.753  14.002  1.00  0.00     0.001 A 
HETATM   19  C   UNL     1      41.366  -8.523  14.235  1.00  0.00     0.000 A 
HETATM   20  C   UNL     1      41.110  -9.643  13.447  1.00  0.00     0.001 A 
HETATM   21  C   UNL     1      41.994  -9.993  12.425  1.00  0.00     0.009 A 
ENDBRANCH  15  16
ENDBRANCH  11  15
ENDBRANCH   8   9
ENDBRANCH   4   8
BRANCH   1  22
HETATM   22  C   UNL     1      42.647 -15.738   4.215  1.00  0.00     0.040 A 
HETATM   23  C   UNL     1      43.529 -16.813   4.036  1.00  0.00     0.036 A 
HETATM   24  C   UNL     1      43.316 -17.748   3.012  1.00  0.00    -0.060 A 
HETATM   25  C   UNL     1      44.254 -18.906   2.836  1.00  0.00     0.048 C 
HETATM   26  C   UNL     1      42.188 -17.619   2.195  1.00  0.00     0.007 A 
HETATM   27  C   UNL     1      41.301 -16.558   2.378  1.00  0.00     0.003 A 
HETATM   28  C   UNL     1      41.531 -15.616   3.381  1.00  0.00     0.030 A 
ENDBRANCH   1  22
TORSDOF 5
ENDMDL
MODEL 3
REMARK VINA RESULT:      -9.3      4.819      8.574
REMARK  5 active torsions:
REMARK  status: ('A' for Active; 'I' for Inactive)
REMARK    1  A    between atoms: C_4  and  N_5 
REMARK    2  A    between atoms: C_8  and  C_9 
REMARK    3  A    between atoms: C_9  and  N_10 
REMARK       I    between atoms: N_10  and  C_11 
REMARK       I    between atoms: C_11  and  N_12 
REMARK    4  A    between atoms: N_12  and  C_13 
REMARK    5  A    between atoms: C_13  and  C_14 
ROOT
HETATM    1  N   UNL     1      39.893 -13.018   1.153  1.00  0.00    -0.319 N 
HETATM    2  C   UNL     1      40.513 -13.898   2.045  1.00  0.00     0.021 A 
HETATM    3  C   UNL     1      41.462 -14.976   1.622  1.00  0.00     0.069 C 
HETATM    4  C   UNL     1      40.148 -13.549   3.343  1.00  0.00    -0.016 A 
HETATM    5  C   UNL     1      39.309 -12.414   3.238  1.00  0.00     0.035 A 
HETATM    6  C   UNL     1      39.143 -12.112   1.901  1.00  0.00     0.014 A 
HETATM    7  C   UNL     1      38.228 -11.083   1.327  1.00  0.00     0.068 C 
ENDROOT
BRANCH   4   8
HETATM    8  C   UNL     1      40.536 -14.223   4.624  1.00  0.00     0.165 C 
BRANCH   8   9
HETATM    9  N   UNL     1      41.928 -14.599   4.550  1.00  0.00    -0.339 N 
HETATM   10  C   UNL     1      42.368 -15.733   5.175  1.00  0.00     0.316 C 
HETATM   11  N   UNL     1      43.620 -16.084   4.750  1.00  0.00    -0.339 N 
HETATM   12  O   UNL     1      41.706 -16.387   5.968  1.00  0.00    -0.247 OA
HETATM   13  H   UNL     1      44.233 -15.333   4.476  1.00  0.00     0.164 HD
HETATM   14  H   UNL     1      42.436 -14.299   3.732  1.00  0.00     0.164 HD
BRANCH  11  15
HETATM   15  C   UNL     1      44.241 -17.298   5.233  1.00  0.00     0.162 C 
BRANCH  15  16
HETATM   16  C   UNL     1      43.979 -18.463   4.313  1.00  0.00    -0.040 A 
HETATM   17  C   UNL     1      43.574 -18.242   2.990  1.00  0.00     0.009 A 
HETATM   18  C   UNL     1      43.376 -19.317   2.119  1.00  0.00     0.001 A 
HETATM   19  C   UNL     1      43.588 -20.622   2.559  1.00  0.00     0.000 A 
HETATM   20  C   UNL     1      44.004 -20.856   3.868  1.00  0.00     0.001 A 
HETATM   21  C   UNL     1      44.207 -19.783   4.737  1.00  0.00     0.009 A 
ENDBRANCH  15  16
ENDBRANCH  11  15
ENDBRANCH   8   9
ENDBRANCH   4   8
BRANCH   1  22
HETATM   22  C   UNL     1      40.009 -13.038  -0.271  1.00  0.00     0.040 A 
HETATM   23  C   UNL     1      39.226 -13.918  -1.030  1.00  0.00     0.036 A 
HETATM   24  C   UNL     1      39.359 -13.972  -2.425  1.00  0.00    -0.060 A 
HETATM   25  C   UNL     1      38.507 -14.904  -3.234  1.00  0.00     0.048 C 
HETATM   26  C   UNL     1      40.256 -13.103  -3.057  1.00  0.00     0.007 A 
HETATM   27  C   UNL     1      41.028 -12.216  -2.307  1.00  0.00     0.003 A 
HETATM   28  C   UNL     1      40.910 -12.185  -0.917  1.00  0.00     0.030 A 
ENDBRANCH   1  22
TORSDOF 5
ENDMDL
MODEL 4
REMARK VINA RESULT:      -9.3      1.653      9.629
REMARK  5 active torsions:
REMARK  status: ('A' for Active; 'I' for Inactive)
REMARK    1  A    between atoms: C_4  and  N_5 
REMARK    2  A    between atoms: C_8  and  C_9 
REMARK    3  A    between atoms: C_9  and  N_10 
REMARK       I    between atoms: N_10  and  C_11 
REMARK       I    between atoms: C_11  and  N_12 
REMARK    4  A    between atoms: N_12  and  C_13 
REMARK    5  A    between atoms: C_13  and  C_14 
ROOT
HETATM    1  N   UNL     1      43.816 -10.432   7.398  1.00  0.00    -0.319 N 
HETATM    2  C   UNL     1      42.783 -10.819   6.540  1.00  0.00     0.021 A 
HETATM    3  C   UNL     1      41.352 -10.425   6.734  1.00  0.00     0.069 C 
HETATM    4  C   UNL     1      43.329 -11.546   5.484  1.00  0.00    -0.016 A 
HETATM    5  C   UNL     1      44.728 -11.578   5.694  1.00  0.00     0.035 A 
HETATM    6  C   UNL     1      45.011 -10.917   6.872  1.00  0.00     0.014 A 
HETATM    7  C   UNL     1      46.339 -10.830   7.547  1.00  0.00     0.068 C 
ENDROOT
BRANCH   4   8
HETATM    8  C   UNL     1      42.609 -12.193   4.340  1.00  0.00     0.165 C 
BRANCH   8   9
HETATM    9  N   UNL     1      42.731 -13.626   4.462  1.00  0.00    -0.339 N 
HETATM   10  C   UNL     1      42.689 -14.417   3.347  1.00  0.00     0.316 C 
HETATM   11  N   UNL     1      43.117 -15.688   3.619  1.00  0.00    -0.339 N 
HETATM   12  O   UNL     1      42.368 -14.027   2.234  1.00  0.00    -0.247 OA
HETATM   13  H   UNL     1      42.943 -16.036   4.548  1.00  0.00     0.164 HD
HETATM   14  H   UNL     1      43.257 -13.971   5.250  1.00  0.00     0.164 HD
BRANCH  11  15
HETATM   15  C   UNL     1      43.222 -16.665   2.558  1.00  0.00     0.162 C 
BRANCH  15  16
HETATM   16  C   UNL     1      43.464 -18.052   3.099  1.00  0.00    -0.040 A 
HETATM   17  C   UNL     1      43.288 -19.172   2.276  1.00  0.00     0.009 A 
HETATM   18  C   UNL     1      43.557 -20.456   2.756  1.00  0.00     0.001 A 
HETATM   19  C   UNL     1      44.013 -20.633   4.062  1.00  0.00     0.000 A 
HETATM   20  C   UNL     1      44.207 -19.527   4.887  1.00  0.00     0.001 A 
HETATM   21  C   UNL     1      43.943 -18.243   4.405  1.00  0.00     0.009 A 
ENDBRANCH  15  16
ENDBRANCH  11  15
ENDBRANCH   8   9
ENDBRANCH   4   8
BRANCH   1  22
HETATM   22  C   UNL     1      43.675  -9.673   8.601  1.00  0.00     0.040 A 
HETATM   23  C   UNL     1      43.488 -10.323   9.828  1.00  0.00     0.036 A 
HETATM   24  C   UNL     1      43.311  -9.586  11.008  1.00  0.00    -0.060 A 
HETATM   25  C   UNL     1      43.129 -10.287  12.322  1.00  0.00     0.048 C 
HETATM   26  C   UNL     1      43.365  -8.189  10.953  1.00  0.00     0.007 A 
HETATM   27  C   UNL     1      43.564  -7.538   9.736  1.00  0.00     0.003 A 
HETATM   28  C   UNL     1      43.714  -8.276   8.561  1.00  0.00     0.030 A 
ENDBRANCH   1  22
TORSDOF 5
ENDMDL
MODEL 5
REMARK VINA RESULT:      -9.2      2.439      4.431
REMARK  5 active torsions:
REMARK  status: ('A' for Active; 'I' for Inactive)
REMARK    1  A    between atoms: C_4  and  N_5 
REMARK    2  A    between atoms: C_8  and  C_9 
REMARK    3  A    between atoms: C_9  and  N_10 
REMARK       I    between atoms: N_10  and  C_11 
REMARK       I    between atoms: C_11  and  N_12 
REMARK    4  A    between atoms: N_12  and  C_13 
REMARK    5  A    between atoms: C_13  and  C_14 
ROOT
HETATM    1  N   UNL     1      42.332 -13.019   5.558  1.00  0.00    -0.319 N 
HETATM    2  C   UNL     1      43.214 -12.197   6.266  1.00  0.00     0.021 A 
HETATM    3  C   UNL     1      44.653 -12.536   6.505  1.00  0.00     0.069 C 
HETATM    4  C   UNL     1      42.545 -11.029   6.625  1.00  0.00    -0.016 A 
HETATM    5  C   UNL     1      41.235 -11.134   6.100  1.00  0.00     0.035 A 
HETATM    6  C   UNL     1      41.109 -12.357   5.473  1.00  0.00     0.014 A 
HETATM    7  C   UNL     1      39.860 -12.941   4.904  1.00  0.00     0.068 C 
ENDROOT
BRANCH   4   8
HETATM    8  C   UNL     1      43.070  -9.872   7.420  1.00  0.00     0.165 C 
BRANCH   8   9
HETATM    9  N   UNL     1      42.364  -9.810   8.677  1.00  0.00    -0.339 N 
HETATM   10  C   UNL     1      42.947 -10.289   9.818  1.00  0.00     0.316 C 
HETATM   11  N   UNL     1      42.273  -9.878  10.935  1.00  0.00    -0.339 N 
HETATM   12  O   UNL     1      43.974 -10.951   9.844  1.00  0.00    -0.247 OA
HETATM   13  H   UNL     1      41.279  -9.739  10.840  1.00  0.00     0.164 HD
HETATM   14  H   UNL     1      41.691  -9.066   8.783  1.00  0.00     0.164 HD
BRANCH  11  15
HETATM   15  C   UNL     1      42.768 -10.214  12.251  1.00  0.00     0.162 C 
BRANCH  15  16
HETATM   16  C   UNL     1      42.573  -9.081  13.227  1.00  0.00    -0.040 A 
HETATM   17  C   UNL     1      41.634  -9.193  14.262  1.00  0.00     0.009 A 
HETATM   18  C   UNL     1      41.482  -8.167  15.198  1.00  0.00     0.001 A 
HETATM   19  C   UNL     1      42.273  -7.022  15.114  1.00  0.00     0.000 A 
HETATM   20  C   UNL     1      43.219  -6.903  14.099  1.00  0.00     0.001 A 
HETATM   21  C   UNL     1      43.375  -7.930  13.167  1.00  0.00     0.009 A 
ENDBRANCH  15  16
ENDBRANCH  11  15
ENDBRANCH   8   9
ENDBRANCH   4   8
BRANCH   1  22
HETATM   22  C   UNL     1      42.629 -14.308   5.016  1.00  0.00     0.040 A 
HETATM   23  C   UNL     1      42.911 -14.451   3.651  1.00  0.00     0.036 A 
HETATM   24  C   UNL     1      43.166 -15.717   3.103  1.00  0.00    -0.060 A 
HETATM   25  C   UNL     1      43.485 -15.863   1.645  1.00  0.00     0.048 C 
HETATM   26  C   UNL     1      43.176 -16.834   3.946  1.00  0.00     0.007 A 
HETATM   27  C   UNL     1      42.908 -16.694   5.307  1.00  0.00     0.003 A 
HETATM   28  C   UNL     1      42.630 -15.436   5.843  1.00  0.00     0.030 A 
ENDBRANCH   1  22
TORSDOF 5
ENDMDL
MODEL 6
REMARK VINA RESULT:      -9.1      1.567      2.220
REMARK  5 active torsions:
REMARK  status: ('A' for Active; 'I' for Inactive)
REMARK    1  A    between atoms: C_4  and  N_5 
REMARK    2  A    between atoms: C_8  and  C_9 
REMARK    3  A    between atoms: C_9  and  N_10 
REMARK       I    between atoms: N_10  and  C_11 
REMARK       I    between atoms: C_11  and  N_12 
REMARK    4  A    between atoms: N_12  and  C_13 
REMARK    5  A    between atoms: C_13  and  C_14 
ROOT
HETATM    1  N   UNL     1      42.409 -15.778   3.741  1.00  0.00    -0.319 N 
HETATM    2  C   UNL     1      41.422 -15.292   4.603  1.00  0.00     0.021 A 
HETATM    3  C   UNL     1      40.888 -16.062   5.771  1.00  0.00     0.069 C 
HETATM    4  C   UNL     1      41.099 -13.991   4.223  1.00  0.00    -0.016 A 
HETATM    5  C   UNL     1      41.929 -13.672   3.122  1.00  0.00     0.035 A 
HETATM    6  C   UNL     1      42.706 -14.773   2.823  1.00  0.00     0.014 A 
HETATM    7  C   UNL     1      43.619 -14.927   1.654  1.00  0.00     0.068 C 
ENDROOT
BRANCH   4   8
HETATM    8  C   UNL     1      40.074 -13.081   4.828  1.00  0.00     0.165 C 
BRANCH   8   9
HETATM    9  N   UNL     1      40.608 -12.521   6.046  1.00  0.00    -0.339 N 
HETATM   10  C   UNL     1      41.287 -11.334   6.017  1.00  0.00     0.316 C 
HETATM   11  N   UNL     1      41.448 -10.819   7.275  1.00  0.00    -0.339 N 
HETATM   12  O   UNL     1      41.653 -10.772   4.996  1.00  0.00    -0.247 OA
HETATM   13  H   UNL     1      41.528 -11.482   8.029  1.00  0.00     0.164 HD
HETATM   14  H   UNL     1      40.127 -12.754   6.901  1.00  0.00     0.164 HD
BRANCH  11  15
HETATM   15  C   UNL     1      42.076  -9.530   7.461  1.00  0.00     0.162 C 
BRANCH  15  16
HETATM   16  C   UNL     1      43.217  -9.602   8.444  1.00  0.00    -0.040 A 
HETATM   17  C   UNL     1      44.536  -9.737   7.989  1.00  0.00     0.009 A 
HETATM   18  C   UNL     1      45.601  -9.756   8.893  1.00  0.00     0.001 A 
HETATM   19  C   UNL     1      45.359  -9.632  10.260  1.00  0.00     0.000 A 
HETATM   20  C   UNL     1      44.055  -9.483  10.726  1.00  0.00     0.001 A 
HETATM   21  C   UNL     1      42.991  -9.459   9.823  1.00  0.00     0.009 A 
ENDBRANCH  15  16
ENDBRANCH  11  15
ENDBRANCH   8   9
ENDBRANCH   4   8
BRANCH   1  22
HETATM   22  C   UNL     1      43.011 -17.074   3.790  1.00  0.00     0.040 A 
HETATM   23  C   UNL     1      42.806 -17.987   2.748  1.00  0.00     0.036 A 
HETATM   24  C   UNL     1      43.361 -19.274   2.805  1.00  0.00    -0.060 A 
HETATM   25  C   UNL     1      43.152 -20.243   1.679  1.00  0.00     0.048 C 
HETATM   26  C   UNL     1      44.159 -19.623   3.900  1.00  0.00     0.007 A 
HETATM   27  C   UNL     1      44.377 -18.712   4.934  1.00  0.00     0.003 A 
HETATM   28  C   UNL     1      43.801 -17.442   4.884  1.00  0.00     0.030 A 
ENDBRANCH   1  22
TORSDOF 5
ENDMDL
MODEL 7
REMARK VINA RESULT:      -8.8      2.135      3.646
REMARK  5 active torsions:
REMARK  status: ('A' for Active; 'I' for Inactive)
REMARK    1  A    between atoms: C_4  and  N_5 
REMARK    2  A    between atoms: C_8  and  C_9 
REMARK    3  A    between atoms: C_9  and  N_10 
REMARK       I    between atoms: N_10  and  C_11 
REMARK       I    between atoms: C_11  and  N_12 
REMARK    4  A    between atoms: N_12  and  C_13 
REMARK    5  A    between atoms: C_13  and  C_14 
ROOT
HETATM    1  N   UNL     1      43.036 -13.289   4.760  1.00  0.00    -0.319 N 
HETATM    2  C   UNL     1      43.524 -13.280   6.070  1.00  0.00     0.021 A 
HETATM    3  C   UNL     1      43.486 -14.469   6.978  1.00  0.00     0.069 C 
HETATM    4  C   UNL     1      44.087 -12.032   6.327  1.00  0.00    -0.016 A 
HETATM    5  C   UNL     1      43.961 -11.277   5.137  1.00  0.00     0.035 A 
HETATM    6  C   UNL     1      43.301 -12.043   4.198  1.00  0.00     0.014 A 
HETATM    7  C   UNL     1      42.832 -11.595   2.854  1.00  0.00     0.068 C 
ENDROOT
BRANCH   4   8
HETATM    8  C   UNL     1      44.704 -11.543   7.603  1.00  0.00     0.165 C 
BRANCH   8   9
HETATM    9  N   UNL     1      43.653 -11.246   8.546  1.00  0.00    -0.339 N 
HETATM   10  C   UNL     1      43.458  -9.962   8.977  1.00  0.00     0.316 C 
HETATM   11  N   UNL     1      42.255  -9.825   9.613  1.00  0.00    -0.339 N 
HETATM   12  O   UNL     1      44.231  -9.039   8.769  1.00  0.00    -0.247 OA
HETATM   13  H   UNL     1      41.910 -10.632  10.110  1.00  0.00     0.164 HD
HETATM   14  H   UNL     1      42.848 -11.853   8.534  1.00  0.00     0.164 HD
BRANCH  11  15
HETATM   15  C   UNL     1      41.821  -8.528  10.082  1.00  0.00     0.162 C 
BRANCH  15  16
HETATM   16  C   UNL     1      42.116  -8.337  11.549  1.00  0.00    -0.040 A 
HETATM   17  C   UNL     1      42.523  -7.085  12.030  1.00  0.00     0.009 A 
HETATM   18  C   UNL     1      42.752  -6.889  13.394  1.00  0.00     0.001 A 
HETATM   19  C   UNL     1      42.569  -7.939  14.292  1.00  0.00     0.000 A 
HETATM   20  C   UNL     1      42.151  -9.185  13.829  1.00  0.00     0.001 A 
HETATM   21  C   UNL     1      41.917  -9.380  12.467  1.00  0.00     0.009 A 
ENDBRANCH  15  16
ENDBRANCH  11  15
ENDBRANCH   8   9
ENDBRANCH   4   8
BRANCH   1  22
HETATM   22  C   UNL     1      42.382 -14.381   4.110  1.00  0.00     0.040 A 
HETATM   23  C   UNL     1      43.137 -15.395   3.504  1.00  0.00     0.036 A 
HETATM   24  C   UNL     1      42.504 -16.451   2.830  1.00  0.00    -0.060 A 
HETATM   25  C   UNL     1      43.316 -17.542   2.198  1.00  0.00     0.048 C 
HETATM   26  C   UNL     1      41.106 -16.503   2.806  1.00  0.00     0.007 A 
HETATM   27  C   UNL     1      40.351 -15.503   3.419  1.00  0.00     0.003 A 
HETATM   28  C   UNL     1      40.986 -14.441   4.066  1.00  0.00     0.030 A 
ENDBRANCH   1  22
TORSDOF 5
ENDMDL
MODEL 8
REMARK VINA RESULT:      -8.8      1.760      9.986
REMARK  5 active torsions:
REMARK  status: ('A' for Active; 'I' for Inactive)
REMARK    1  A    between atoms: C_4  and  N_5 
REMARK    2  A    between atoms: C_8  and  C_9 
REMARK    3  A    between atoms: C_9  and  N_10 
REMARK       I    between atoms: N_10  and  C_11 
REMARK       I    between atoms: C_11  and  N_12 
REMARK    4  A    between atoms: N_12  and  C_13 
REMARK    5  A    between atoms: C_13  and  C_14 
ROOT
HETATM    1  N   UNL     1      43.544  -9.651   8.899  1.00  0.00    -0.319 N 
HETATM    2  C   UNL     1      43.188 -10.113   7.629  1.00  0.00     0.021 A 
HETATM    3  C   UNL     1      41.891  -9.781   6.958  1.00  0.00     0.069 C 
HETATM    4  C   UNL     1      44.250 -10.849   7.107  1.00  0.00    -0.016 A 
HETATM    5  C   UNL     1      45.284 -10.808   8.073  1.00  0.00     0.035 A 
HETATM    6  C   UNL     1      44.836 -10.097   9.168  1.00  0.00     0.014 A 
HETATM    7  C   UNL     1      45.544  -9.926  10.469  1.00  0.00     0.068 C 
ENDROOT
BRANCH   4   8
HETATM    8  C   UNL     1      44.320 -11.565   5.793  1.00  0.00     0.165 C 
BRANCH   8   9
HETATM    9  N   UNL     1      43.702 -12.862   5.935  1.00  0.00    -0.339 N 
HETATM   10  C   UNL     1      42.946 -13.379   4.919  1.00  0.00     0.316 C 
HETATM   11  N   UNL     1      42.702 -14.712   5.105  1.00  0.00    -0.339 N 
HETATM   12  O   UNL     1      42.584 -12.747   3.937  1.00  0.00    -0.247 OA
HETATM   13  H   UNL     1      42.637 -15.032   6.058  1.00  0.00     0.164 HD
HETATM   14  H   UNL     1      44.164 -13.520   6.544  1.00  0.00     0.164 HD
BRANCH  11  15
HETATM   15  C   UNL     1      41.982 -15.468   4.105  1.00  0.00     0.162 C 
BRANCH  15  16
HETATM   16  C   UNL     1      42.712 -16.733   3.728  1.00  0.00    -0.040 A 
HETATM   17  C   UNL     1      43.658 -17.290   4.600  1.00  0.00     0.009 A 
HETATM   18  C   UNL     1      44.302 -18.487   4.278  1.00  0.00     0.001 A 
HETATM   19  C   UNL     1      44.002 -19.144   3.086  1.00  0.00     0.000 A 
HETATM   20  C   UNL     1      43.053 -18.609   2.217  1.00  0.00     0.001 A 
HETATM   21  C   UNL     1      42.405 -17.416   2.540  1.00  0.00     0.009 A 
ENDBRANCH  15  16
ENDBRANCH  11  15
ENDBRANCH   8   9
ENDBRANCH   4   8
BRANCH   1  22
HETATM   22  C   UNL     1      42.731  -8.861   9.769  1.00  0.00     0.040 A 
HETATM   23  C   UNL     1      41.814  -9.477  10.632  1.00  0.00     0.036 A 
HETATM   24  C   UNL     1      40.985  -8.708  11.462  1.00  0.00    -0.060 A 
HETATM   25  C   UNL     1      40.018  -9.373  12.396  1.00  0.00     0.048 C 
HETATM   26  C   UNL     1      41.113  -7.314  11.449  1.00  0.00     0.007 A 
HETATM   27  C   UNL     1      42.033  -6.697  10.601  1.00  0.00     0.003 A 
HETATM   28  C   UNL     1      42.837  -7.467   9.759  1.00  0.00     0.030 A 
ENDBRANCH   1  22
TORSDOF 5
ENDMDL
MODEL 9
REMARK VINA RESULT:      -8.7      2.150     10.162
REMARK  5 active torsions:
REMARK  status: ('A' for Active; 'I' for Inactive)
REMARK    1  A    between atoms: C_4  and  N_5 
REMARK    2  A    between atoms: C_8  and  C_9 
REMARK    3  A    between atoms: C_9  and  N_10 
REMARK       I    between atoms: N_10  and  C_11 
REMARK       I    between atoms: C_11  and  N_12 
REMARK    4  A    between atoms: N_12  and  C_13 
REMARK    5  A    between atoms: C_13  and  C_14 
ROOT
HETATM    1  N   UNL     1      42.559  -9.346  10.263  1.00  0.00    -0.319 N 
HETATM    2  C   UNL     1      43.718  -9.960   9.781  1.00  0.00     0.021 A 
HETATM    3  C   UNL     1      44.781 -10.536  10.664  1.00  0.00     0.069 C 
HETATM    4  C   UNL     1      43.662  -9.990   8.389  1.00  0.00    -0.016 A 
HETATM    5  C   UNL     1      42.427  -9.406   8.020  1.00  0.00     0.035 A 
HETATM    6  C   UNL     1      41.774  -8.998   9.166  1.00  0.00     0.014 A 
HETATM    7  C   UNL     1      40.509  -8.210   9.237  1.00  0.00     0.068 C 
ENDROOT
BRANCH   4   8
HETATM    8  C   UNL     1      44.690 -10.519   7.435  1.00  0.00     0.165 C 
BRANCH   8   9
HETATM    9  N   UNL     1      44.016 -11.179   6.342  1.00  0.00    -0.339 N 
HETATM   10  C   UNL     1      43.724 -12.513   6.421  1.00  0.00     0.316 C 
HETATM   11  N   UNL     1      42.835 -12.888   5.450  1.00  0.00    -0.339 N 
HETATM   12  O   UNL     1      44.152 -13.265   7.283  1.00  0.00    -0.247 OA
HETATM   13  H   UNL     1      42.875 -12.382   4.580  1.00  0.00     0.164 HD
HETATM   14  H   UNL     1      43.411 -10.609   5.772  1.00  0.00     0.164 HD
BRANCH  11  15
HETATM   15  C   UNL     1      42.336 -14.244   5.403  1.00  0.00     0.162 C 
BRANCH  15  16
HETATM   16  C   UNL     1      42.743 -14.944   4.130  1.00  0.00    -0.040 A 
HETATM   17  C   UNL     1      42.793 -16.344   4.079  1.00  0.00     0.009 A 
HETATM   18  C   UNL     1      43.123 -17.000   2.890  1.00  0.00     0.001 A 
HETATM   19  C   UNL     1      43.397 -16.264   1.739  1.00  0.00     0.000 A 
HETATM   20  C   UNL     1      43.337 -14.872   1.771  1.00  0.00     0.001 A 
HETATM   21  C   UNL     1      43.003 -14.217   2.958  1.00  0.00     0.009 A 
ENDBRANCH  15  16
ENDBRANCH  11  15
ENDBRANCH   8   9
ENDBRANCH   4   8
BRANCH   1  22
HETATM   22  C   UNL     1      42.232  -9.117  11.635  1.00  0.00     0.040 A 
HETATM   23  C   UNL     1      42.903  -8.127  12.365  1.00  0.00     0.036 A 
HETATM   24  C   UNL     1      42.615  -7.921  13.722  1.00  0.00    -0.060 A 
HETATM   25  C   UNL     1      43.325  -6.848  14.494  1.00  0.00     0.048 C 
HETATM   26  C   UNL     1      41.618  -8.690  14.332  1.00  0.00     0.007 A 
HETATM   27  C   UNL     1      40.938  -9.668  13.606  1.00  0.00     0.003 A 
HETATM   28  C   UNL     1      41.246  -9.887  12.262  1.00  0.00     0.030 A 
ENDBRANCH   1  22
TORSDOF 5
ENDMDL
MODEL 10
REMARK VINA RESULT:      -8.7      2.292     10.697
REMARK  5 active torsions:
REMARK  status: ('A' for Active; 'I' for Inactive)
REMARK    1  A    between atoms: C_4  and  N_5 
REMARK    2  A    between atoms: C_8  and  C_9 
REMARK    3  A    between atoms: C_9  and  N_10 
REMARK       I    between atoms: N_10  and  C_11 
REMARK       I    between atoms: C_11  and  N_12 
REMARK    4  A    between atoms: N_12  and  C_13 
REMARK    5  A    between atoms: C_13  and  C_14 
ROOT
HETATM    1  N   UNL     1      43.117  -8.159  11.057  1.00  0.00    -0.319 N 
HETATM    2  C   UNL     1      43.622  -9.423  10.739  1.00  0.00     0.021 A 
HETATM    3  C   UNL     1      43.565 -10.597  11.666  1.00  0.00     0.069 C 
HETATM    4  C   UNL     1      44.102  -9.395   9.431  1.00  0.00    -0.016 A 
HETATM    5  C   UNL     1      43.857  -8.092   8.936  1.00  0.00     0.035 A 
HETATM    6  C   UNL     1      43.278  -7.342   9.940  1.00  0.00     0.014 A 
HETATM    7  C   UNL     1      42.983  -5.880   9.901  1.00  0.00     0.068 C 
ENDROOT
BRANCH   4   8
HETATM    8  C   UNL     1      44.762 -10.502   8.667  1.00  0.00     0.165 C 
BRANCH   8   9
HETATM    9  N   UNL     1      43.754 -11.450   8.254  1.00  0.00    -0.339 N 
HETATM   10  C   UNL     1      43.615 -11.773   6.933  1.00  0.00     0.316 C 
HETATM   11  N   UNL     1      42.837 -12.888   6.770  1.00  0.00    -0.339 N 
HETATM   12  O   UNL     1      44.161 -11.181   6.014  1.00  0.00    -0.247 OA
HETATM   13  H   UNL     1      42.113 -13.039   7.454  1.00  0.00     0.164 HD
HETATM   14  H   UNL     1      43.488 -12.151   8.929  1.00  0.00     0.164 HD
BRANCH  11  15
HETATM   15  C   UNL     1      42.624 -13.442   5.452  1.00  0.00     0.162 C 
BRANCH  15  16
HETATM   16  C   UNL     1      43.166 -14.846   5.342  1.00  0.00    -0.040 A 
HETATM   17  C   UNL     1      42.925 -15.609   4.191  1.00  0.00     0.009 A 
HETATM   18  C   UNL     1      43.464 -16.891   4.064  1.00  0.00     0.001 A 
HETATM   19  C   UNL     1      44.256 -17.421   5.081  1.00  0.00     0.000 A 
HETATM   20  C   UNL     1      44.516 -16.669   6.224  1.00  0.00     0.001 A 
HETATM   21  C   UNL     1      43.981 -15.385   6.350  1.00  0.00     0.009 A 
ENDBRANCH  15  16
ENDBRANCH  11  15
ENDBRANCH   8   9
ENDBRANCH   4   8
BRANCH   1  22
HETATM   22  C   UNL     1      42.537  -7.770  12.304  1.00  0.00     0.040 A 
HETATM   23  C   UNL     1      41.151  -7.586  12.410  1.00  0.00     0.036 A 
HETATM   24  C   UNL     1      40.577  -7.168  13.620  1.00  0.00    -0.060 A 
HETATM   25  C   UNL     1      39.092  -6.988  13.733  1.00  0.00     0.048 C 
HETATM   26  C   UNL     1      41.401  -6.977  14.735  1.00  0.00     0.007 A 
HETATM   27  C   UNL     1      42.778  -7.172  14.637  1.00  0.00     0.003 A 
HETATM   28  C   UNL     1      43.348  -7.563  13.424  1.00  0.00     0.030 A 
ENDBRANCH   1  22
TORSDOF 5
ENDMDL
