MODEL 1
REMARK VINA RESULT:      -8.1      0.000      0.000
REMARK  9 active torsions:
REMARK  status: ('A' for Active; 'I' for Inactive)
REMARK    1  A    between atoms: C_2  and  C_3 
REMARK    2  A    between atoms: C_7  and  C_8 
REMARK    3  A    between atoms: C_8  and  C_9 
REMARK       I    between atoms: C_9  and  N_10 
REMARK    4  A    between atoms: N_10  and  C_11 
REMARK    5  A    between atoms: C_11  and  C_12 
REMARK    6  A    between atoms: C_12  and  N_13 
REMARK    7  A    between atoms: C_21  and  C_22 
REMARK    8  A    between atoms: C_32  and  C_33 
REMARK    9  A    between atoms: C_33  and  O_34 
ROOT
HETATM    1  C   UNL     1      40.768 -14.902   3.929  1.00  0.00     0.051 C 
HETATM    2  N   UNL     1      39.895 -13.826   4.083  1.00  0.00    -0.228 NA
HETATM    3  C   UNL     1      40.320 -12.689   3.639  1.00  0.00     0.170 C 
HETATM    4  N   UNL     1      41.656 -12.552   2.865  1.00  0.00    -0.318 N 
HETATM    5  C   UNL     1      42.298 -11.539   3.338  1.00  0.00     0.011 C 
HETATM    6  C   UNL     1      41.919 -13.762   2.047  1.00  0.00     0.166 C 
HETATM    7  S   UNL     1      39.729 -11.143   4.134  1.00  0.00    -0.086 SA
HETATM    8  C   UNL     1      41.413 -10.447   3.921  1.00  0.00     0.135 C 
HETATM    9  C   UNL     1      41.749 -14.905   2.994  1.00  0.00     0.069 C 
ENDROOT
BRANCH   5  10
HETATM   10  C   UNL     1      43.777 -11.638   3.619  1.00  0.00     0.156 C 
BRANCH  10  11
HETATM   11  C   UNL     1      43.958 -11.934   5.105  1.00  0.00     0.223 C 
HETATM   12  N   UNL     1      44.815 -11.150   5.821  1.00  0.00    -0.359 N 
HETATM   13  H   UNL     1      45.375 -10.454   5.333  1.00  0.00     0.162 HD
HETATM   14  O   UNL     1      43.350 -12.863   5.636  1.00  0.00    -0.273 OA
BRANCH  12  15
HETATM   15  C   UNL     1      45.284 -11.523   7.168  1.00  0.00     0.150 C 
BRANCH  15  16
HETATM   16  C   UNL     1      45.820 -10.364   8.046  1.00  0.00     0.254 C 
BRANCH  16  17
HETATM   17  N   UNL     1      44.765  -9.799   8.983  1.00  0.00    -0.070 N 
HETATM   18  H   UNL     1      43.875 -10.267   8.730  1.00  0.00     0.279 HD
HETATM   19  C   UNL     1      45.001 -10.137  10.439  1.00  0.00     0.235 C 
HETATM   20  C   UNL     1      43.781  -9.715  11.251  1.00  0.00     0.028 C 
HETATM   21  C   UNL     1      43.463  -8.235  11.069  1.00  0.00     0.003 C 
HETATM   22  C   UNL     1      43.337  -7.872   9.594  1.00  0.00     0.028 C 
HETATM   23  C   UNL     1      44.555  -8.314   8.793  1.00  0.00     0.235 C 
ENDBRANCH  16  17
ENDBRANCH  15  16
ENDBRANCH  12  15
ENDBRANCH  10  11
ENDBRANCH   5  10
BRANCH   6  24
HETATM   24  C   UNL     1      40.986 -13.682   0.813  1.00  0.00    -0.024 C 
HETATM   25  C   UNL     1      40.844 -12.591  -0.079  1.00  0.00    -0.053 C 
HETATM   26  C   UNL     1      41.365 -11.193   0.134  1.00  0.00     0.049 C 
HETATM   27  C   UNL     1      40.170 -12.788  -1.306  1.00  0.00     0.014 C 
HETATM   28  C   UNL     1      39.586 -14.007  -1.652  1.00  0.00    -0.061 C 
HETATM   29  C   UNL     1      38.905 -14.178  -2.979  1.00  0.00     0.048 C 
HETATM   30  C   UNL     1      39.591 -15.032  -0.715  1.00  0.00     0.007 C 
HETATM   31  C   UNL     1      40.265 -14.868   0.498  1.00  0.00     0.011 C 
ENDBRANCH   6  24
BRANCH   9  32
HETATM   32  C   UNL     1      42.889 -15.839   3.063  1.00  0.00     0.293 C 
HETATM   33  O   UNL     1      43.763 -15.725   3.906  1.00  0.00    -0.259 OA
BRANCH  32  34
HETATM   34  O   UNL     1      42.875 -16.653   1.992  1.00  0.00    -0.323 OA
HETATM   35  C   UNL     1      43.184 -18.034   2.230  1.00  0.00     0.213 C 
ENDBRANCH  32  34
ENDBRANCH   9  32
BRANCH   1  36
HETATM   36  C   UNL     1      40.548 -16.029   4.921  1.00  0.00     0.056 C 
HETATM   37  C   UNL     1      40.440 -15.517   6.350  1.00  0.00     0.011 C 
ENDBRANCH   1  36
TORSDOF 9
ENDMDL
MODEL 2
REMARK VINA RESULT:      -7.9      2.589      5.111
REMARK  9 active torsions:
REMARK  status: ('A' for Active; 'I' for Inactive)
REMARK    1  A    between atoms: C_2  and  C_3 
REMARK    2  A    between atoms: C_7  and  C_8 
REMARK    3  A    between atoms: C_8  and  C_9 
REMARK       I    between atoms: C_9  and  N_10 
REMARK    4  A    between atoms: N_10  and  C_11 
REMARK    5  A    between atoms: C_11  and  C_12 
REMARK    6  A    between atoms: C_12  and  N_13 
REMARK    7  A    between atoms: C_21  and  C_22 
REMARK    8  A    between atoms: C_32  and  C_33 
REMARK    9  A    between atoms: C_33  and  O_34 
ROOT
HETATM    1  C   UNL     1      41.902 -12.958   2.306  1.00  0.00     0.051 C 
HETATM    2  N   UNL     1      43.063 -12.491   2.921  1.00  0.00    -0.228 NA
HETATM    3  C   UNL     1      43.049 -12.477   4.213  1.00  0.00     0.170 C 
HETATM    4  N   UNL     1      41.871 -13.063   5.032  1.00  0.00    -0.318 N 
HETATM    5  C   UNL     1      41.562 -12.223   5.959  1.00  0.00     0.011 C 
HETATM    6  C   UNL     1      41.280 -14.237   4.342  1.00  0.00     0.166 C 
HETATM    7  S   UNL     1      44.075 -11.508   5.209  1.00  0.00    -0.086 SA
HETATM    8  C   UNL     1      42.715 -11.351   6.432  1.00  0.00     0.135 C 
HETATM    9  C   UNL     1      41.024 -13.767   2.947  1.00  0.00     0.069 C 
ENDROOT
BRANCH   5  10
HETATM   10  C   UNL     1      40.116 -11.899   6.242  1.00  0.00     0.156 C 
BRANCH  10  11
HETATM   11  C   UNL     1      40.054 -10.504   6.858  1.00  0.00     0.223 C 
HETATM   12  N   UNL     1      39.957 -10.400   8.215  1.00  0.00    -0.359 N 
HETATM   13  H   UNL     1      39.837 -11.246   8.770  1.00  0.00     0.162 HD
HETATM   14  O   UNL     1      40.082  -9.503   6.143  1.00  0.00    -0.273 OA
BRANCH  12  15
HETATM   15  C   UNL     1      39.597  -9.137   8.884  1.00  0.00     0.150 C 
BRANCH  15  16
HETATM   16  C   UNL     1      40.474  -8.737  10.098  1.00  0.00     0.254 C 
BRANCH  16  17
HETATM   17  N   UNL     1      41.852  -9.378  10.065  1.00  0.00    -0.070 N 
HETATM   18  H   UNL     1      41.764 -10.220   9.466  1.00  0.00     0.279 HD
HETATM   19  C   UNL     1      42.906  -8.518   9.402  1.00  0.00     0.235 C 
HETATM   20  C   UNL     1      44.179  -9.339   9.228  1.00  0.00     0.028 C 
HETATM   21  C   UNL     1      44.676  -9.902  10.555  1.00  0.00     0.003 C 
HETATM   22  C   UNL     1      43.578 -10.673  11.277  1.00  0.00     0.028 C 
HETATM   23  C   UNL     1      42.307  -9.847  11.428  1.00  0.00     0.235 C 
ENDBRANCH  16  17
ENDBRANCH  15  16
ENDBRANCH  12  15
ENDBRANCH  10  11
ENDBRANCH   5  10
BRANCH   6  24
HETATM   24  C   UNL     1      42.256 -15.421   4.553  1.00  0.00    -0.024 C 
HETATM   25  C   UNL     1      42.584 -16.047   5.781  1.00  0.00    -0.053 C 
HETATM   26  C   UNL     1      42.264 -15.527   7.159  1.00  0.00     0.049 C 
HETATM   27  C   UNL     1      43.263 -17.287   5.762  1.00  0.00     0.014 C 
HETATM   28  C   UNL     1      43.677 -17.896   4.577  1.00  0.00    -0.061 C 
HETATM   29  C   UNL     1      44.370 -19.227   4.605  1.00  0.00     0.048 C 
HETATM   30  C   UNL     1      43.492 -17.212   3.383  1.00  0.00     0.007 C 
HETATM   31  C   UNL     1      42.808 -15.994   3.373  1.00  0.00     0.011 C 
ENDBRANCH   6  24
BRANCH   9  32
HETATM   32  C   UNL     1      39.643 -13.958   2.463  1.00  0.00     0.293 C 
HETATM   33  O   UNL     1      38.816 -13.063   2.510  1.00  0.00    -0.259 OA
BRANCH  32  34
HETATM   34  O   UNL     1      39.442 -15.254   2.162  1.00  0.00    -0.323 OA
HETATM   35  C   UNL     1      39.925 -15.700   0.886  1.00  0.00     0.213 C 
ENDBRANCH  32  34
ENDBRANCH   9  32
BRANCH   1  36
HETATM   36  C   UNL     1      41.695 -12.443   0.894  1.00  0.00     0.056 C 
HETATM   37  C   UNL     1      41.427 -10.946   0.866  1.00  0.00     0.011 C 
ENDBRANCH   1  36
TORSDOF 9
ENDMDL
MODEL 3
REMARK VINA RESULT:      -7.9      3.325      7.443
REMARK  9 active torsions:
REMARK  status: ('A' for Active; 'I' for Inactive)
REMARK    1  A    between atoms: C_2  and  C_3 
REMARK    2  A    between atoms: C_7  and  C_8 
REMARK    3  A    between atoms: C_8  and  C_9 
REMARK       I    between atoms: C_9  and  N_10 
REMARK    4  A    between atoms: N_10  and  C_11 
REMARK    5  A    between atoms: C_11  and  C_12 
REMARK    6  A    between atoms: C_12  and  N_13 
REMARK    7  A    between atoms: C_21  and  C_22 
REMARK    8  A    between atoms: C_32  and  C_33 
REMARK    9  A    between atoms: C_33  and  O_34 
ROOT
HETATM    1  C   UNL     1      41.065 -14.861   5.220  1.00  0.00     0.051 C 
HETATM    2  N   UNL     1      40.315 -15.586   4.295  1.00  0.00    -0.228 NA
HETATM    3  C   UNL     1      40.788 -15.625   3.093  1.00  0.00     0.170 C 
HETATM    4  N   UNL     1      42.167 -15.018   2.728  1.00  0.00    -0.318 N 
HETATM    5  C   UNL     1      42.036 -14.333   1.645  1.00  0.00     0.011 C 
HETATM    6  C   UNL     1      43.121 -15.158   3.858  1.00  0.00     0.166 C 
HETATM    7  S   UNL     1      39.869 -15.974   1.673  1.00  0.00    -0.086 SA
HETATM    8  C   UNL     1      40.930 -14.819   0.720  1.00  0.00     0.135 C 
HETATM    9  C   UNL     1      42.387 -14.619   5.042  1.00  0.00     0.069 C 
ENDROOT
BRANCH   5  10
HETATM   10  C   UNL     1      42.671 -12.970   1.525  1.00  0.00     0.156 C 
BRANCH  10  11
HETATM   11  C   UNL     1      41.570 -11.921   1.668  1.00  0.00     0.223 C 
HETATM   12  N   UNL     1      40.804 -11.936   2.797  1.00  0.00    -0.359 N 
HETATM   13  H   UNL     1      40.924 -12.694   3.466  1.00  0.00     0.162 HD
HETATM   14  O   UNL     1      41.378 -11.092   0.779  1.00  0.00    -0.273 OA
BRANCH  12  15
HETATM   15  C   UNL     1      39.546 -11.176   2.905  1.00  0.00     0.150 C 
BRANCH  15  16
HETATM   16  C   UNL     1      38.320 -11.785   2.177  1.00  0.00     0.254 C 
BRANCH  16  17
HETATM   17  N   UNL     1      38.153 -11.256   0.762  1.00  0.00    -0.070 N 
HETATM   18  H   UNL     1      38.901 -10.551   0.628  1.00  0.00     0.279 HD
HETATM   19  C   UNL     1      38.384 -12.300  -0.308  1.00  0.00     0.235 C 
HETATM   20  C   UNL     1      38.408 -11.618  -1.671  1.00  0.00     0.028 C 
HETATM   21  C   UNL     1      37.130 -10.828  -1.932  1.00  0.00     0.003 C 
HETATM   22  C   UNL     1      36.837  -9.855  -0.797  1.00  0.00     0.028 C 
HETATM   23  C   UNL     1      36.833 -10.548   0.559  1.00  0.00     0.235 C 
ENDBRANCH  16  17
ENDBRANCH  15  16
ENDBRANCH  12  15
ENDBRANCH  10  11
ENDBRANCH   5  10
BRANCH   6  24
HETATM   24  C   UNL     1      43.574 -16.639   3.882  1.00  0.00    -0.024 C 
HETATM   25  C   UNL     1      43.985 -17.386   5.013  1.00  0.00    -0.053 C 
HETATM   26  C   UNL     1      44.324 -16.830   6.373  1.00  0.00     0.049 C 
HETATM   27  C   UNL     1      44.088 -18.792   4.910  1.00  0.00     0.014 C 
HETATM   28  C   UNL     1      43.855 -19.474   3.715  1.00  0.00    -0.061 C 
HETATM   29  C   UNL     1      43.949 -20.971   3.660  1.00  0.00     0.048 C 
HETATM   30  C   UNL     1      43.600 -18.732   2.570  1.00  0.00     0.007 C 
HETATM   31  C   UNL     1      43.476 -17.343   2.649  1.00  0.00     0.011 C 
ENDBRANCH   6  24
BRANCH   9  32
HETATM   32  C   UNL     1      43.094 -13.563   5.793  1.00  0.00     0.293 C 
HETATM   33  O   UNL     1      43.501 -13.745   6.928  1.00  0.00    -0.259 OA
BRANCH  32  34
HETATM   34  O   UNL     1      43.039 -12.406   5.110  1.00  0.00    -0.323 OA
HETATM   35  C   UNL     1      42.698 -11.232   5.862  1.00  0.00     0.213 C 
ENDBRANCH  32  34
ENDBRANCH   9  32
BRANCH   1  36
HETATM   36  C   UNL     1      40.265 -14.337   6.397  1.00  0.00     0.056 C 
HETATM   37  C   UNL     1      39.498 -13.071   6.047  1.00  0.00     0.011 C 
ENDBRANCH   1  36
TORSDOF 9
ENDMDL
MODEL 4
REMARK VINA RESULT:      -7.9      2.711      5.116
REMARK  9 active torsions:
REMARK  status: ('A' for Active; 'I' for Inactive)
REMARK    1  A    between atoms: C_2  and  C_3 
REMARK    2  A    between atoms: C_7  and  C_8 
REMARK    3  A    between atoms: C_8  and  C_9 
REMARK       I    between atoms: C_9  and  N_10 
REMARK    4  A    between atoms: N_10  and  C_11 
REMARK    5  A    between atoms: C_11  and  C_12 
REMARK    6  A    between atoms: C_12  and  N_13 
REMARK    7  A    between atoms: C_21  and  C_22 
REMARK    8  A    between atoms: C_32  and  C_33 
REMARK    9  A    between atoms: C_33  and  O_34 
ROOT
HETATM    1  C   UNL     1      41.808 -11.955   1.955  1.00  0.00     0.051 C 
HETATM    2  N   UNL     1      42.950 -11.713   2.716  1.00  0.00    -0.228 NA
HETATM    3  C   UNL     1      42.874 -12.037   3.965  1.00  0.00     0.170 C 
HETATM    4  N   UNL     1      41.641 -12.770   4.553  1.00  0.00    -0.318 N 
HETATM    5  C   UNL     1      41.311 -12.190   5.656  1.00  0.00     0.011 C 
HETATM    6  C   UNL     1      41.052 -13.697   3.555  1.00  0.00     0.166 C 
HETATM    7  S   UNL     1      43.876 -11.404   5.221  1.00  0.00    -0.086 SA
HETATM    8  C   UNL     1      42.464 -11.520   6.387  1.00  0.00     0.135 C 
HETATM    9  C   UNL     1      40.878 -12.868   2.324  1.00  0.00     0.069 C 
ENDROOT
BRANCH   5  10
HETATM   10  C   UNL     1      39.862 -11.894   5.956  1.00  0.00     0.156 C 
BRANCH  10  11
HETATM   11  C   UNL     1      39.802 -10.617   6.789  1.00  0.00     0.223 C 
HETATM   12  N   UNL     1      39.545 -10.726   8.125  1.00  0.00    -0.359 N 
HETATM   13  H   UNL     1      39.311 -11.639   8.511  1.00  0.00     0.162 HD
HETATM   14  O   UNL     1      39.973  -9.518   6.261  1.00  0.00    -0.273 OA
BRANCH  12  15
HETATM   15  C   UNL     1      39.176  -9.564   8.953  1.00  0.00     0.150 C 
BRANCH  15  16
HETATM   16  C   UNL     1      39.725  -9.562  10.403  1.00  0.00     0.254 C 
BRANCH  16  17
HETATM   17  N   UNL     1      41.233  -9.749  10.461  1.00  0.00    -0.070 N 
HETATM   18  H   UNL     1      41.424 -10.674  10.033  1.00  0.00     0.279 HD
HETATM   19  C   UNL     1      42.002  -8.749   9.627  1.00  0.00     0.235 C 
HETATM   20  C   UNL     1      43.469  -9.163   9.583  1.00  0.00     0.028 C 
HETATM   21  C   UNL     1      44.063  -9.293  10.982  1.00  0.00     0.003 C 
HETATM   22  C   UNL     1      43.222 -10.214  11.858  1.00  0.00     0.028 C 
HETATM   23  C   UNL     1      41.757  -9.798  11.878  1.00  0.00     0.235 C 
ENDBRANCH  16  17
ENDBRANCH  15  16
ENDBRANCH  12  15
ENDBRANCH  10  11
ENDBRANCH   5  10
BRANCH   6  24
HETATM   24  C   UNL     1      41.983 -14.933   3.486  1.00  0.00    -0.024 C 
HETATM   25  C   UNL     1      42.273 -15.842   4.533  1.00  0.00    -0.053 C 
HETATM   26  C   UNL     1      41.955 -15.648   5.994  1.00  0.00     0.049 C 
HETATM   27  C   UNL     1      42.908 -17.067   4.226  1.00  0.00     0.014 C 
HETATM   28  C   UNL     1      43.315 -17.396   2.932  1.00  0.00    -0.061 C 
HETATM   29  C   UNL     1      43.960 -18.721   2.649  1.00  0.00     0.048 C 
HETATM   30  C   UNL     1      43.168 -16.444   1.932  1.00  0.00     0.007 C 
HETATM   31  C   UNL     1      42.529 -15.233   2.206  1.00  0.00     0.011 C 
ENDBRANCH   6  24
BRANCH   9  32
HETATM   32  C   UNL     1      39.517 -12.871   1.752  1.00  0.00     0.293 C 
HETATM   33  O   UNL     1      39.284 -13.342   0.652  1.00  0.00    -0.259 OA
BRANCH  32  34
HETATM   34  O   UNL     1      38.695 -12.146   2.532  1.00  0.00    -0.323 OA
HETATM   35  C   UNL     1      37.945 -11.107   1.885  1.00  0.00     0.213 C 
ENDBRANCH  32  34
ENDBRANCH   9  32
BRANCH   1  36
HETATM   36  C   UNL     1      41.685 -11.081   0.721  1.00  0.00     0.056 C 
HETATM   37  C   UNL     1      41.286  -9.655   1.070  1.00  0.00     0.011 C 
ENDBRANCH   1  36
TORSDOF 9
ENDMDL
MODEL 5
REMARK VINA RESULT:      -7.5      2.808      5.275
REMARK  9 active torsions:
REMARK  status: ('A' for Active; 'I' for Inactive)
REMARK    1  A    between atoms: C_2  and  C_3 
REMARK    2  A    between atoms: C_7  and  C_8 
REMARK    3  A    between atoms: C_8  and  C_9 
REMARK       I    between atoms: C_9  and  N_10 
REMARK    4  A    between atoms: N_10  and  C_11 
REMARK    5  A    between atoms: C_11  and  C_12 
REMARK    6  A    between atoms: C_12  and  N_13 
REMARK    7  A    between atoms: C_21  and  C_22 
REMARK    8  A    between atoms: C_32  and  C_33 
REMARK    9  A    between atoms: C_33  and  O_34 
ROOT
HETATM    1  C   UNL     1      40.998 -14.958   5.208  1.00  0.00     0.051 C 
HETATM    2  N   UNL     1      40.261 -15.593   4.210  1.00  0.00    -0.228 NA
HETATM    3  C   UNL     1      40.736 -15.496   3.011  1.00  0.00     0.170 C 
HETATM    4  N   UNL     1      42.105 -14.830   2.717  1.00  0.00    -0.318 N 
HETATM    5  C   UNL     1      41.963 -14.035   1.712  1.00  0.00     0.011 C 
HETATM    6  C   UNL     1      43.060 -15.073   3.827  1.00  0.00     0.166 C 
HETATM    7  S   UNL     1      39.824 -15.706   1.560  1.00  0.00    -0.086 SA
HETATM    8  C   UNL     1      40.866 -14.438   0.739  1.00  0.00     0.135 C 
HETATM    9  C   UNL     1      42.316 -14.677   5.061  1.00  0.00     0.069 C 
ENDROOT
BRANCH   5  10
HETATM   10  C   UNL     1      42.574 -12.656   1.741  1.00  0.00     0.156 C 
BRANCH  10  11
HETATM   11  C   UNL     1      41.553 -11.699   2.351  1.00  0.00     0.223 C 
HETATM   12  N   UNL     1      41.718 -10.360   2.144  1.00  0.00    -0.359 N 
HETATM   13  H   UNL     1      42.558 -10.031   1.672  1.00  0.00     0.162 HD
HETATM   14  O   UNL     1      40.614 -12.130   3.019  1.00  0.00    -0.273 OA
BRANCH  12  15
HETATM   15  C   UNL     1      40.978  -9.348   2.919  1.00  0.00     0.150 C 
BRANCH  15  16
HETATM   16  C   UNL     1      41.699  -8.793   4.175  1.00  0.00     0.254 C 
BRANCH  16  17
HETATM   17  N   UNL     1      41.107  -9.317   5.473  1.00  0.00    -0.070 N 
HETATM   18  H   UNL     1      41.160 -10.351   5.416  1.00  0.00     0.279 HD
HETATM   19  C   UNL     1      41.905  -8.938   6.701  1.00  0.00     0.235 C 
HETATM   20  C   UNL     1      41.351  -9.692   7.905  1.00  0.00     0.028 C 
HETATM   21  C   UNL     1      39.864  -9.426   8.105  1.00  0.00     0.003 C 
HETATM   22  C   UNL     1      39.074  -9.701   6.831  1.00  0.00     0.028 C 
HETATM   23  C   UNL     1      39.649  -8.954   5.634  1.00  0.00     0.235 C 
ENDBRANCH  16  17
ENDBRANCH  15  16
ENDBRANCH  12  15
ENDBRANCH  10  11
ENDBRANCH   5  10
BRANCH   6  24
HETATM   24  C   UNL     1      43.538 -16.541   3.695  1.00  0.00    -0.024 C 
HETATM   25  C   UNL     1      44.147 -17.333   4.699  1.00  0.00    -0.053 C 
HETATM   26  C   UNL     1      44.698 -16.838   6.011  1.00  0.00     0.049 C 
HETATM   27  C   UNL     1      44.258 -18.728   4.503  1.00  0.00     0.014 C 
HETATM   28  C   UNL     1      43.840 -19.354   3.328  1.00  0.00    -0.061 C 
HETATM   29  C   UNL     1      43.951 -20.843   3.176  1.00  0.00     0.048 C 
HETATM   30  C   UNL     1      43.383 -18.562   2.283  1.00  0.00     0.007 C 
HETATM   31  C   UNL     1      43.248 -17.183   2.458  1.00  0.00     0.011 C 
ENDBRANCH   6  24
BRANCH   9  32
HETATM   32  C   UNL     1      43.005 -13.695   5.922  1.00  0.00     0.293 C 
HETATM   33  O   UNL     1      43.408 -13.989   7.035  1.00  0.00    -0.259 OA
BRANCH  32  34
HETATM   34  O   UNL     1      42.937 -12.474   5.363  1.00  0.00    -0.323 OA
HETATM   35  C   UNL     1      44.118 -11.662   5.448  1.00  0.00     0.213 C 
ENDBRANCH  32  34
ENDBRANCH   9  32
BRANCH   1  36
HETATM   36  C   UNL     1      40.189 -14.577   6.433  1.00  0.00     0.056 C 
HETATM   37  C   UNL     1      39.546 -13.205   6.287  1.00  0.00     0.011 C 
ENDBRANCH   1  36
TORSDOF 9
ENDMDL
MODEL 6
REMARK VINA RESULT:      -7.4      5.725     11.994
REMARK  9 active torsions:
REMARK  status: ('A' for Active; 'I' for Inactive)
REMARK    1  A    between atoms: C_2  and  C_3 
REMARK    2  A    between atoms: C_7  and  C_8 
REMARK    3  A    between atoms: C_8  and  C_9 
REMARK       I    between atoms: C_9  and  N_10 
REMARK    4  A    between atoms: N_10  and  C_11 
REMARK    5  A    between atoms: C_11  and  C_12 
REMARK    6  A    between atoms: C_12  and  N_13 
REMARK    7  A    between atoms: C_21  and  C_22 
REMARK    8  A    between atoms: C_32  and  C_33 
REMARK    9  A    between atoms: C_33  and  O_34 
ROOT
HETATM    1  C   UNL     1      42.059  -8.691  12.540  1.00  0.00     0.051 C 
HETATM    2  N   UNL     1      42.635  -7.422  12.487  1.00  0.00    -0.228 NA
HETATM    3  C   UNL     1      41.810  -6.433  12.387  1.00  0.00     0.170 C 
HETATM    4  N   UNL     1      40.274  -6.629  12.455  1.00  0.00    -0.318 N 
HETATM    5  C   UNL     1      39.734  -5.948  11.503  1.00  0.00     0.011 C 
HETATM    6  C   UNL     1      39.923  -7.739  13.377  1.00  0.00     0.166 C 
HETATM    7  S   UNL     1      42.208  -4.860  11.794  1.00  0.00    -0.086 SA
HETATM    8  C   UNL     1      40.523  -4.719  11.080  1.00  0.00     0.135 C 
HETATM    9  C   UNL     1      40.777  -8.883  12.935  1.00  0.00     0.069 C 
ENDROOT
BRANCH   5  10
HETATM   10  C   UNL     1      38.637  -6.554  10.662  1.00  0.00     0.156 C 
BRANCH  10  11
HETATM   11  C   UNL     1      39.258  -7.042   9.355  1.00  0.00     0.223 C 
HETATM   12  N   UNL     1      40.229  -7.998   9.418  1.00  0.00    -0.359 N 
HETATM   13  H   UNL     1      40.578  -8.291  10.328  1.00  0.00     0.162 HD
HETATM   14  O   UNL     1      38.892  -6.574   8.277  1.00  0.00    -0.273 OA
BRANCH  12  15
HETATM   15  C   UNL     1      41.090  -8.321   8.266  1.00  0.00     0.150 C 
BRANCH  15  16
HETATM   16  C   UNL     1      40.753  -9.634   7.513  1.00  0.00     0.254 C 
BRANCH  16  17
HETATM   17  N   UNL     1      41.927 -10.597   7.455  1.00  0.00    -0.070 N 
HETATM   18  H   UNL     1      41.775 -11.284   8.216  1.00  0.00     0.279 HD
HETATM   19  C   UNL     1      41.983 -11.411   6.181  1.00  0.00     0.235 C 
HETATM   20  C   UNL     1      43.056 -12.485   6.323  1.00  0.00     0.028 C 
HETATM   21  C   UNL     1      44.416 -11.885   6.659  1.00  0.00     0.003 C 
HETATM   22  C   UNL     1      44.336 -10.973   7.878  1.00  0.00     0.028 C 
HETATM   23  C   UNL     1      43.249  -9.917   7.728  1.00  0.00     0.235 C 
ENDBRANCH  16  17
ENDBRANCH  15  16
ENDBRANCH  12  15
ENDBRANCH  10  11
ENDBRANCH   5  10
BRANCH   6  24
HETATM   24  C   UNL     1      40.102  -7.199  14.818  1.00  0.00    -0.024 C 
HETATM   25  C   UNL     1      39.312  -6.218  15.466  1.00  0.00    -0.053 C 
HETATM   26  C   UNL     1      38.308  -5.307  14.807  1.00  0.00     0.049 C 
HETATM   27  C   UNL     1      39.430  -6.051  16.864  1.00  0.00     0.014 C 
HETATM   28  C   UNL     1      40.341  -6.779  17.631  1.00  0.00    -0.061 C 
HETATM   29  C   UNL     1      40.411  -6.588  19.118  1.00  0.00     0.048 C 
HETATM   30  C   UNL     1      41.222  -7.631  16.977  1.00  0.00     0.007 C 
HETATM   31  C   UNL     1      41.114  -7.826  15.599  1.00  0.00     0.011 C 
ENDBRANCH   6  24
BRANCH   9  32
HETATM   32  C   UNL     1      40.050 -10.134  12.644  1.00  0.00     0.293 C 
HETATM   33  O   UNL     1      39.822 -10.960  13.512  1.00  0.00    -0.259 OA
BRANCH  32  34
HETATM   34  O   UNL     1      39.872 -10.258  11.317  1.00  0.00    -0.323 OA
HETATM   35  C   UNL     1      38.653 -10.882  10.888  1.00  0.00     0.213 C 
ENDBRANCH  32  34
ENDBRANCH   9  32
BRANCH   1  36
HETATM   36  C   UNL     1      42.972  -9.809  12.075  1.00  0.00     0.056 C 
HETATM   37  C   UNL     1      44.135  -9.288  11.244  1.00  0.00     0.011 C 
ENDBRANCH   1  36
TORSDOF 9
ENDMDL
MODEL 7
REMARK VINA RESULT:      -7.3      1.960      2.602
REMARK  9 active torsions:
REMARK  status: ('A' for Active; 'I' for Inactive)
REMARK    1  A    between atoms: C_2  and  C_3 
REMARK    2  A    between atoms: C_7  and  C_8 
REMARK    3  A    between atoms: C_8  and  C_9 
REMARK       I    between atoms: C_9  and  N_10 
REMARK    4  A    between atoms: N_10  and  C_11 
REMARK    5  A    between atoms: C_11  and  C_12 
REMARK    6  A    between atoms: C_12  and  N_13 
REMARK    7  A    between atoms: C_21  and  C_22 
REMARK    8  A    between atoms: C_32  and  C_33 
REMARK    9  A    between atoms: C_33  and  O_34 
ROOT
HETATM    1  C   UNL     1      40.902 -14.443   5.909  1.00  0.00     0.051 C 
HETATM    2  N   UNL     1      39.962 -13.413   5.904  1.00  0.00    -0.228 NA
HETATM    3  C   UNL     1      40.373 -12.279   5.440  1.00  0.00     0.170 C 
HETATM    4  N   UNL     1      41.777 -12.105   4.808  1.00  0.00    -0.318 N 
HETATM    5  C   UNL     1      42.309 -11.032   5.286  1.00  0.00     0.011 C 
HETATM    6  C   UNL     1      42.193 -13.340   4.096  1.00  0.00     0.166 C 
HETATM    7  S   UNL     1      39.650 -10.747   5.776  1.00  0.00    -0.086 SA
HETATM    8  C   UNL     1      41.309  -9.965   5.704  1.00  0.00     0.135 C 
HETATM    9  C   UNL     1      41.980 -14.438   5.087  1.00  0.00     0.069 C 
ENDROOT
BRANCH   5  10
HETATM   10  C   UNL     1      43.750 -11.029   5.729  1.00  0.00     0.156 C 
BRANCH  10  11
HETATM   11  C   UNL     1      43.778 -11.130   7.252  1.00  0.00     0.223 C 
HETATM   12  N   UNL     1      43.517 -10.006   7.980  1.00  0.00    -0.359 N 
HETATM   13  H   UNL     1      43.402  -9.118   7.496  1.00  0.00     0.162 HD
HETATM   14  O   UNL     1      44.039 -12.199   7.802  1.00  0.00    -0.273 OA
BRANCH  12  15
HETATM   15  C   UNL     1      43.803  -9.919   9.423  1.00  0.00     0.150 C 
BRANCH  15  16
HETATM   16  C   UNL     1      43.121  -8.752  10.182  1.00  0.00     0.254 C 
BRANCH  16  17
HETATM   17  N   UNL     1      42.502  -9.189  11.500  1.00  0.00    -0.070 N 
HETATM   18  H   UNL     1      42.928 -10.106  11.727  1.00  0.00     0.279 HD
HETATM   19  C   UNL     1      42.845  -8.284  12.662  1.00  0.00     0.235 C 
HETATM   20  C   UNL     1      42.362  -8.931  13.955  1.00  0.00     0.028 C 
HETATM   21  C   UNL     1      40.869  -9.238  13.912  1.00  0.00     0.003 C 
HETATM   22  C   UNL     1      40.506 -10.055  12.678  1.00  0.00     0.028 C 
HETATM   23  C   UNL     1      41.010  -9.405  11.396  1.00  0.00     0.235 C 
ENDBRANCH  16  17
ENDBRANCH  15  16
ENDBRANCH  12  15
ENDBRANCH  10  11
ENDBRANCH   5  10
BRANCH   6  24
HETATM   24  C   UNL     1      41.398 -13.381   2.767  1.00  0.00    -0.024 C 
HETATM   25  C   UNL     1      41.403 -12.406   1.741  1.00  0.00    -0.053 C 
HETATM   26  C   UNL     1      41.965 -11.010   1.840  1.00  0.00     0.049 C 
HETATM   27  C   UNL     1      40.853 -12.730   0.479  1.00  0.00     0.014 C 
HETATM   28  C   UNL     1      40.250 -13.961   0.220  1.00  0.00    -0.061 C 
HETATM   29  C   UNL     1      39.704 -14.272  -1.143  1.00  0.00     0.048 C 
HETATM   30  C   UNL     1      40.109 -14.861   1.268  1.00  0.00     0.007 C 
HETATM   31  C   UNL     1      40.659 -14.571   2.519  1.00  0.00     0.011 C 
ENDBRANCH   6  24
BRANCH   9  32
HETATM   32  C   UNL     1      43.153 -15.299   5.333  1.00  0.00     0.293 C 
HETATM   33  O   UNL     1      43.933 -15.076   6.244  1.00  0.00    -0.259 OA
BRANCH  32  34
HETATM   34  O   UNL     1      43.285 -16.185   4.331  1.00  0.00    -0.323 OA
HETATM   35  C   UNL     1      43.903 -17.439   4.658  1.00  0.00     0.213 C 
ENDBRANCH  32  34
ENDBRANCH   9  32
BRANCH   1  36
HETATM   36  C   UNL     1      40.635 -15.526   6.938  1.00  0.00     0.056 C 
HETATM   37  C   UNL     1      39.856 -16.692   6.347  1.00  0.00     0.011 C 
ENDBRANCH   1  36
TORSDOF 9
ENDMDL
MODEL 8
REMARK VINA RESULT:      -7.3      2.767      4.911
REMARK  9 active torsions:
REMARK  status: ('A' for Active; 'I' for Inactive)
REMARK    1  A    between atoms: C_2  and  C_3 
REMARK    2  A    between atoms: C_7  and  C_8 
REMARK    3  A    between atoms: C_8  and  C_9 
REMARK       I    between atoms: C_9  and  N_10 
REMARK    4  A    between atoms: N_10  and  C_11 
REMARK    5  A    between atoms: C_11  and  C_12 
REMARK    6  A    between atoms: C_12  and  N_13 
REMARK    7  A    between atoms: C_21  and  C_22 
REMARK    8  A    between atoms: C_32  and  C_33 
REMARK    9  A    between atoms: C_33  and  O_34 
ROOT
HETATM    1  C   UNL     1      41.161 -11.277   1.886  1.00  0.00     0.051 C 
HETATM    2  N   UNL     1      42.358 -11.482   2.572  1.00  0.00    -0.228 NA
HETATM    3  C   UNL     1      42.249 -12.010   3.747  1.00  0.00     0.170 C 
HETATM    4  N   UNL     1      40.892 -12.506   4.307  1.00  0.00    -0.318 N 
HETATM    5  C   UNL     1      40.774 -12.084   5.519  1.00  0.00     0.011 C 
HETATM    6  C   UNL     1      40.037 -13.045   3.220  1.00  0.00     0.166 C 
HETATM    7  S   UNL     1      43.435 -11.904   4.998  1.00  0.00    -0.086 SA
HETATM    8  C   UNL     1      42.093 -11.880   6.249  1.00  0.00     0.135 C 
HETATM    9  C   UNL     1      40.038 -11.979   2.173  1.00  0.00     0.069 C 
ENDROOT
BRANCH   5  10
HETATM   10  C   UNL     1      39.469 -11.494   5.996  1.00  0.00     0.156 C 
BRANCH  10  11
HETATM   11  C   UNL     1      39.787 -10.288   6.876  1.00  0.00     0.223 C 
HETATM   12  N   UNL     1      39.619 -10.409   8.224  1.00  0.00    -0.359 N 
HETATM   13  H   UNL     1      39.202 -11.259   8.597  1.00  0.00     0.162 HD
HETATM   14  O   UNL     1      40.177  -9.234   6.374  1.00  0.00    -0.273 OA
BRANCH  12  15
HETATM   15  C   UNL     1      39.610  -9.241   9.123  1.00  0.00     0.150 C 
BRANCH  15  16
HETATM   16  C   UNL     1      40.294  -9.439  10.501  1.00  0.00     0.254 C 
BRANCH  16  17
HETATM   17  N   UNL     1      41.744  -9.880  10.379  1.00  0.00    -0.070 N 
HETATM   18  H   UNL     1      41.722 -10.828   9.959  1.00  0.00     0.279 HD
HETATM   19  C   UNL     1      42.559  -9.034   9.426  1.00  0.00     0.235 C 
HETATM   20  C   UNL     1      43.918  -9.693   9.215  1.00  0.00     0.028 C 
HETATM   21  C   UNL     1      44.653  -9.910  10.533  1.00  0.00     0.003 C 
HETATM   22  C   UNL     1      43.787 -10.665  11.535  1.00  0.00     0.028 C 
HETATM   23  C   UNL     1      42.427 -10.005  11.721  1.00  0.00     0.235 C 
ENDBRANCH  16  17
ENDBRANCH  15  16
ENDBRANCH  12  15
ENDBRANCH  10  11
ENDBRANCH   5  10
BRANCH   6  24
HETATM   24  C   UNL     1      40.603 -14.439   2.853  1.00  0.00    -0.024 C 
HETATM   25  C   UNL     1      40.932 -14.912   1.559  1.00  0.00    -0.053 C 
HETATM   26  C   UNL     1      40.551 -14.266   0.251  1.00  0.00     0.049 C 
HETATM   27  C   UNL     1      41.701 -16.092   1.430  1.00  0.00     0.014 C 
HETATM   28  C   UNL     1      42.104 -16.845   2.533  1.00  0.00    -0.061 C 
HETATM   29  C   UNL     1      42.944 -18.075   2.350  1.00  0.00     0.048 C 
HETATM   30  C   UNL     1      41.656 -16.467   3.792  1.00  0.00     0.007 C 
HETATM   31  C   UNL     1      40.909 -15.297   3.946  1.00  0.00     0.011 C 
ENDBRANCH   6  24
BRANCH   9  32
HETATM   32  C   UNL     1      38.703 -11.528   1.735  1.00  0.00     0.293 C 
HETATM   33  O   UNL     1      37.996 -10.830   2.443  1.00  0.00    -0.259 OA
BRANCH  32  34
HETATM   34  O   UNL     1      38.372 -12.139   0.584  1.00  0.00    -0.323 OA
HETATM   35  C   UNL     1      37.779 -11.317  -0.433  1.00  0.00     0.213 C 
ENDBRANCH  32  34
ENDBRANCH   9  32
BRANCH   1  36
HETATM   36  C   UNL     1      41.223 -10.181   0.839  1.00  0.00     0.056 C 
HETATM   37  C   UNL     1      41.451 -10.739  -0.558  1.00  0.00     0.011 C 
ENDBRANCH   1  36
TORSDOF 9
ENDMDL
MODEL 9
REMARK VINA RESULT:      -7.2      5.064      9.431
REMARK  9 active torsions:
REMARK  status: ('A' for Active; 'I' for Inactive)
REMARK    1  A    between atoms: C_2  and  C_3 
REMARK    2  A    between atoms: C_7  and  C_8 
REMARK    3  A    between atoms: C_8  and  C_9 
REMARK       I    between atoms: C_9  and  N_10 
REMARK    4  A    between atoms: N_10  and  C_11 
REMARK    5  A    between atoms: C_11  and  C_12 
REMARK    6  A    between atoms: C_12  and  N_13 
REMARK    7  A    between atoms: C_21  and  C_22 
REMARK    8  A    between atoms: C_32  and  C_33 
REMARK    9  A    between atoms: C_33  and  O_34 
ROOT
HETATM    1  C   UNL     1      40.755 -12.273  -1.165  1.00  0.00     0.051 C 
HETATM    2  N   UNL     1      41.394 -11.345  -0.344  1.00  0.00    -0.228 NA
HETATM    3  C   UNL     1      40.834 -11.124   0.799  1.00  0.00     0.170 C 
HETATM    4  N   UNL     1      39.606 -11.934   1.287  1.00  0.00    -0.318 N 
HETATM    5  C   UNL     1      38.738 -11.109   1.764  1.00  0.00     0.011 C 
HETATM    6  C   UNL     1      39.670 -13.336   0.801  1.00  0.00     0.166 C 
HETATM    7  S   UNL     1      41.071  -9.714   1.768  1.00  0.00    -0.086 SA
HETATM    8  C   UNL     1      39.331  -9.832   2.339  1.00  0.00     0.135 C 
HETATM    9  C   UNL     1      39.919 -13.217  -0.668  1.00  0.00     0.069 C 
ENDROOT
BRANCH   5  10
HETATM   10  C   UNL     1      37.277 -11.256   1.418  1.00  0.00     0.156 C 
BRANCH  10  11
HETATM   11  C   UNL     1      36.940 -10.228   0.341  1.00  0.00     0.223 C 
HETATM   12  N   UNL     1      37.521 -10.362  -0.886  1.00  0.00    -0.359 N 
HETATM   13  H   UNL     1      38.228 -11.081  -1.023  1.00  0.00     0.162 HD
HETATM   14  O   UNL     1      36.169  -9.300   0.584  1.00  0.00    -0.273 OA
BRANCH  12  15
HETATM   15  C   UNL     1      37.501  -9.281  -1.888  1.00  0.00     0.150 C 
BRANCH  15  16
HETATM   16  C   UNL     1      36.775  -9.603  -3.219  1.00  0.00     0.254 C 
BRANCH  16  17
HETATM   17  N   UNL     1      35.368 -10.138  -3.008  1.00  0.00    -0.070 N 
HETATM   18  H   UNL     1      35.435 -10.830  -2.240  1.00  0.00     0.279 HD
HETATM   19  C   UNL     1      34.387  -9.092  -2.525  1.00  0.00     0.235 C 
HETATM   20  C   UNL     1      33.080  -9.777  -2.140  1.00  0.00     0.028 C 
HETATM   21  C   UNL     1      32.504 -10.588  -3.295  1.00  0.00     0.003 C 
HETATM   22  C   UNL     1      33.532 -11.563  -3.856  1.00  0.00     0.028 C 
HETATM   23  C   UNL     1      34.836 -10.868  -4.220  1.00  0.00     0.235 C 
ENDBRANCH  16  17
ENDBRANCH  15  16
ENDBRANCH  12  15
ENDBRANCH  10  11
ENDBRANCH   5  10
BRANCH   6  24
HETATM   24  C   UNL     1      40.725 -14.064   1.670  1.00  0.00    -0.024 C 
HETATM   25  C   UNL     1      40.758 -14.142   3.084  1.00  0.00    -0.053 C 
HETATM   26  C   UNL     1      39.936 -13.317   4.041  1.00  0.00     0.049 C 
HETATM   27  C   UNL     1      41.618 -15.078   3.703  1.00  0.00     0.014 C 
HETATM   28  C   UNL     1      42.483 -15.896   2.974  1.00  0.00    -0.061 C 
HETATM   29  C   UNL     1      43.357 -16.896   3.673  1.00  0.00     0.048 C 
HETATM   30  C   UNL     1      42.562 -15.714   1.600  1.00  0.00     0.007 C 
HETATM   31  C   UNL     1      41.711 -14.808   0.963  1.00  0.00     0.011 C 
ENDBRANCH   6  24
BRANCH   9  32
HETATM   32  C   UNL     1      38.964 -13.944  -1.527  1.00  0.00     0.293 C 
HETATM   33  O   UNL     1      39.266 -14.987  -2.083  1.00  0.00    -0.259 OA
BRANCH  32  34
HETATM   34  O   UNL     1      37.860 -13.199  -1.711  1.00  0.00    -0.323 OA
HETATM   35  C   UNL     1      37.127 -13.425  -2.925  1.00  0.00     0.213 C 
ENDBRANCH  32  34
ENDBRANCH   9  32
BRANCH   1  36
HETATM   36  C   UNL     1      41.043 -12.100  -2.644  1.00  0.00     0.056 C 
HETATM   37  C   UNL     1      40.476 -10.796  -3.186  1.00  0.00     0.011 C 
ENDBRANCH   1  36
TORSDOF 9
ENDMDL
MODEL 10
REMARK VINA RESULT:      -7.2      5.041      8.156
REMARK  9 active torsions:
REMARK  status: ('A' for Active; 'I' for Inactive)
REMARK    1  A    between atoms: C_2  and  C_3 
REMARK    2  A    between atoms: C_7  and  C_8 
REMARK    3  A    between atoms: C_8  and  C_9 
REMARK       I    between atoms: C_9  and  N_10 
REMARK    4  A    between atoms: N_10  and  C_11 
REMARK    5  A    between atoms: C_11  and  C_12 
REMARK    6  A    between atoms: C_12  and  N_13 
REMARK    7  A    between atoms: C_21  and  C_22 
REMARK    8  A    between atoms: C_32  and  C_33 
REMARK    9  A    between atoms: C_33  and  O_34 
ROOT
HETATM    1  C   UNL     1      40.843 -12.501  -1.137  1.00  0.00     0.051 C 
HETATM    2  N   UNL     1      41.569 -11.623  -0.333  1.00  0.00    -0.228 NA
HETATM    3  C   UNL     1      41.067 -11.383   0.833  1.00  0.00     0.170 C 
HETATM    4  N   UNL     1      39.811 -12.122   1.360  1.00  0.00    -0.318 N 
HETATM    5  C   UNL     1      39.014 -11.252   1.879  1.00  0.00     0.011 C 
HETATM    6  C   UNL     1      39.771 -13.519   0.859  1.00  0.00     0.166 C 
HETATM    7  S   UNL     1      41.426 -10.001   1.806  1.00  0.00    -0.086 SA
HETATM    8  C   UNL     1      39.705 -10.020   2.443  1.00  0.00     0.135 C 
HETATM    9  C   UNL     1      39.970 -13.398  -0.617  1.00  0.00     0.069 C 
ENDROOT
BRANCH   5  10
HETATM   10  C   UNL     1      37.535 -11.307   1.589  1.00  0.00     0.156 C 
BRANCH  10  11
HETATM   11  C   UNL     1      37.208 -10.201   0.588  1.00  0.00     0.223 C 
HETATM   12  N   UNL     1      37.883 -10.181  -0.597  1.00  0.00    -0.359 N 
HETATM   13  H   UNL     1      38.645 -10.840  -0.745  1.00  0.00     0.162 HD
HETATM   14  O   UNL     1      36.361  -9.349   0.854  1.00  0.00    -0.273 OA
BRANCH  12  15
HETATM   15  C   UNL     1      37.863  -9.011  -1.494  1.00  0.00     0.150 C 
BRANCH  15  16
HETATM   16  C   UNL     1      38.853  -7.870  -1.146  1.00  0.00     0.254 C 
BRANCH  16  17
HETATM   17  N   UNL     1      40.179  -7.998  -1.879  1.00  0.00    -0.070 N 
HETATM   18  H   UNL     1      40.243  -8.985  -2.187  1.00  0.00     0.279 HD
HETATM   19  C   UNL     1      40.254  -7.172  -3.145  1.00  0.00     0.235 C 
HETATM   20  C   UNL     1      41.523  -7.543  -3.904  1.00  0.00     0.028 C 
HETATM   21  C   UNL     1      42.770  -7.360  -3.047  1.00  0.00     0.003 C 
HETATM   22  C   UNL     1      42.646  -8.100  -1.720  1.00  0.00     0.028 C 
HETATM   23  C   UNL     1      41.366  -7.733  -0.982  1.00  0.00     0.235 C 
ENDBRANCH  16  17
ENDBRANCH  15  16
ENDBRANCH  12  15
ENDBRANCH  10  11
ENDBRANCH   5  10
BRANCH   6  24
HETATM   24  C   UNL     1      40.813 -14.321   1.679  1.00  0.00    -0.024 C 
HETATM   25  C   UNL     1      40.855 -14.473   3.087  1.00  0.00    -0.053 C 
HETATM   26  C   UNL     1      40.064 -13.676   4.093  1.00  0.00     0.049 C 
HETATM   27  C   UNL     1      41.693 -15.463   3.649  1.00  0.00     0.014 C 
HETATM   28  C   UNL     1      42.528 -16.265   2.871  1.00  0.00    -0.061 C 
HETATM   29  C   UNL     1      43.380 -17.324   3.508  1.00  0.00     0.048 C 
HETATM   30  C   UNL     1      42.602 -16.015   1.507  1.00  0.00     0.007 C 
HETATM   31  C   UNL     1      41.772 -15.054   0.926  1.00  0.00     0.011 C 
ENDBRANCH   6  24
BRANCH   9  32
HETATM   32  C   UNL     1      38.941 -14.056  -1.446  1.00  0.00     0.293 C 
HETATM   33  O   UNL     1      39.133 -15.143  -1.964  1.00  0.00    -0.259 OA
BRANCH  32  34
HETATM   34  O   UNL     1      37.916 -13.210  -1.654  1.00  0.00    -0.323 OA
HETATM   35  C   UNL     1      37.192 -13.368  -2.883  1.00  0.00     0.213 C 
ENDBRANCH  32  34
ENDBRANCH   9  32
BRANCH   1  36
HETATM   36  C   UNL     1      41.084 -12.327  -2.625  1.00  0.00     0.056 C 
HETATM   37  C   UNL     1      40.467 -11.042  -3.156  1.00  0.00     0.011 C 
ENDBRANCH   1  36
TORSDOF 9
ENDMDL
