MODEL 1
REMARK VINA RESULT:      -8.9      0.000      0.000
REMARK  9 active torsions:
REMARK  status: ('A' for Active; 'I' for Inactive)
REMARK       I    between atoms: C_2  and  N_3 
REMARK    1  A    between atoms: N_3  and  C_4 
REMARK    2  A    between atoms: C_4  and  C_5 
REMARK    3  A    between atoms: C_5  and  N_6 
REMARK       I    between atoms: N_6  and  C_7 
REMARK    4  A    between atoms: C_7  and  C_8 
REMARK    5  A    between atoms: C_8  and  C_9 
REMARK    6  A    between atoms: C_13  and  C_14 
REMARK    7  A    between atoms: C_14  and  O_15 
REMARK    8  A    between atoms: C_17  and  O_18 
REMARK    9  A    between atoms: C_25  and  C_26 
ROOT
HETATM    1  C   UNL     1      41.771 -12.131   3.802  1.00  0.00     0.056 C 
HETATM    2  C   UNL     1      40.487 -11.205   3.602  1.00  0.00    -0.030 C 
HETATM    3  C   UNL     1      39.572 -11.301   4.869  1.00  0.00     0.016 C 
HETATM    4  C   UNL     1      39.592 -11.634   2.361  1.00  0.00     0.012 C 
HETATM    5  C   UNL     1      40.027 -11.127   0.920  1.00  0.00     0.008 C 
HETATM    6  C   UNL     1      38.713 -10.961   0.091  1.00  0.00     0.020 C 
HETATM    7  C   UNL     1      40.686  -9.712   0.991  1.00  0.00     0.128 C 
HETATM    8  C   UNL     1      40.355  -8.976   2.285  1.00  0.00     0.033 C 
HETATM    9  C   UNL     1      40.936  -9.715   3.488  1.00  0.00     0.013 C 
HETATM   10  C   UNL     1      39.176 -13.128   2.423  1.00  0.00     0.054 C 
HETATM   11  C   UNL     1      40.304 -13.989   2.855  1.00  0.00     0.010 A 
HETATM   12  C   UNL     1      41.448 -13.580   3.505  1.00  0.00     0.054 A 
HETATM   13  N   UNL     1      42.340 -14.604   3.796  1.00  0.00    -0.244 NA
HETATM   14  C   UNL     1      41.914 -15.745   3.273  1.00  0.00     0.108 A 
HETATM   15  S   UNL     1      40.332 -15.665   2.585  1.00  0.00    -0.072 SA
ENDROOT
BRANCH   1  16
HETATM   16  C   UNL     1      42.408 -11.938   5.192  1.00  0.00     0.114 C 
BRANCH  16  17
HETATM   17  C   UNL     1      43.893 -11.629   5.173  1.00  0.00     0.218 C 
HETATM   18  N   UNL     1      44.488 -11.698   6.404  1.00  0.00    -0.359 N 
HETATM   19  H   UNL     1      44.061 -12.346   7.069  1.00  0.00     0.162 HD
HETATM   20  O   UNL     1      44.471 -11.261   4.154  1.00  0.00    -0.274 OA
BRANCH  18  21
HETATM   21  C   UNL     1      45.830 -11.227   6.659  1.00  0.00     0.142 C 
BRANCH  21  22
HETATM   22  C   UNL     1      46.020 -10.616   8.048  1.00  0.00     0.142 C 
BRANCH  22  23
HETATM   23  N   UNL     1      44.789 -10.024   8.553  1.00  0.00    -0.360 N 
HETATM   24  C   UNL     1      44.635  -8.662   8.664  1.00  0.00     0.213 C 
HETATM   25  C   UNL     1      43.344  -8.228   9.304  1.00  0.00     0.117 C 
HETATM   26  O   UNL     1      45.475  -7.849   8.291  1.00  0.00    -0.274 OA
HETATM   27  H   UNL     1      44.107 -10.642   8.972  1.00  0.00     0.162 HD
ENDBRANCH  22  23
ENDBRANCH  21  22
ENDBRANCH  18  21
ENDBRANCH  16  17
ENDBRANCH   1  16
BRANCH   5  28
HETATM   28  C   UNL     1      40.898 -12.117   0.103  1.00  0.00     0.176 C 
BRANCH  28  29
HETATM   29  O   UNL     1      41.286 -11.609  -1.158  1.00  0.00    -0.400 OA
HETATM   30  H   UNL     1      41.336 -10.635  -1.038  1.00  0.00     0.209 HD
ENDBRANCH  28  29
ENDBRANCH   5  28
BRANCH  14  31
HETATM   31  C   UNL     1      42.675 -17.008   3.274  1.00  0.00    -0.000 A 
HETATM   32  C   UNL     1      42.504 -17.923   2.224  1.00  0.00     0.014 A 
HETATM   33  C   UNL     1      43.175 -19.149   2.217  1.00  0.00     0.001 A 
HETATM   34  C   UNL     1      44.035 -19.481   3.260  1.00  0.00     0.000 A 
HETATM   35  C   UNL     1      44.221 -18.590   4.312  1.00  0.00     0.001 A 
HETATM   36  C   UNL     1      43.543 -17.366   4.321  1.00  0.00     0.014 A 
ENDBRANCH  14  31
BRANCH   7  37
HETATM   37  O   UNL     1      42.112  -9.792   0.870  1.00  0.00    -0.395 OA
HETATM   38  H   UNL     1      42.352 -10.738   0.875  1.00  0.00     0.210 HD
ENDBRANCH   7  37
TORSDOF 9
ENDMDL
MODEL 2
REMARK VINA RESULT:      -7.8      1.198      1.470
REMARK  9 active torsions:
REMARK  status: ('A' for Active; 'I' for Inactive)
REMARK       I    between atoms: C_2  and  N_3 
REMARK    1  A    between atoms: N_3  and  C_4 
REMARK    2  A    between atoms: C_4  and  C_5 
REMARK    3  A    between atoms: C_5  and  N_6 
REMARK       I    between atoms: N_6  and  C_7 
REMARK    4  A    between atoms: C_7  and  C_8 
REMARK    5  A    between atoms: C_8  and  C_9 
REMARK    6  A    between atoms: C_13  and  C_14 
REMARK    7  A    between atoms: C_14  and  O_15 
REMARK    8  A    between atoms: C_17  and  O_18 
REMARK    9  A    between atoms: C_25  and  C_26 
ROOT
HETATM    1  C   UNL     1      41.283 -11.807   3.196  1.00  0.00     0.056 C 
HETATM    2  C   UNL     1      40.053 -10.953   2.644  1.00  0.00    -0.030 C 
HETATM    3  C   UNL     1      38.867 -11.029   3.663  1.00  0.00     0.016 C 
HETATM    4  C   UNL     1      39.494 -11.484   1.255  1.00  0.00     0.012 C 
HETATM    5  C   UNL     1      40.243 -11.029  -0.070  1.00  0.00     0.008 C 
HETATM    6  C   UNL     1      39.160 -10.966  -1.194  1.00  0.00     0.020 C 
HETATM    7  C   UNL     1      40.819  -9.584   0.070  1.00  0.00     0.128 C 
HETATM    8  C   UNL     1      40.165  -8.801   1.204  1.00  0.00     0.033 C 
HETATM    9  C   UNL     1      40.467  -9.451   2.552  1.00  0.00     0.013 C 
HETATM   10  C   UNL     1      39.126 -12.991   1.306  1.00  0.00     0.054 C 
HETATM   11  C   UNL     1      40.146 -13.776   2.041  1.00  0.00     0.010 A 
HETATM   12  C   UNL     1      41.088 -13.283   2.917  1.00  0.00     0.054 A 
HETATM   13  N   UNL     1      41.919 -14.249   3.471  1.00  0.00    -0.244 NA
HETATM   14  C   UNL     1      41.668 -15.433   2.931  1.00  0.00     0.108 A 
HETATM   15  S   UNL     1      40.293 -15.460   1.885  1.00  0.00    -0.072 SA
ENDROOT
BRANCH   1  16
HETATM   16  C   UNL     1      41.564 -11.517   4.683  1.00  0.00     0.114 C 
BRANCH  16  17
HETATM   17  C   UNL     1      43.015 -11.216   5.009  1.00  0.00     0.218 C 
HETATM   18  N   UNL     1      43.259 -11.054   6.346  1.00  0.00    -0.359 N 
HETATM   19  H   UNL     1      42.639 -11.565   6.977  1.00  0.00     0.162 HD
HETATM   20  O   UNL     1      43.860 -11.046   4.134  1.00  0.00    -0.274 OA
BRANCH  18  21
HETATM   21  C   UNL     1      44.508 -10.543   6.863  1.00  0.00     0.142 C 
BRANCH  21  22
HETATM   22  C   UNL     1      44.903 -11.126   8.221  1.00  0.00     0.142 C 
BRANCH  22  23
HETATM   23  N   UNL     1      43.884 -10.883   9.233  1.00  0.00    -0.360 N 
HETATM   24  C   UNL     1      44.155 -10.160  10.371  1.00  0.00     0.213 C 
HETATM   25  C   UNL     1      43.021 -10.097  11.358  1.00  0.00     0.117 C 
HETATM   26  O   UNL     1      45.232  -9.614  10.590  1.00  0.00    -0.274 OA
HETATM   27  H   UNL     1      43.015 -11.394   9.158  1.00  0.00     0.162 HD
ENDBRANCH  22  23
ENDBRANCH  21  22
ENDBRANCH  18  21
ENDBRANCH  16  17
ENDBRANCH   1  16
BRANCH   5  28
HETATM   28  C   UNL     1      41.316 -12.017  -0.599  1.00  0.00     0.176 C 
BRANCH  28  29
HETATM   29  O   UNL     1      41.657 -11.798  -1.953  1.00  0.00    -0.400 OA
HETATM   30  H   UNL     1      40.915 -11.271  -2.323  1.00  0.00     0.209 HD
ENDBRANCH  28  29
ENDBRANCH   5  28
BRANCH  14  31
HETATM   31  C   UNL     1      42.448 -16.658   3.185  1.00  0.00    -0.000 A 
HETATM   32  C   UNL     1      43.148 -16.798   4.394  1.00  0.00     0.014 A 
HETATM   33  C   UNL     1      43.933 -17.926   4.648  1.00  0.00     0.001 A 
HETATM   34  C   UNL     1      44.029 -18.939   3.698  1.00  0.00     0.000 A 
HETATM   35  C   UNL     1      43.344 -18.823   2.493  1.00  0.00     0.001 A 
HETATM   36  C   UNL     1      42.564 -17.690   2.237  1.00  0.00     0.014 A 
ENDBRANCH  14  31
BRANCH   7  37
HETATM   37  O   UNL     1      42.234  -9.604   0.294  1.00  0.00    -0.395 OA
HETATM   38  H   UNL     1      42.604  -8.794  -0.105  1.00  0.00     0.210 HD
ENDBRANCH   7  37
TORSDOF 9
ENDMDL
MODEL 3
REMARK VINA RESULT:      -7.7      3.190      7.733
REMARK  9 active torsions:
REMARK  status: ('A' for Active; 'I' for Inactive)
REMARK       I    between atoms: C_2  and  N_3 
REMARK    1  A    between atoms: N_3  and  C_4 
REMARK    2  A    between atoms: C_4  and  C_5 
REMARK    3  A    between atoms: C_5  and  N_6 
REMARK       I    between atoms: N_6  and  C_7 
REMARK    4  A    between atoms: C_7  and  C_8 
REMARK    5  A    between atoms: C_8  and  C_9 
REMARK    6  A    between atoms: C_13  and  C_14 
REMARK    7  A    between atoms: C_14  and  O_15 
REMARK    8  A    between atoms: C_17  and  O_18 
REMARK    9  A    between atoms: C_25  and  C_26 
ROOT
HETATM    1  C   UNL     1      42.493 -11.927   5.888  1.00  0.00     0.056 C 
HETATM    2  C   UNL     1      42.193 -11.731   4.332  1.00  0.00    -0.030 C 
HETATM    3  C   UNL     1      43.502 -11.283   3.601  1.00  0.00     0.016 C 
HETATM    4  C   UNL     1      41.102 -10.614   4.040  1.00  0.00     0.012 C 
HETATM    5  C   UNL     1      39.571 -11.021   4.156  1.00  0.00     0.008 C 
HETATM    6  C   UNL     1      38.796 -10.138   3.126  1.00  0.00     0.020 C 
HETATM    7  C   UNL     1      39.343 -12.505   3.725  1.00  0.00     0.128 C 
HETATM    8  C   UNL     1      40.494 -13.054   2.889  1.00  0.00     0.033 C 
HETATM    9  C   UNL     1      41.781 -13.102   3.709  1.00  0.00     0.013 C 
HETATM   10  C   UNL     1      41.462  -9.254   4.695  1.00  0.00     0.054 C 
HETATM   11  C   UNL     1      41.985  -9.435   6.071  1.00  0.00     0.010 A 
HETATM   12  C   UNL     1      42.486 -10.597   6.613  1.00  0.00     0.054 A 
HETATM   13  N   UNL     1      42.915 -10.479   7.929  1.00  0.00    -0.244 NA
HETATM   14  C   UNL     1      42.636  -9.270   8.395  1.00  0.00     0.108 A 
HETATM   15  S   UNL     1      42.029  -8.173   7.207  1.00  0.00    -0.072 SA
ENDROOT
BRANCH   1  16
HETATM   16  C   UNL     1      43.787 -12.727   6.128  1.00  0.00     0.114 C 
BRANCH  16  17
HETATM   17  C   UNL     1      43.582 -14.092   6.758  1.00  0.00     0.218 C 
HETATM   18  N   UNL     1      43.598 -15.124   5.859  1.00  0.00    -0.359 N 
HETATM   19  H   UNL     1      44.163 -14.976   5.020  1.00  0.00     0.162 HD
HETATM   20  O   UNL     1      43.333 -14.230   7.953  1.00  0.00    -0.274 OA
BRANCH  18  21
HETATM   21  C   UNL     1      43.202 -16.472   6.199  1.00  0.00     0.142 C 
BRANCH  21  22
HETATM   22  C   UNL     1      43.286 -17.457   5.031  1.00  0.00     0.142 C 
BRANCH  22  23
HETATM   23  N   UNL     1      43.631 -16.789   3.784  1.00  0.00    -0.360 N 
HETATM   24  C   UNL     1      42.702 -16.589   2.790  1.00  0.00     0.213 C 
HETATM   25  C   UNL     1      43.255 -15.983   1.528  1.00  0.00     0.117 C 
HETATM   26  O   UNL     1      41.516 -16.886   2.897  1.00  0.00    -0.274 OA
HETATM   27  H   UNL     1      44.611 -16.620   3.596  1.00  0.00     0.162 HD
ENDBRANCH  22  23
ENDBRANCH  21  22
ENDBRANCH  18  21
ENDBRANCH  16  17
ENDBRANCH   1  16
BRANCH   5  28
HETATM   28  C   UNL     1      38.907 -10.720   5.525  1.00  0.00     0.176 C 
BRANCH  28  29
HETATM   29  O   UNL     1      37.804  -9.841   5.429  1.00  0.00    -0.400 OA
HETATM   30  H   UNL     1      37.381 -10.052   4.568  1.00  0.00     0.209 HD
ENDBRANCH  28  29
ENDBRANCH   5  28
BRANCH  14  31
HETATM   31  C   UNL     1      42.831  -8.839   9.792  1.00  0.00    -0.000 A 
HETATM   32  C   UNL     1      43.173  -9.786  10.770  1.00  0.00     0.014 A 
HETATM   33  C   UNL     1      43.320  -9.418  12.110  1.00  0.00     0.001 A 
HETATM   34  C   UNL     1      43.132  -8.095  12.497  1.00  0.00     0.000 A 
HETATM   35  C   UNL     1      42.793  -7.138  11.545  1.00  0.00     0.001 A 
HETATM   36  C   UNL     1      42.639  -7.509  10.205  1.00  0.00     0.014 A 
ENDBRANCH  14  31
BRANCH   7  37
HETATM   37  O   UNL     1      39.163 -13.358   4.862  1.00  0.00    -0.395 OA
HETATM   38  H   UNL     1      38.235 -13.658   4.859  1.00  0.00     0.210 HD
ENDBRANCH   7  37
TORSDOF 9
ENDMDL
MODEL 4
REMARK VINA RESULT:      -7.6      3.176      6.089
REMARK  9 active torsions:
REMARK  status: ('A' for Active; 'I' for Inactive)
REMARK       I    between atoms: C_2  and  N_3 
REMARK    1  A    between atoms: N_3  and  C_4 
REMARK    2  A    between atoms: C_4  and  C_5 
REMARK    3  A    between atoms: C_5  and  N_6 
REMARK       I    between atoms: N_6  and  C_7 
REMARK    4  A    between atoms: C_7  and  C_8 
REMARK    5  A    between atoms: C_8  and  C_9 
REMARK    6  A    between atoms: C_13  and  C_14 
REMARK    7  A    between atoms: C_14  and  O_15 
REMARK    8  A    between atoms: C_17  and  O_18 
REMARK    9  A    between atoms: C_25  and  C_26 
ROOT
HETATM    1  C   UNL     1      40.824 -13.758   4.899  1.00  0.00     0.056 C 
HETATM    2  C   UNL     1      40.547 -15.265   4.452  1.00  0.00    -0.030 C 
HETATM    3  C   UNL     1      39.916 -16.056   5.647  1.00  0.00     0.016 C 
HETATM    4  C   UNL     1      41.866 -16.048   4.034  1.00  0.00     0.012 C 
HETATM    5  C   UNL     1      42.416 -15.843   2.558  1.00  0.00     0.008 C 
HETATM    6  C   UNL     1      43.110 -17.182   2.152  1.00  0.00     0.020 C 
HETATM    7  C   UNL     1      41.249 -15.625   1.542  1.00  0.00     0.128 C 
HETATM    8  C   UNL     1      39.905 -16.101   2.084  1.00  0.00     0.033 C 
HETATM    9  C   UNL     1      39.493 -15.278   3.302  1.00  0.00     0.013 C 
HETATM   10  C   UNL     1      42.952 -16.004   5.142  1.00  0.00     0.054 C 
HETATM   11  C   UNL     1      43.053 -14.656   5.751  1.00  0.00     0.010 A 
HETATM   12  C   UNL     1      42.109 -13.655   5.695  1.00  0.00     0.054 A 
HETATM   13  N   UNL     1      42.465 -12.490   6.363  1.00  0.00    -0.244 NA
HETATM   14  C   UNL     1      43.706 -12.585   6.819  1.00  0.00     0.108 A 
HETATM   15  S   UNL     1      44.414 -14.150   6.633  1.00  0.00    -0.072 SA
ENDROOT
BRANCH   1  16
HETATM   16  C   UNL     1      39.618 -13.146   5.637  1.00  0.00     0.114 C 
BRANCH  16  17
HETATM   17  C   UNL     1      39.653 -11.635   5.768  1.00  0.00     0.218 C 
HETATM   18  N   UNL     1      39.908 -11.196   7.039  1.00  0.00    -0.359 N 
HETATM   19  H   UNL     1      40.470 -11.820   7.622  1.00  0.00     0.162 HD
HETATM   20  O   UNL     1      39.384 -10.891   4.829  1.00  0.00    -0.274 OA
BRANCH  18  21
HETATM   21  C   UNL     1      39.766  -9.815   7.440  1.00  0.00     0.142 C 
BRANCH  21  22
HETATM   22  C   UNL     1      39.139  -9.631   8.823  1.00  0.00     0.142 C 
BRANCH  22  23
HETATM   23  N   UNL     1      40.051 -10.026   9.888  1.00  0.00    -0.360 N 
HETATM   24  C   UNL     1      40.889  -9.120  10.493  1.00  0.00     0.213 C 
HETATM   25  C   UNL     1      41.839  -9.718  11.496  1.00  0.00     0.117 C 
HETATM   26  O   UNL     1      40.890  -7.919  10.241  1.00  0.00    -0.274 OA
HETATM   27  H   UNL     1      40.170 -11.015  10.063  1.00  0.00     0.162 HD
ENDBRANCH  22  23
ENDBRANCH  21  22
ENDBRANCH  18  21
ENDBRANCH  16  17
ENDBRANCH   1  16
BRANCH   5  28
HETATM   28  C   UNL     1      43.512 -14.756   2.403  1.00  0.00     0.176 C 
BRANCH  28  29
HETATM   29  O   UNL     1      44.145 -14.779   1.139  1.00  0.00    -0.400 OA
HETATM   30  H   UNL     1      43.549 -14.271   0.545  1.00  0.00     0.209 HD
ENDBRANCH  28  29
ENDBRANCH   5  28
BRANCH  14  31
HETATM   31  C   UNL     1      44.454 -11.489   7.460  1.00  0.00    -0.000 A 
HETATM   32  C   UNL     1      45.728 -11.144   6.982  1.00  0.00     0.014 A 
HETATM   33  C   UNL     1      46.482 -10.140   7.595  1.00  0.00     0.001 A 
HETATM   34  C   UNL     1      45.974  -9.458   8.698  1.00  0.00     0.000 A 
HETATM   35  C   UNL     1      44.714  -9.782   9.189  1.00  0.00     0.001 A 
HETATM   36  C   UNL     1      43.963 -10.792   8.578  1.00  0.00     0.014 A 
ENDBRANCH  14  31
BRANCH   7  37
HETATM   37  O   UNL     1      41.125 -14.245   1.176  1.00  0.00    -0.395 OA
HETATM   38  H   UNL     1      41.900 -13.776   1.539  1.00  0.00     0.210 HD
ENDBRANCH   7  37
TORSDOF 9
ENDMDL
MODEL 5
REMARK VINA RESULT:      -7.5      2.754      5.890
REMARK  9 active torsions:
REMARK  status: ('A' for Active; 'I' for Inactive)
REMARK       I    between atoms: C_2  and  N_3 
REMARK    1  A    between atoms: N_3  and  C_4 
REMARK    2  A    between atoms: C_4  and  C_5 
REMARK    3  A    between atoms: C_5  and  N_6 
REMARK       I    between atoms: N_6  and  C_7 
REMARK    4  A    between atoms: C_7  and  C_8 
REMARK    5  A    between atoms: C_8  and  C_9 
REMARK    6  A    between atoms: C_13  and  C_14 
REMARK    7  A    between atoms: C_14  and  O_15 
REMARK    8  A    between atoms: C_17  and  O_18 
REMARK    9  A    between atoms: C_25  and  C_26 
ROOT
HETATM    1  C   UNL     1      41.410 -12.006   3.715  1.00  0.00     0.056 C 
HETATM    2  C   UNL     1      42.734 -12.668   4.311  1.00  0.00    -0.030 C 
HETATM    3  C   UNL     1      43.990 -11.936   3.730  1.00  0.00     0.016 C 
HETATM    4  C   UNL     1      42.890 -14.205   3.939  1.00  0.00     0.012 C 
HETATM    5  C   UNL     1      42.110 -15.267   4.826  1.00  0.00     0.008 C 
HETATM    6  C   UNL     1      42.976 -16.568   4.827  1.00  0.00     0.020 C 
HETATM    7  C   UNL     1      42.011 -14.802   6.314  1.00  0.00     0.128 C 
HETATM    8  C   UNL     1      43.034 -13.724   6.659  1.00  0.00     0.033 C 
HETATM    9  C   UNL     1      42.769 -12.453   5.857  1.00  0.00     0.013 C 
HETATM   10  C   UNL     1      42.805 -14.451   2.409  1.00  0.00     0.054 C 
HETATM   11  C   UNL     1      41.727 -13.645   1.787  1.00  0.00     0.010 A 
HETATM   12  C   UNL     1      41.118 -12.532   2.325  1.00  0.00     0.054 A 
HETATM   13  N   UNL     1      40.139 -11.968   1.518  1.00  0.00    -0.244 NA
HETATM   14  C   UNL     1      39.945 -12.715   0.441  1.00  0.00     0.108 A 
HETATM   15  S   UNL     1      41.071 -14.013   0.264  1.00  0.00    -0.072 SA
ENDROOT
BRANCH   1  16
HETATM   16  C   UNL     1      41.461 -10.468   3.768  1.00  0.00     0.114 C 
BRANCH  16  17
HETATM   17  C   UNL     1      40.861  -9.855   5.019  1.00  0.00     0.218 C 
HETATM   18  N   UNL     1      41.756  -9.141   5.769  1.00  0.00    -0.359 N 
HETATM   19  H   UNL     1      42.529  -8.715   5.254  1.00  0.00     0.162 HD
HETATM   20  O   UNL     1      39.700 -10.067   5.360  1.00  0.00    -0.274 OA
BRANCH  18  21
HETATM   21  C   UNL     1      41.466  -8.665   7.103  1.00  0.00     0.142 C 
BRANCH  21  22
HETATM   22  C   UNL     1      42.325  -9.309   8.193  1.00  0.00     0.142 C 
BRANCH  22  23
HETATM   23  N   UNL     1      43.743  -9.041   7.993  1.00  0.00    -0.360 N 
HETATM   24  C   UNL     1      44.705  -9.965   8.326  1.00  0.00     0.213 C 
HETATM   25  C   UNL     1      46.121  -9.483   8.155  1.00  0.00     0.117 C 
HETATM   26  O   UNL     1      44.454 -11.091   8.743  1.00  0.00    -0.274 OA
HETATM   27  H   UNL     1      44.014  -8.097   7.754  1.00  0.00     0.162 HD
ENDBRANCH  22  23
ENDBRANCH  21  22
ENDBRANCH  18  21
ENDBRANCH  16  17
ENDBRANCH   1  16
BRANCH   5  28
HETATM   28  C   UNL     1      40.727 -15.703   4.276  1.00  0.00     0.176 C 
BRANCH  28  29
HETATM   29  O   UNL     1      39.984 -16.485   5.190  1.00  0.00    -0.400 OA
HETATM   30  H   UNL     1      40.499 -17.316   5.295  1.00  0.00     0.209 HD
ENDBRANCH  28  29
ENDBRANCH   5  28
BRANCH  14  31
HETATM   31  C   UNL     1      38.891 -12.487  -0.564  1.00  0.00    -0.000 A 
HETATM   32  C   UNL     1      38.669 -13.444  -1.567  1.00  0.00     0.014 A 
HETATM   33  C   UNL     1      37.708 -13.238  -2.561  1.00  0.00     0.001 A 
HETATM   34  C   UNL     1      36.947 -12.073  -2.568  1.00  0.00     0.000 A 
HETATM   35  C   UNL     1      37.149 -11.111  -1.584  1.00  0.00     0.001 A 
HETATM   36  C   UNL     1      38.116 -11.315  -0.593  1.00  0.00     0.014 A 
ENDBRANCH  14  31
BRANCH   7  37
HETATM   37  O   UNL     1      40.704 -14.299   6.619  1.00  0.00    -0.395 OA
HETATM   38  H   UNL     1      40.803 -13.358   6.858  1.00  0.00     0.210 HD
ENDBRANCH   7  37
TORSDOF 9
ENDMDL
MODEL 6
REMARK VINA RESULT:      -7.4      2.651      7.452
REMARK  9 active torsions:
REMARK  status: ('A' for Active; 'I' for Inactive)
REMARK       I    between atoms: C_2  and  N_3 
REMARK    1  A    between atoms: N_3  and  C_4 
REMARK    2  A    between atoms: C_4  and  C_5 
REMARK    3  A    between atoms: C_5  and  N_6 
REMARK       I    between atoms: N_6  and  C_7 
REMARK    4  A    between atoms: C_7  and  C_8 
REMARK    5  A    between atoms: C_8  and  C_9 
REMARK    6  A    between atoms: C_13  and  C_14 
REMARK    7  A    between atoms: C_14  and  O_15 
REMARK    8  A    between atoms: C_17  and  O_18 
REMARK    9  A    between atoms: C_25  and  C_26 
ROOT
HETATM    1  C   UNL     1      40.856 -13.508   4.347  1.00  0.00     0.056 C 
HETATM    2  C   UNL     1      40.611 -15.031   3.936  1.00  0.00    -0.030 C 
HETATM    3  C   UNL     1      39.854 -15.768   5.092  1.00  0.00     0.016 C 
HETATM    4  C   UNL     1      41.957 -15.837   3.687  1.00  0.00     0.012 C 
HETATM    5  C   UNL     1      42.656 -15.697   2.267  1.00  0.00     0.008 C 
HETATM    6  C   UNL     1      43.375 -17.056   1.989  1.00  0.00     0.020 C 
HETATM    7  C   UNL     1      41.600 -15.515   1.130  1.00  0.00     0.128 C 
HETATM    8  C   UNL     1      40.204 -15.961   1.552  1.00  0.00     0.033 C 
HETATM    9  C   UNL     1      39.678 -15.085   2.686  1.00  0.00     0.013 C 
HETATM   10  C   UNL     1      42.926 -15.754   4.897  1.00  0.00     0.054 C 
HETATM   11  C   UNL     1      42.978 -14.382   5.458  1.00  0.00     0.010 A 
HETATM   12  C   UNL     1      42.054 -13.379   5.264  1.00  0.00     0.054 A 
HETATM   13  N   UNL     1      42.352 -12.190   5.917  1.00  0.00    -0.244 NA
HETATM   14  C   UNL     1      43.539 -12.272   6.500  1.00  0.00     0.108 A 
HETATM   15  S   UNL     1      44.247 -13.847   6.451  1.00  0.00    -0.072 SA
ENDROOT
BRANCH   1  16
HETATM   16  C   UNL     1      39.588 -12.859   4.933  1.00  0.00     0.114 C 
BRANCH  16  17
HETATM   17  C   UNL     1      39.059 -11.673   4.148  1.00  0.00     0.218 C 
HETATM   18  N   UNL     1      38.481 -12.014   2.955  1.00  0.00    -0.359 N 
HETATM   19  H   UNL     1      38.059 -12.944   2.913  1.00  0.00     0.162 HD
HETATM   20  O   UNL     1      39.227 -10.515   4.520  1.00  0.00    -0.274 OA
BRANCH  18  21
HETATM   21  C   UNL     1      38.117 -11.042   1.949  1.00  0.00     0.142 C 
BRANCH  21  22
HETATM   22  C   UNL     1      39.150 -10.890   0.830  1.00  0.00     0.142 C 
BRANCH  22  23
HETATM   23  N   UNL     1      39.332 -12.130   0.089  1.00  0.00    -0.360 N 
HETATM   24  C   UNL     1      38.561 -12.435  -1.008  1.00  0.00     0.213 C 
HETATM   25  C   UNL     1      38.809 -13.801  -1.588  1.00  0.00     0.117 C 
HETATM   26  O   UNL     1      37.722 -11.676  -1.484  1.00  0.00    -0.274 OA
HETATM   27  H   UNL     1      39.931 -12.837   0.494  1.00  0.00     0.162 HD
ENDBRANCH  22  23
ENDBRANCH  21  22
ENDBRANCH  18  21
ENDBRANCH  16  17
ENDBRANCH   1  16
BRANCH   5  28
HETATM   28  C   UNL     1      43.772 -14.624   2.180  1.00  0.00     0.176 C 
BRANCH  28  29
HETATM   29  O   UNL     1      43.285 -13.302   2.297  1.00  0.00    -0.400 OA
HETATM   30  H   UNL     1      44.017 -12.795   2.714  1.00  0.00     0.209 HD
ENDBRANCH  28  29
ENDBRANCH   5  28
BRANCH  14  31
HETATM   31  C   UNL     1      44.230 -11.154   7.169  1.00  0.00    -0.000 A 
HETATM   32  C   UNL     1      45.630 -11.075   7.123  1.00  0.00     0.014 A 
HETATM   33  C   UNL     1      46.318 -10.053   7.784  1.00  0.00     0.001 A 
HETATM   34  C   UNL     1      45.616  -9.088   8.501  1.00  0.00     0.000 A 
HETATM   35  C   UNL     1      44.227  -9.146   8.560  1.00  0.00     0.001 A 
HETATM   36  C   UNL     1      43.541 -10.173   7.904  1.00  0.00     0.014 A 
ENDBRANCH  14  31
BRANCH   7  37
HETATM   37  O   UNL     1      41.527 -14.151   0.697  1.00  0.00    -0.395 OA
HETATM   38  H   UNL     1      42.278 -13.996   0.093  1.00  0.00     0.210 HD
ENDBRANCH   7  37
TORSDOF 9
ENDMDL
MODEL 7
REMARK VINA RESULT:      -7.3      3.418      7.470
REMARK  9 active torsions:
REMARK  status: ('A' for Active; 'I' for Inactive)
REMARK       I    between atoms: C_2  and  N_3 
REMARK    1  A    between atoms: N_3  and  C_4 
REMARK    2  A    between atoms: C_4  and  C_5 
REMARK    3  A    between atoms: C_5  and  N_6 
REMARK       I    between atoms: N_6  and  C_7 
REMARK    4  A    between atoms: C_7  and  C_8 
REMARK    5  A    between atoms: C_8  and  C_9 
REMARK    6  A    between atoms: C_13  and  C_14 
REMARK    7  A    between atoms: C_14  and  O_15 
REMARK    8  A    between atoms: C_17  and  O_18 
REMARK    9  A    between atoms: C_25  and  C_26 
ROOT
HETATM    1  C   UNL     1      41.527 -12.525   4.799  1.00  0.00     0.056 C 
HETATM    2  C   UNL     1      42.102 -12.648   3.315  1.00  0.00    -0.030 C 
HETATM    3  C   UNL     1      43.605 -12.208   3.299  1.00  0.00     0.016 C 
HETATM    4  C   UNL     1      41.345 -11.721   2.270  1.00  0.00     0.012 C 
HETATM    5  C   UNL     1      39.983 -12.254   1.652  1.00  0.00     0.008 C 
HETATM    6  C   UNL     1      39.884 -11.659   0.211  1.00  0.00     0.020 C 
HETATM    7  C   UNL     1      40.004 -13.808   1.487  1.00  0.00     0.128 C 
HETATM    8  C   UNL     1      41.418 -14.379   1.511  1.00  0.00     0.033 C 
HETATM    9  C   UNL     1      42.071 -14.144   2.871  1.00  0.00     0.013 C 
HETATM   10  C   UNL     1      41.316 -10.234   2.716  1.00  0.00     0.054 C 
HETATM   11  C   UNL     1      41.026 -10.107   4.164  1.00  0.00     0.010 A 
HETATM   12  C   UNL     1      41.150 -11.093   5.117  1.00  0.00     0.054 A 
HETATM   13  N   UNL     1      40.814 -10.693   6.405  1.00  0.00    -0.244 NA
HETATM   14  C   UNL     1      40.342  -9.455   6.392  1.00  0.00     0.108 A 
HETATM   15  S   UNL     1      40.472  -8.661   4.863  1.00  0.00    -0.072 SA
ENDROOT
BRANCH   1  16
HETATM   16  C   UNL     1      42.487 -13.131   5.840  1.00  0.00     0.114 C 
BRANCH  16  17
HETATM   17  C   UNL     1      42.021 -14.440   6.448  1.00  0.00     0.218 C 
HETATM   18  N   UNL     1      43.042 -15.285   6.791  1.00  0.00    -0.359 N 
HETATM   19  H   UNL     1      43.926 -14.837   7.040  1.00  0.00     0.162 HD
HETATM   20  O   UNL     1      40.832 -14.736   6.531  1.00  0.00    -0.274 OA
BRANCH  18  21
HETATM   21  C   UNL     1      42.831 -16.663   7.172  1.00  0.00     0.142 C 
BRANCH  21  22
HETATM   22  C   UNL     1      43.495 -17.675   6.237  1.00  0.00     0.142 C 
BRANCH  22  23
HETATM   23  N   UNL     1      43.172 -17.416   4.841  1.00  0.00    -0.360 N 
HETATM   24  C   UNL     1      43.686 -18.188   3.825  1.00  0.00     0.213 C 
HETATM   25  C   UNL     1      43.336 -17.714   2.440  1.00  0.00     0.117 C 
HETATM   26  O   UNL     1      44.386 -19.178   4.010  1.00  0.00    -0.274 OA
HETATM   27  H   UNL     1      42.690 -16.554   4.621  1.00  0.00     0.162 HD
ENDBRANCH  22  23
ENDBRANCH  21  22
ENDBRANCH  18  21
ENDBRANCH  16  17
ENDBRANCH   1  16
BRANCH   5  28
HETATM   28  C   UNL     1      38.695 -11.779   2.375  1.00  0.00     0.176 C 
BRANCH  28  29
HETATM   29  O   UNL     1      37.515 -12.039   1.640  1.00  0.00    -0.400 OA
HETATM   30  H   UNL     1      37.137 -11.154   1.443  1.00  0.00     0.209 HD
ENDBRANCH  28  29
ENDBRANCH   5  28
BRANCH  14  31
HETATM   31  C   UNL     1      39.769  -8.759   7.558  1.00  0.00    -0.000 A 
HETATM   32  C   UNL     1      39.655  -9.434   8.784  1.00  0.00     0.014 A 
HETATM   33  C   UNL     1      39.075  -8.819   9.896  1.00  0.00     0.001 A 
HETATM   34  C   UNL     1      38.601  -7.513   9.805  1.00  0.00     0.000 A 
HETATM   35  C   UNL     1      38.703  -6.824   8.601  1.00  0.00     0.001 A 
HETATM   36  C   UNL     1      39.277  -7.444   7.486  1.00  0.00     0.014 A 
ENDBRANCH  14  31
BRANCH   7  37
HETATM   37  O   UNL     1      39.239 -14.454   2.512  1.00  0.00    -0.395 OA
HETATM   38  H   UNL     1      38.729 -13.762   2.975  1.00  0.00     0.210 HD
ENDBRANCH   7  37
TORSDOF 9
ENDMDL
MODEL 8
REMARK VINA RESULT:      -7.3      3.377      6.636
REMARK  9 active torsions:
REMARK  status: ('A' for Active; 'I' for Inactive)
REMARK       I    between atoms: C_2  and  N_3 
REMARK    1  A    between atoms: N_3  and  C_4 
REMARK    2  A    between atoms: C_4  and  C_5 
REMARK    3  A    between atoms: C_5  and  N_6 
REMARK       I    between atoms: N_6  and  C_7 
REMARK    4  A    between atoms: C_7  and  C_8 
REMARK    5  A    between atoms: C_8  and  C_9 
REMARK    6  A    between atoms: C_13  and  C_14 
REMARK    7  A    between atoms: C_14  and  O_15 
REMARK    8  A    between atoms: C_17  and  O_18 
REMARK    9  A    between atoms: C_25  and  C_26 
ROOT
HETATM    1  C   UNL     1      40.948 -12.837   4.112  1.00  0.00     0.056 C 
HETATM    2  C   UNL     1      42.364 -13.525   4.373  1.00  0.00    -0.030 C 
HETATM    3  C   UNL     1      43.487 -12.434   4.343  1.00  0.00     0.016 C 
HETATM    4  C   UNL     1      42.749 -14.605   3.273  1.00  0.00     0.012 C 
HETATM    5  C   UNL     1      42.151 -16.068   3.427  1.00  0.00     0.008 C 
HETATM    6  C   UNL     1      43.205 -17.046   2.817  1.00  0.00     0.020 C 
HETATM    7  C   UNL     1      41.997 -16.465   4.931  1.00  0.00     0.128 C 
HETATM    8  C   UNL     1      42.847 -15.597   5.853  1.00  0.00     0.033 C 
HETATM    9  C   UNL     1      42.382 -14.144   5.806  1.00  0.00     0.013 C 
HETATM   10  C   UNL     1      42.686 -14.027   1.834  1.00  0.00     0.054 C 
HETATM   11  C   UNL     1      41.491 -13.170   1.644  1.00  0.00     0.010 A 
HETATM   12  C   UNL     1      40.725 -12.595   2.634  1.00  0.00     0.054 A 
HETATM   13  N   UNL     1      39.662 -11.833   2.168  1.00  0.00    -0.244 NA
HETATM   14  C   UNL     1      39.574 -11.928   0.849  1.00  0.00     0.108 A 
HETATM   15  S   UNL     1      40.883 -12.776   0.108  1.00  0.00    -0.072 SA
ENDROOT
BRANCH   1  16
HETATM   16  C   UNL     1      40.764 -11.561   4.956  1.00  0.00     0.114 C 
BRANCH  16  17
HETATM   17  C   UNL     1      39.696 -11.657   6.029  1.00  0.00     0.218 C 
HETATM   18  N   UNL     1      39.657 -10.576   6.868  1.00  0.00    -0.359 N 
HETATM   19  H   UNL     1      39.967  -9.689   6.467  1.00  0.00     0.162 HD
HETATM   20  O   UNL     1      39.002 -12.660   6.173  1.00  0.00    -0.274 OA
BRANCH  18  21
HETATM   21  C   UNL     1      38.882 -10.553   8.088  1.00  0.00     0.142 C 
BRANCH  21  22
HETATM   22  C   UNL     1      39.505  -9.712   9.204  1.00  0.00     0.142 C 
BRANCH  22  23
HETATM   23  N   UNL     1      39.164 -10.225  10.524  1.00  0.00    -0.360 N 
HETATM   24  C   UNL     1      39.942  -9.956  11.625  1.00  0.00     0.213 C 
HETATM   25  C   UNL     1      39.504 -10.653  12.886  1.00  0.00     0.117 C 
HETATM   26  O   UNL     1      40.925  -9.223  11.603  1.00  0.00    -0.274 OA
HETATM   27  H   UNL     1      38.430 -10.918  10.584  1.00  0.00     0.162 HD
ENDBRANCH  22  23
ENDBRANCH  21  22
ENDBRANCH  18  21
ENDBRANCH  16  17
ENDBRANCH   1  16
BRANCH   5  28
HETATM   28  C   UNL     1      40.844 -16.337   2.635  1.00  0.00     0.176 C 
BRANCH  28  29
HETATM   29  O   UNL     1      39.713 -15.699   3.193  1.00  0.00    -0.400 OA
HETATM   30  H   UNL     1      39.588 -14.884   2.658  1.00  0.00     0.209 HD
ENDBRANCH  28  29
ENDBRANCH   5  28
BRANCH  14  31
HETATM   31  C   UNL     1      38.486 -11.356   0.034  1.00  0.00    -0.000 A 
HETATM   32  C   UNL     1      37.675 -10.343   0.569  1.00  0.00     0.014 A 
HETATM   33  C   UNL     1      36.608  -9.811  -0.160  1.00  0.00     0.001 A 
HETATM   34  C   UNL     1      36.334 -10.281  -1.441  1.00  0.00     0.000 A 
HETATM   35  C   UNL     1      37.124 -11.285  -1.993  1.00  0.00     0.001 A 
HETATM   36  C   UNL     1      38.187 -11.820  -1.259  1.00  0.00     0.014 A 
ENDBRANCH  14  31
BRANCH   7  37
HETATM   37  O   UNL     1      40.633 -16.377   5.358  1.00  0.00    -0.395 OA
HETATM   38  H   UNL     1      40.316 -17.287   5.511  1.00  0.00     0.210 HD
ENDBRANCH   7  37
TORSDOF 9
ENDMDL
MODEL 9
REMARK VINA RESULT:      -7.2      2.969      6.976
REMARK  9 active torsions:
REMARK  status: ('A' for Active; 'I' for Inactive)
REMARK       I    between atoms: C_2  and  N_3 
REMARK    1  A    between atoms: N_3  and  C_4 
REMARK    2  A    between atoms: C_4  and  C_5 
REMARK    3  A    between atoms: C_5  and  N_6 
REMARK       I    between atoms: N_6  and  C_7 
REMARK    4  A    between atoms: C_7  and  C_8 
REMARK    5  A    between atoms: C_8  and  C_9 
REMARK    6  A    between atoms: C_13  and  C_14 
REMARK    7  A    between atoms: C_14  and  O_15 
REMARK    8  A    between atoms: C_17  and  O_18 
REMARK    9  A    between atoms: C_25  and  C_26 
ROOT
HETATM    1  C   UNL     1      41.422 -14.053   4.033  1.00  0.00     0.056 C 
HETATM    2  C   UNL     1      41.258 -13.463   5.507  1.00  0.00    -0.030 C 
HETATM    3  C   UNL     1      40.070 -14.184   6.229  1.00  0.00     0.016 C 
HETATM    4  C   UNL     1      40.927 -11.909   5.528  1.00  0.00     0.012 C 
HETATM    5  C   UNL     1      42.137 -10.889   5.389  1.00  0.00     0.008 C 
HETATM    6  C   UNL     1      41.737  -9.612   6.195  1.00  0.00     0.020 C 
HETATM    7  C   UNL     1      43.432 -11.448   6.061  1.00  0.00     0.128 C 
HETATM    8  C   UNL     1      43.138 -12.570   7.052  1.00  0.00     0.033 C 
HETATM    9  C   UNL     1      42.541 -13.779   6.337  1.00  0.00     0.013 C 
HETATM   10  C   UNL     1      39.684 -11.560   4.665  1.00  0.00     0.054 C 
HETATM   11  C   UNL     1      39.690 -12.299   3.379  1.00  0.00     0.010 A 
HETATM   12  C   UNL     1      40.419 -13.430   3.085  1.00  0.00     0.054 A 
HETATM   13  N   UNL     1      40.226 -13.918   1.798  1.00  0.00    -0.244 NA
HETATM   14  C   UNL     1      39.447 -13.097   1.109  1.00  0.00     0.108 A 
HETATM   15  S   UNL     1      38.760 -11.817   2.043  1.00  0.00    -0.072 SA
ENDROOT
BRANCH   1  16
HETATM   16  C   UNL     1      41.373 -15.592   4.021  1.00  0.00     0.114 C 
BRANCH  16  17
HETATM   17  C   UNL     1      42.721 -16.270   3.861  1.00  0.00     0.218 C 
HETATM   18  N   UNL     1      43.034 -17.125   4.883  1.00  0.00    -0.359 N 
HETATM   19  H   UNL     1      42.242 -17.563   5.357  1.00  0.00     0.162 HD
HETATM   20  O   UNL     1      43.486 -15.994   2.942  1.00  0.00    -0.274 OA
BRANCH  18  21
HETATM   21  C   UNL     1      44.349 -17.700   5.055  1.00  0.00     0.142 C 
BRANCH  21  22
HETATM   22  C   UNL     1      44.354 -19.228   5.126  1.00  0.00     0.142 C 
BRANCH  22  23
HETATM   23  N   UNL     1      43.542 -19.822   4.073  1.00  0.00    -0.360 N 
HETATM   24  C   UNL     1      43.859 -19.670   2.744  1.00  0.00     0.213 C 
HETATM   25  C   UNL     1      42.854 -20.256   1.789  1.00  0.00     0.117 C 
HETATM   26  O   UNL     1      44.867 -19.094   2.345  1.00  0.00    -0.274 OA
HETATM   27  H   UNL     1      42.647 -20.214   4.334  1.00  0.00     0.162 HD
ENDBRANCH  22  23
ENDBRANCH  21  22
ENDBRANCH  18  21
ENDBRANCH  16  17
ENDBRANCH   1  16
BRANCH   5  28
HETATM   28  C   UNL     1      42.418 -10.386   3.949  1.00  0.00     0.176 C 
BRANCH  28  29
HETATM   29  O   UNL     1      41.866  -9.111   3.686  1.00  0.00    -0.400 OA
HETATM   30  H   UNL     1      42.493  -8.684   3.062  1.00  0.00     0.209 HD
ENDBRANCH  28  29
ENDBRANCH   5  28
BRANCH  14  31
HETATM   31  C   UNL     1      39.141 -13.234  -0.327  1.00  0.00    -0.000 A 
HETATM   32  C   UNL     1      39.727 -14.271  -1.067  1.00  0.00     0.014 A 
HETATM   33  C   UNL     1      39.494 -14.402  -2.439  1.00  0.00     0.001 A 
HETATM   34  C   UNL     1      38.663 -13.497  -3.096  1.00  0.00     0.000 A 
HETATM   35  C   UNL     1      38.070 -12.461  -2.383  1.00  0.00     0.001 A 
HETATM   36  C   UNL     1      38.311 -12.328  -1.011  1.00  0.00     0.014 A 
ENDBRANCH  14  31
BRANCH   7  37
HETATM   37  O   UNL     1      44.357 -11.940   5.084  1.00  0.00    -0.395 OA
HETATM   38  H   UNL     1      45.254 -11.707   5.389  1.00  0.00     0.210 HD
ENDBRANCH   7  37
TORSDOF 9
ENDMDL
MODEL 10
REMARK VINA RESULT:      -7.2     17.804     20.461
REMARK  9 active torsions:
REMARK  status: ('A' for Active; 'I' for Inactive)
REMARK       I    between atoms: C_2  and  N_3 
REMARK    1  A    between atoms: N_3  and  C_4 
REMARK    2  A    between atoms: C_4  and  C_5 
REMARK    3  A    between atoms: C_5  and  N_6 
REMARK       I    between atoms: N_6  and  C_7 
REMARK    4  A    between atoms: C_7  and  C_8 
REMARK    5  A    between atoms: C_8  and  C_9 
REMARK    6  A    between atoms: C_13  and  C_14 
REMARK    7  A    between atoms: C_14  and  O_15 
REMARK    8  A    between atoms: C_17  and  O_18 
REMARK    9  A    between atoms: C_25  and  C_26 
ROOT
HETATM    1  C   UNL     1      48.197 -29.883  -0.434  1.00  0.00     0.056 C 
HETATM    2  C   UNL     1      47.015 -28.881  -0.818  1.00  0.00    -0.030 C 
HETATM    3  C   UNL     1      47.555 -27.412  -0.812  1.00  0.00     0.016 C 
HETATM    4  C   UNL     1      45.799 -28.924   0.205  1.00  0.00     0.012 C 
HETATM    5  C   UNL     1      44.716 -30.071   0.025  1.00  0.00     0.008 C 
HETATM    6  C   UNL     1      43.357 -29.481   0.519  1.00  0.00     0.020 C 
HETATM    7  C   UNL     1      44.518 -30.435  -1.482  1.00  0.00     0.128 C 
HETATM    8  C   UNL     1      45.030 -29.345  -2.418  1.00  0.00     0.033 C 
HETATM    9  C   UNL     1      46.540 -29.176  -2.275  1.00  0.00     0.013 C 
HETATM   10  C   UNL     1      46.254 -28.686   1.670  1.00  0.00     0.054 C 
HETATM   11  C   UNL     1      47.506 -29.421   1.977  1.00  0.00     0.010 A 
HETATM   12  C   UNL     1      48.406 -29.927   1.066  1.00  0.00     0.054 A 
HETATM   13  N   UNL     1      49.500 -30.567   1.635  1.00  0.00    -0.244 NA
HETATM   14  C   UNL     1      49.359 -30.632   2.951  1.00  0.00     0.108 A 
HETATM   15  S   UNL     1      48.006 -29.751   3.565  1.00  0.00    -0.072 SA
ENDROOT
BRANCH   1  16
HETATM   16  C   UNL     1      49.492 -29.567  -1.205  1.00  0.00     0.114 C 
BRANCH  16  17
HETATM   17  C   UNL     1      50.019 -30.707  -2.056  1.00  0.00     0.218 C 
HETATM   18  N   UNL     1      49.234 -31.828  -2.026  1.00  0.00    -0.359 N 
HETATM   19  H   UNL     1      48.238 -31.670  -1.859  1.00  0.00     0.162 HD
HETATM   20  O   UNL     1      51.099 -30.645  -2.637  1.00  0.00    -0.274 OA
BRANCH  18  21
HETATM   21  C   UNL     1      49.651 -33.099  -2.574  1.00  0.00     0.142 C 
BRANCH  21  22
HETATM   22  C   UNL     1      50.473 -33.952  -1.606  1.00  0.00     0.142 C 
BRANCH  22  23
HETATM   23  N   UNL     1      51.904 -33.753  -1.789  1.00  0.00    -0.360 N 
HETATM   24  C   UNL     1      52.650 -33.010  -0.904  1.00  0.00     0.213 C 
HETATM   25  C   UNL     1      54.088 -32.818  -1.304  1.00  0.00     0.117 C 
HETATM   26  O   UNL     1      52.196 -32.522   0.126  1.00  0.00    -0.274 OA
HETATM   27  H   UNL     1      52.310 -34.039  -2.670  1.00  0.00     0.162 HD
ENDBRANCH  22  23
ENDBRANCH  21  22
ENDBRANCH  18  21
ENDBRANCH  16  17
ENDBRANCH   1  16
BRANCH   5  28
HETATM   28  C   UNL     1      44.944 -31.340   0.888  1.00  0.00     0.176 C 
BRANCH  28  29
HETATM   29  O   UNL     1      43.896 -32.282   0.781  1.00  0.00    -0.400 OA
HETATM   30  H   UNL     1      44.329 -33.117   0.497  1.00  0.00     0.209 HD
ENDBRANCH  28  29
ENDBRANCH   5  28
BRANCH  14  31
HETATM   31  C   UNL     1      50.264 -31.358   3.860  1.00  0.00    -0.000 A 
HETATM   32  C   UNL     1      50.889 -30.673   4.913  1.00  0.00     0.014 A 
HETATM   33  C   UNL     1      51.787 -31.321   5.766  1.00  0.00     0.001 A 
HETATM   34  C   UNL     1      52.074 -32.671   5.583  1.00  0.00     0.000 A 
HETATM   35  C   UNL     1      51.467 -33.372   4.546  1.00  0.00     0.001 A 
HETATM   36  C   UNL     1      50.573 -32.719   3.689  1.00  0.00     0.014 A 
ENDBRANCH  14  31
BRANCH   7  37
HETATM   37  O   UNL     1      45.178 -31.662  -1.815  1.00  0.00    -0.395 OA
HETATM   38  H   UNL     1      45.776 -31.478  -2.563  1.00  0.00     0.210 HD
ENDBRANCH   7  37
TORSDOF 9
ENDMDL
