MODEL 1
REMARK VINA RESULT:      -8.1      0.000      0.000
REMARK  4 active torsions:
REMARK  status: ('A' for Active; 'I' for Inactive)
REMARK    1  A    between atoms: C_6  and  N_7 
REMARK       I    between atoms: N_7  and  C_8 
REMARK    2  A    between atoms: C_8  and  C_9 
REMARK    3  A    between atoms: C_9  and  S_10 
REMARK    4  A    between atoms: S_10  and  C_11 
ROOT
HETATM    1  C   UNL     1      43.639 -20.627   2.275  1.00  0.00     0.001 A 
HETATM    2  C   UNL     1      43.419 -19.276   2.024  1.00  0.00     0.018 A 
HETATM    3  C   UNL     1      43.502 -18.342   3.071  1.00  0.00     0.049 A 
HETATM    4  C   UNL     1      43.793 -18.752   4.371  1.00  0.00     0.024 A 
HETATM    5  S   UNL     1      43.889 -17.675   5.777  1.00  0.00    -0.053 SA
HETATM    6  C   UNL     1      43.683 -16.125   5.041  1.00  0.00     0.154 A 
HETATM    7  N   UNL     1      43.432 -15.956   3.768  1.00  0.00    -0.303 N 
HETATM    8  H   UNL     1      43.305 -14.994   3.453  1.00  0.00     0.171 HD
HETATM    9  C   UNL     1      43.290 -16.926   2.759  1.00  0.00     0.259 A 
HETATM   10  O   UNL     1      43.009 -16.507   1.652  1.00  0.00    -0.267 OA
HETATM   11  C   UNL     1      44.016 -20.118   4.605  1.00  0.00     0.020 A 
HETATM   12  C   UNL     1      43.941 -21.049   3.566  1.00  0.00     0.001 A 
ENDROOT
BRANCH   6  13
HETATM   13  N   UNL     1      43.797 -15.116   5.875  1.00  0.00    -0.306 N 
HETATM   14  C   UNL     1      43.008 -13.934   5.910  1.00  0.00     0.233 C 
HETATM   15  O   UNL     1      42.112 -13.854   5.079  1.00  0.00    -0.272 OA
HETATM   16  H   UNL     1      44.492 -15.239   6.605  1.00  0.00     0.171 HD
BRANCH  14  17
HETATM   17  C   UNL     1      43.314 -12.873   6.945  1.00  0.00     0.184 C 
BRANCH  17  18
HETATM   18  S   UNL     1      44.761 -11.844   6.525  1.00  0.00    -0.101 SA
BRANCH  18  19
HETATM   19  C   UNL     1      44.844 -10.831   7.987  1.00  0.00     0.093 A 
HETATM   20  N   UNL     1      44.011 -11.183   8.996  1.00  0.00    -0.254 NA
HETATM   21  C   UNL     1      44.063 -10.421  10.116  1.00  0.00     0.118 A 
HETATM   22  C   UNL     1      44.936  -9.359  10.288  1.00  0.00     0.019 A 
HETATM   23  C   UNL     1      45.807  -9.051   9.250  1.00  0.00     0.004 A 
HETATM   24  C   UNL     1      45.765  -9.799   8.077  1.00  0.00     0.039 A 
ENDBRANCH  18  19
ENDBRANCH  17  18
ENDBRANCH  14  17
ENDBRANCH   6  13
TORSDOF 4
ENDMDL
MODEL 2
REMARK VINA RESULT:      -7.9      2.015      2.648
REMARK  4 active torsions:
REMARK  status: ('A' for Active; 'I' for Inactive)
REMARK    1  A    between atoms: C_6  and  N_7 
REMARK       I    between atoms: N_7  and  C_8 
REMARK    2  A    between atoms: C_8  and  C_9 
REMARK    3  A    between atoms: C_9  and  S_10 
REMARK    4  A    between atoms: S_10  and  C_11 
ROOT
HETATM    1  C   UNL     1      43.927 -20.890   4.214  1.00  0.00     0.001 A 
HETATM    2  C   UNL     1      43.895 -19.876   5.166  1.00  0.00     0.018 A 
HETATM    3  C   UNL     1      43.670 -18.546   4.772  1.00  0.00     0.049 A 
HETATM    4  C   UNL     1      43.488 -18.221   3.429  1.00  0.00     0.024 A 
HETATM    5  S   UNL     1      43.233 -16.579   2.807  1.00  0.00    -0.053 SA
HETATM    6  C   UNL     1      43.140 -15.666   4.270  1.00  0.00     0.154 A 
HETATM    7  N   UNL     1      43.327 -16.181   5.459  1.00  0.00    -0.303 N 
HETATM    8  H   UNL     1      43.272 -15.536   6.247  1.00  0.00     0.171 HD
HETATM    9  C   UNL     1      43.617 -17.512   5.809  1.00  0.00     0.259 A 
HETATM   10  O   UNL     1      43.792 -17.725   6.994  1.00  0.00    -0.267 OA
HETATM   11  C   UNL     1      43.520 -19.257   2.482  1.00  0.00     0.020 A 
HETATM   12  C   UNL     1      43.736 -20.582   2.871  1.00  0.00     0.001 A 
ENDROOT
BRANCH   6  13
HETATM   13  N   UNL     1      42.866 -14.393   4.091  1.00  0.00    -0.306 N 
HETATM   14  C   UNL     1      41.786 -13.657   4.651  1.00  0.00     0.233 C 
HETATM   15  O   UNL     1      41.036 -14.275   5.396  1.00  0.00    -0.272 OA
HETATM   16  H   UNL     1      43.546 -13.882   3.537  1.00  0.00     0.171 HD
BRANCH  14  17
HETATM   17  C   UNL     1      41.633 -12.192   4.304  1.00  0.00     0.184 C 
BRANCH  17  18
HETATM   18  S   UNL     1      43.209 -11.376   3.883  1.00  0.00    -0.101 SA
BRANCH  18  19
HETATM   19  C   UNL     1      43.872 -11.142   5.518  1.00  0.00     0.093 A 
HETATM   20  N   UNL     1      42.980 -10.773   6.469  1.00  0.00    -0.254 NA
HETATM   21  C   UNL     1      43.470 -10.590   7.719  1.00  0.00     0.118 A 
HETATM   22  C   UNL     1      44.793 -10.803   8.069  1.00  0.00     0.019 A 
HETATM   23  C   UNL     1      45.674 -11.223   7.080  1.00  0.00     0.004 A 
HETATM   24  C   UNL     1      45.210 -11.398   5.779  1.00  0.00     0.039 A 
ENDBRANCH  18  19
ENDBRANCH  17  18
ENDBRANCH  14  17
ENDBRANCH   6  13
TORSDOF 4
ENDMDL
MODEL 3
REMARK VINA RESULT:      -7.8      5.127      7.890
REMARK  4 active torsions:
REMARK  status: ('A' for Active; 'I' for Inactive)
REMARK    1  A    between atoms: C_6  and  N_7 
REMARK       I    between atoms: N_7  and  C_8 
REMARK    2  A    between atoms: C_8  and  C_9 
REMARK    3  A    between atoms: C_9  and  S_10 
REMARK    4  A    between atoms: S_10  and  C_11 
ROOT
HETATM    1  C   UNL     1      43.915 -18.426   4.533  1.00  0.00     0.001 A 
HETATM    2  C   UNL     1      43.034 -17.545   5.155  1.00  0.00     0.018 A 
HETATM    3  C   UNL     1      42.202 -16.717   4.382  1.00  0.00     0.049 A 
HETATM    4  C   UNL     1      42.252 -16.755   2.990  1.00  0.00     0.024 A 
HETATM    5  S   UNL     1      41.281 -15.736   1.911  1.00  0.00    -0.053 SA
HETATM    6  C   UNL     1      40.268 -14.905   3.038  1.00  0.00     0.154 A 
HETATM    7  N   UNL     1      40.376 -15.030   4.337  1.00  0.00    -0.303 N 
HETATM    8  H   UNL     1      39.738 -14.469   4.902  1.00  0.00     0.171 HD
HETATM    9  C   UNL     1      41.270 -15.824   5.077  1.00  0.00     0.259 A 
HETATM   10  O   UNL     1      41.195 -15.725   6.287  1.00  0.00    -0.267 OA
HETATM   11  C   UNL     1      43.143 -17.652   2.379  1.00  0.00     0.020 A 
HETATM   12  C   UNL     1      43.967 -18.482   3.144  1.00  0.00     0.001 A 
ENDROOT
BRANCH   6  13
HETATM   13  N   UNL     1      39.371 -14.124   2.479  1.00  0.00    -0.306 N 
HETATM   14  C   UNL     1      39.218 -12.722   2.659  1.00  0.00     0.233 C 
HETATM   15  O   UNL     1      40.021 -12.179   3.406  1.00  0.00    -0.272 OA
HETATM   16  H   UNL     1      38.768 -14.580   1.802  1.00  0.00     0.171 HD
BRANCH  14  17
HETATM   17  C   UNL     1      38.101 -12.003   1.933  1.00  0.00     0.184 C 
BRANCH  17  18
HETATM   18  S   UNL     1      38.666 -11.076   0.467  1.00  0.00    -0.101 SA
BRANCH  18  19
HETATM   19  C   UNL     1      38.645 -12.382  -0.742  1.00  0.00     0.093 A 
HETATM   20  N   UNL     1      39.590 -13.341  -0.590  1.00  0.00    -0.254 NA
HETATM   21  C   UNL     1      39.586 -14.343  -1.503  1.00  0.00     0.118 A 
HETATM   22  C   UNL     1      38.658 -14.452  -2.526  1.00  0.00     0.019 A 
HETATM   23  C   UNL     1      37.676 -13.475  -2.628  1.00  0.00     0.004 A 
HETATM   24  C   UNL     1      37.663 -12.419  -1.721  1.00  0.00     0.039 A 
ENDBRANCH  18  19
ENDBRANCH  17  18
ENDBRANCH  14  17
ENDBRANCH   6  13
TORSDOF 4
ENDMDL
MODEL 4
REMARK VINA RESULT:      -7.7      1.729      2.315
REMARK  4 active torsions:
REMARK  status: ('A' for Active; 'I' for Inactive)
REMARK    1  A    between atoms: C_6  and  N_7 
REMARK       I    between atoms: N_7  and  C_8 
REMARK    2  A    between atoms: C_8  and  C_9 
REMARK    3  A    between atoms: C_9  and  S_10 
REMARK    4  A    between atoms: S_10  and  C_11 
ROOT
HETATM    1  C   UNL     1      43.661 -18.459   2.606  1.00  0.00     0.001 A 
HETATM    2  C   UNL     1      43.168 -17.177   2.380  1.00  0.00     0.018 A 
HETATM    3  C   UNL     1      43.149 -16.235   3.423  1.00  0.00     0.049 A 
HETATM    4  C   UNL     1      43.611 -16.569   4.695  1.00  0.00     0.024 A 
HETATM    5  S   UNL     1      43.604 -15.481   6.095  1.00  0.00    -0.053 SA
HETATM    6  C   UNL     1      43.051 -14.006   5.385  1.00  0.00     0.154 A 
HETATM    7  N   UNL     1      42.677 -13.900   4.136  1.00  0.00    -0.303 N 
HETATM    8  H   UNL     1      42.345 -12.983   3.837  1.00  0.00     0.171 HD
HETATM    9  C   UNL     1      42.648 -14.888   3.135  1.00  0.00     0.259 A 
HETATM   10  O   UNL     1      42.209 -14.541   2.055  1.00  0.00    -0.267 OA
HETATM   11  C   UNL     1      44.107 -17.866   4.904  1.00  0.00     0.020 A 
HETATM   12  C   UNL     1      44.134 -18.803   3.869  1.00  0.00     0.001 A 
ENDROOT
BRANCH   6  13
HETATM   13  N   UNL     1      43.033 -12.986   6.214  1.00  0.00    -0.306 N 
HETATM   14  C   UNL     1      43.754 -11.766   6.094  1.00  0.00     0.233 C 
HETATM   15  O   UNL     1      44.458 -11.647   5.099  1.00  0.00    -0.272 OA
HETATM   16  H   UNL     1      42.381 -13.073   6.987  1.00  0.00     0.171 HD
BRANCH  14  17
HETATM   17  C   UNL     1      43.609 -10.715   7.173  1.00  0.00     0.184 C 
BRANCH  17  18
HETATM   18  S   UNL     1      45.095 -10.537   8.217  1.00  0.00    -0.101 SA
BRANCH  18  19
HETATM   19  C   UNL     1      44.327 -10.073   9.755  1.00  0.00     0.093 A 
HETATM   20  N   UNL     1      44.059 -11.089  10.610  1.00  0.00    -0.254 NA
HETATM   21  C   UNL     1      43.474 -10.751  11.785  1.00  0.00     0.118 A 
HETATM   22  C   UNL     1      43.191  -9.449  12.161  1.00  0.00     0.019 A 
HETATM   23  C   UNL     1      43.519  -8.426  11.279  1.00  0.00     0.004 A 
HETATM   24  C   UNL     1      44.099  -8.738  10.053  1.00  0.00     0.039 A 
ENDBRANCH  18  19
ENDBRANCH  17  18
ENDBRANCH  14  17
ENDBRANCH   6  13
TORSDOF 4
ENDMDL
MODEL 5
REMARK VINA RESULT:      -7.7      4.181      6.210
REMARK  4 active torsions:
REMARK  status: ('A' for Active; 'I' for Inactive)
REMARK    1  A    between atoms: C_6  and  N_7 
REMARK       I    between atoms: N_7  and  C_8 
REMARK    2  A    between atoms: C_8  and  C_9 
REMARK    3  A    between atoms: C_9  and  S_10 
REMARK    4  A    between atoms: S_10  and  C_11 
ROOT
HETATM    1  C   UNL     1      44.063 -20.680   4.018  1.00  0.00     0.001 A 
HETATM    2  C   UNL     1      44.154 -19.540   4.811  1.00  0.00     0.018 A 
HETATM    3  C   UNL     1      43.804 -18.285   4.284  1.00  0.00     0.049 A 
HETATM    4  C   UNL     1      43.375 -18.160   2.964  1.00  0.00     0.024 A 
HETATM    5  S   UNL     1      42.942 -16.630   2.178  1.00  0.00    -0.053 SA
HETATM    6  C   UNL     1      43.068 -15.517   3.493  1.00  0.00     0.154 A 
HETATM    7  N   UNL     1      43.483 -15.853   4.688  1.00  0.00    -0.303 N 
HETATM    8  H   UNL     1      43.539 -15.103   5.377  1.00  0.00     0.171 HD
HETATM    9  C   UNL     1      43.889 -17.114   5.161  1.00  0.00     0.259 A 
HETATM   10  O   UNL     1      44.279 -17.151   6.313  1.00  0.00    -0.267 OA
HETATM   11  C   UNL     1      43.286 -19.321   2.180  1.00  0.00     0.020 A 
HETATM   12  C   UNL     1      43.625 -20.572   2.702  1.00  0.00     0.001 A 
ENDROOT
BRANCH   6  13
HETATM   13  N   UNL     1      42.710 -14.289   3.192  1.00  0.00    -0.306 N 
HETATM   14  C   UNL     1      41.972 -13.384   4.003  1.00  0.00     0.233 C 
HETATM   15  O   UNL     1      41.646 -13.789   5.112  1.00  0.00    -0.272 OA
HETATM   16  H   UNL     1      43.060 -13.946   2.304  1.00  0.00     0.171 HD
BRANCH  14  17
HETATM   17  C   UNL     1      41.643 -12.009   3.462  1.00  0.00     0.184 C 
BRANCH  17  18
HETATM   18  S   UNL     1      39.920 -11.848   2.886  1.00  0.00    -0.101 SA
BRANCH  18  19
HETATM   19  C   UNL     1      40.041 -12.708   1.332  1.00  0.00     0.093 A 
HETATM   20  N   UNL     1      39.943 -14.058   1.395  1.00  0.00    -0.254 NA
HETATM   21  C   UNL     1      40.034 -14.726   0.220  1.00  0.00     0.118 A 
HETATM   22  C   UNL     1      40.171 -14.107  -1.012  1.00  0.00     0.019 A 
HETATM   23  C   UNL     1      40.224 -12.720  -1.047  1.00  0.00     0.004 A 
HETATM   24  C   UNL     1      40.157 -12.002   0.144  1.00  0.00     0.039 A 
ENDBRANCH  18  19
ENDBRANCH  17  18
ENDBRANCH  14  17
ENDBRANCH   6  13
TORSDOF 4
ENDMDL
MODEL 6
REMARK VINA RESULT:      -7.5      2.637      3.771
REMARK  4 active torsions:
REMARK  status: ('A' for Active; 'I' for Inactive)
REMARK    1  A    between atoms: C_6  and  N_7 
REMARK       I    between atoms: N_7  and  C_8 
REMARK    2  A    between atoms: C_8  and  C_9 
REMARK    3  A    between atoms: C_9  and  S_10 
REMARK    4  A    between atoms: S_10  and  C_11 
ROOT
HETATM    1  C   UNL     1      43.181 -17.203   2.275  1.00  0.00     0.001 A 
HETATM    2  C   UNL     1      43.245 -17.131   3.664  1.00  0.00     0.018 A 
HETATM    3  C   UNL     1      43.186 -15.883   4.308  1.00  0.00     0.049 A 
HETATM    4  C   UNL     1      43.075 -14.705   3.573  1.00  0.00     0.024 A 
HETATM    5  S   UNL     1      43.028 -13.075   4.269  1.00  0.00    -0.053 SA
HETATM    6  C   UNL     1      43.007 -13.421   5.962  1.00  0.00     0.154 A 
HETATM    7  N   UNL     1      43.105 -14.630   6.454  1.00  0.00    -0.303 N 
HETATM    8  H   UNL     1      43.106 -14.708   7.471  1.00  0.00     0.171 HD
HETATM    9  C   UNL     1      43.229 -15.854   5.773  1.00  0.00     0.259 A 
HETATM   10  O   UNL     1      43.350 -16.843   6.471  1.00  0.00    -0.267 OA
HETATM   11  C   UNL     1      43.009 -14.797   2.173  1.00  0.00     0.020 A 
HETATM   12  C   UNL     1      43.060 -16.035   1.529  1.00  0.00     0.001 A 
ENDROOT
BRANCH   6  13
HETATM   13  N   UNL     1      42.888 -12.359   6.725  1.00  0.00    -0.306 N 
HETATM   14  C   UNL     1      43.926 -11.668   7.409  1.00  0.00     0.233 C 
HETATM   15  O   UNL     1      45.060 -12.102   7.256  1.00  0.00    -0.272 OA
HETATM   16  H   UNL     1      41.952 -11.967   6.772  1.00  0.00     0.171 HD
BRANCH  14  17
HETATM   17  C   UNL     1      43.576 -10.466   8.260  1.00  0.00     0.184 C 
BRANCH  17  18
HETATM   18  S   UNL     1      44.918  -9.959   9.387  1.00  0.00    -0.101 SA
BRANCH  18  19
HETATM   19  C   UNL     1      43.973  -9.668  10.868  1.00  0.00     0.093 A 
HETATM   20  N   UNL     1      43.448 -10.769  11.458  1.00  0.00    -0.254 NA
HETATM   21  C   UNL     1      42.726 -10.564  12.586  1.00  0.00     0.118 A 
HETATM   22  C   UNL     1      42.546  -9.322  13.172  1.00  0.00     0.019 A 
HETATM   23  C   UNL     1      43.134  -8.219  12.566  1.00  0.00     0.004 A 
HETATM   24  C   UNL     1      43.863  -8.390  11.393  1.00  0.00     0.039 A 
ENDBRANCH  18  19
ENDBRANCH  17  18
ENDBRANCH  14  17
ENDBRANCH   6  13
TORSDOF 4
ENDMDL
MODEL 7
REMARK VINA RESULT:      -7.5      2.312      8.542
REMARK  4 active torsions:
REMARK  status: ('A' for Active; 'I' for Inactive)
REMARK    1  A    between atoms: C_6  and  N_7 
REMARK       I    between atoms: N_7  and  C_8 
REMARK    2  A    between atoms: C_8  and  C_9 
REMARK    3  A    between atoms: C_9  and  S_10 
REMARK    4  A    between atoms: S_10  and  C_11 
ROOT
HETATM    1  C   UNL     1      44.725  -8.472   8.730  1.00  0.00     0.001 A 
HETATM    2  C   UNL     1      43.509  -8.748   8.111  1.00  0.00     0.018 A 
HETATM    3  C   UNL     1      43.288 -10.005   7.521  1.00  0.00     0.049 A 
HETATM    4  C   UNL     1      44.279 -10.984   7.536  1.00  0.00     0.024 A 
HETATM    5  S   UNL     1      44.132 -12.589   6.795  1.00  0.00    -0.053 SA
HETATM    6  C   UNL     1      42.488 -12.574   6.262  1.00  0.00     0.154 A 
HETATM    7  N   UNL     1      41.704 -11.532   6.364  1.00  0.00    -0.303 N 
HETATM    8  H   UNL     1      40.760 -11.635   5.991  1.00  0.00     0.171 HD
HETATM    9  C   UNL     1      41.984 -10.264   6.905  1.00  0.00     0.259 A 
HETATM   10  O   UNL     1      41.087  -9.445   6.837  1.00  0.00    -0.267 OA
HETATM   11  C   UNL     1      45.498 -10.689   8.167  1.00  0.00     0.020 A 
HETATM   12  C   UNL     1      45.720  -9.444   8.761  1.00  0.00     0.001 A 
ENDROOT
BRANCH   6  13
HETATM   13  N   UNL     1      42.085 -13.709   5.736  1.00  0.00    -0.306 N 
HETATM   14  C   UNL     1      40.814 -14.327   5.892  1.00  0.00     0.233 C 
HETATM   15  O   UNL     1      39.999 -13.727   6.581  1.00  0.00    -0.272 OA
HETATM   16  H   UNL     1      42.747 -14.148   5.104  1.00  0.00     0.171 HD
BRANCH  14  17
HETATM   17  C   UNL     1      40.550 -15.654   5.213  1.00  0.00     0.184 C 
BRANCH  17  18
HETATM   18  S   UNL     1      41.155 -15.722   3.493  1.00  0.00    -0.101 SA
BRANCH  18  19
HETATM   19  C   UNL     1      42.501 -16.870   3.693  1.00  0.00     0.093 A 
HETATM   20  N   UNL     1      43.082 -16.890   4.917  1.00  0.00    -0.254 NA
HETATM   21  C   UNL     1      44.108 -17.760   5.084  1.00  0.00     0.118 A 
HETATM   22  C   UNL     1      44.546 -18.636   4.105  1.00  0.00     0.019 A 
HETATM   23  C   UNL     1      43.900 -18.621   2.875  1.00  0.00     0.004 A 
HETATM   24  C   UNL     1      42.857 -17.725   2.660  1.00  0.00     0.039 A 
ENDBRANCH  18  19
ENDBRANCH  17  18
ENDBRANCH  14  17
ENDBRANCH   6  13
TORSDOF 4
ENDMDL
MODEL 8
REMARK VINA RESULT:      -7.4      2.313      8.583
REMARK  4 active torsions:
REMARK  status: ('A' for Active; 'I' for Inactive)
REMARK    1  A    between atoms: C_6  and  N_7 
REMARK       I    between atoms: N_7  and  C_8 
REMARK    2  A    between atoms: C_8  and  C_9 
REMARK    3  A    between atoms: C_9  and  S_10 
REMARK    4  A    between atoms: S_10  and  C_11 
ROOT
HETATM    1  C   UNL     1      44.191  -8.801   9.830  1.00  0.00     0.001 A 
HETATM    2  C   UNL     1      43.164  -9.032   8.919  1.00  0.00     0.018 A 
HETATM    3  C   UNL     1      43.335  -9.973   7.888  1.00  0.00     0.049 A 
HETATM    4  C   UNL     1      44.530 -10.677   7.757  1.00  0.00     0.024 A 
HETATM    5  S   UNL     1      44.876 -11.859   6.480  1.00  0.00    -0.053 SA
HETATM    6  C   UNL     1      43.356 -11.941   5.663  1.00  0.00     0.154 A 
HETATM    7  N   UNL     1      42.330 -11.187   5.965  1.00  0.00    -0.303 N 
HETATM    8  H   UNL     1      41.493 -11.308   5.395  1.00  0.00     0.171 HD
HETATM    9  C   UNL     1      42.220 -10.205   6.967  1.00  0.00     0.259 A 
HETATM   10  O   UNL     1      41.161  -9.607   7.012  1.00  0.00    -0.267 OA
HETATM   11  C   UNL     1      45.553 -10.434   8.687  1.00  0.00     0.020 A 
HETATM   12  C   UNL     1      45.385  -9.505   9.716  1.00  0.00     0.001 A 
ENDROOT
BRANCH   6  13
HETATM   13  N   UNL     1      43.314 -12.831   4.697  1.00  0.00    -0.306 N 
HETATM   14  C   UNL     1      43.300 -12.583   3.297  1.00  0.00     0.233 C 
HETATM   15  O   UNL     1      43.349 -11.409   2.953  1.00  0.00    -0.272 OA
HETATM   16  H   UNL     1      43.357 -13.798   5.002  1.00  0.00     0.171 HD
BRANCH  14  17
HETATM   17  C   UNL     1      43.230 -13.754   2.340  1.00  0.00     0.184 C 
BRANCH  17  18
HETATM   18  S   UNL     1      41.910 -14.946   2.747  1.00  0.00    -0.101 SA
BRANCH  18  19
HETATM   19  C   UNL     1      42.897 -16.282   3.385  1.00  0.00     0.093 A 
HETATM   20  N   UNL     1      43.418 -16.093   4.622  1.00  0.00    -0.254 NA
HETATM   21  C   UNL     1      44.173 -17.102   5.121  1.00  0.00     0.118 A 
HETATM   22  C   UNL     1      44.390 -18.302   4.464  1.00  0.00     0.019 A 
HETATM   23  C   UNL     1      43.806 -18.482   3.216  1.00  0.00     0.004 A 
HETATM   24  C   UNL     1      43.043 -17.457   2.663  1.00  0.00     0.039 A 
ENDBRANCH  18  19
ENDBRANCH  17  18
ENDBRANCH  14  17
ENDBRANCH   6  13
TORSDOF 4
ENDMDL
MODEL 9
REMARK VINA RESULT:      -7.4      1.913      2.313
REMARK  4 active torsions:
REMARK  status: ('A' for Active; 'I' for Inactive)
REMARK    1  A    between atoms: C_6  and  N_7 
REMARK       I    between atoms: N_7  and  C_8 
REMARK    2  A    between atoms: C_8  and  C_9 
REMARK    3  A    between atoms: C_9  and  S_10 
REMARK    4  A    between atoms: S_10  and  C_11 
ROOT
HETATM    1  C   UNL     1      44.021 -19.240   3.941  1.00  0.00     0.001 A 
HETATM    2  C   UNL     1      43.808 -18.148   3.104  1.00  0.00     0.018 A 
HETATM    3  C   UNL     1      43.425 -16.909   3.645  1.00  0.00     0.049 A 
HETATM    4  C   UNL     1      43.243 -16.757   5.019  1.00  0.00     0.024 A 
HETATM    5  S   UNL     1      42.727 -15.257   5.814  1.00  0.00    -0.053 SA
HETATM    6  C   UNL     1      42.691 -14.155   4.484  1.00  0.00     0.154 A 
HETATM    7  N   UNL     1      42.919 -14.508   3.244  1.00  0.00    -0.303 N 
HETATM    8  H   UNL     1      42.844 -13.773   2.541  1.00  0.00     0.171 HD
HETATM    9  C   UNL     1      43.236 -15.779   2.732  1.00  0.00     0.259 A 
HETATM   10  O   UNL     1      43.355 -15.852   1.523  1.00  0.00    -0.267 OA
HETATM   11  C   UNL     1      43.466 -17.867   5.848  1.00  0.00     0.020 A 
HETATM   12  C   UNL     1      43.854 -19.099   5.314  1.00  0.00     0.001 A 
ENDROOT
BRANCH   6  13
HETATM   13  N   UNL     1      42.410 -12.916   4.822  1.00  0.00    -0.306 N 
HETATM   14  C   UNL     1      43.000 -11.728   4.308  1.00  0.00     0.233 C 
HETATM   15  O   UNL     1      43.854 -11.876   3.444  1.00  0.00    -0.272 OA
HETATM   16  H   UNL     1      41.644 -12.814   5.479  1.00  0.00     0.171 HD
BRANCH  14  17
HETATM   17  C   UNL     1      42.547 -10.388   4.846  1.00  0.00     0.184 C 
BRANCH  17  18
HETATM   18  S   UNL     1      42.036 -10.443   6.596  1.00  0.00    -0.101 SA
BRANCH  18  19
HETATM   19  C   UNL     1      43.559  -9.946   7.370  1.00  0.00     0.093 A 
HETATM   20  N   UNL     1      44.622 -10.760   7.159  1.00  0.00    -0.254 NA
HETATM   21  C   UNL     1      45.789 -10.394   7.742  1.00  0.00     0.118 A 
HETATM   22  C   UNL     1      45.953  -9.236   8.483  1.00  0.00     0.019 A 
HETATM   23  C   UNL     1      44.855  -8.400   8.644  1.00  0.00     0.004 A 
HETATM   24  C   UNL     1      43.634  -8.756   8.078  1.00  0.00     0.039 A 
ENDBRANCH  18  19
ENDBRANCH  17  18
ENDBRANCH  14  17
ENDBRANCH   6  13
TORSDOF 4
ENDMDL
MODEL 10
REMARK VINA RESULT:      -7.3      5.897      9.372
REMARK  4 active torsions:
REMARK  status: ('A' for Active; 'I' for Inactive)
REMARK    1  A    between atoms: C_6  and  N_7 
REMARK       I    between atoms: N_7  and  C_8 
REMARK    2  A    between atoms: C_8  and  C_9 
REMARK    3  A    between atoms: C_9  and  S_10 
REMARK    4  A    between atoms: S_10  and  C_11 
ROOT
HETATM    1  C   UNL     1      36.589 -10.871  -2.132  1.00  0.00     0.001 A 
HETATM    2  C   UNL     1      37.488 -10.768  -1.074  1.00  0.00     0.018 A 
HETATM    3  C   UNL     1      38.383 -11.817  -0.805  1.00  0.00     0.049 A 
HETATM    4  C   UNL     1      38.379 -12.975  -1.580  1.00  0.00     0.024 A 
HETATM    5  S   UNL     1      39.433 -14.377  -1.316  1.00  0.00    -0.053 SA
HETATM    6  C   UNL     1      40.444 -13.814  -0.034  1.00  0.00     0.154 A 
HETATM    7  N   UNL     1      40.287 -12.657   0.557  1.00  0.00    -0.303 N 
HETATM    8  H   UNL     1      40.930 -12.444   1.320  1.00  0.00     0.171 HD
HETATM    9  C   UNL     1      39.332 -11.656   0.301  1.00  0.00     0.259 A 
HETATM   10  O   UNL     1      39.370 -10.683   1.030  1.00  0.00    -0.267 OA
HETATM   11  C   UNL     1      37.468 -13.061  -2.645  1.00  0.00     0.020 A 
HETATM   12  C   UNL     1      36.581 -12.017  -2.921  1.00  0.00     0.001 A 
ENDROOT
BRANCH   6  13
HETATM   13  N   UNL     1      41.395 -14.654   0.308  1.00  0.00    -0.306 N 
HETATM   14  C   UNL     1      41.716 -15.105   1.618  1.00  0.00     0.233 C 
HETATM   15  O   UNL     1      41.019 -14.674   2.527  1.00  0.00    -0.272 OA
HETATM   16  H   UNL     1      41.907 -15.061  -0.468  1.00  0.00     0.171 HD
BRANCH  14  17
HETATM   17  C   UNL     1      42.870 -16.067   1.805  1.00  0.00     0.184 C 
BRANCH  17  18
HETATM   18  S   UNL     1      43.253 -16.410   3.555  1.00  0.00    -0.101 SA
BRANCH  18  19
HETATM   19  C   UNL     1      43.510 -18.170   3.466  1.00  0.00     0.093 A 
HETATM   20  N   UNL     1      43.970 -18.756   4.598  1.00  0.00    -0.254 NA
HETATM   21  C   UNL     1      44.170 -20.096   4.546  1.00  0.00     0.118 A 
HETATM   22  C   UNL     1      43.890 -20.876   3.437  1.00  0.00     0.019 A 
HETATM   23  C   UNL     1      43.378 -20.250   2.307  1.00  0.00     0.004 A 
HETATM   24  C   UNL     1      43.181 -18.872   2.317  1.00  0.00     0.039 A 
ENDBRANCH  18  19
ENDBRANCH  17  18
ENDBRANCH  14  17
ENDBRANCH   6  13
TORSDOF 4
ENDMDL
