MODEL 1
REMARK VINA RESULT:      -8.3      0.000      0.000
REMARK  7 active torsions:
REMARK  status: ('A' for Active; 'I' for Inactive)
REMARK    1  A    between atoms: N_3  and  N_4 
REMARK       I    between atoms: N_4  and  C_5 
REMARK    2  A    between atoms: C_5  and  C_6 
REMARK    3  A    between atoms: C_9  and  O_10 
REMARK    4  A    between atoms: O_10  and  C_11 
REMARK    5  A    between atoms: C_11  and  C_12 
REMARK       I    between atoms: C_12  and  N_13 
REMARK    6  A    between atoms: N_13  and  C_14 
REMARK    7  A    between atoms: C_17  and  O_18 
ROOT
HETATM    1  C   UNL     1      42.776 -13.620   5.737  1.00  0.00     0.033 A 
HETATM    2  C   UNL     1      41.912 -12.522   5.642  1.00  0.00     0.020 A 
HETATM    3  C   UNL     1      42.239 -11.324   6.283  1.00  0.00     0.038 A 
HETATM    4  C   UNL     1      43.413 -11.220   7.033  1.00  0.00     0.069 A 
HETATM    5  C   UNL     1      44.288 -12.304   7.108  1.00  0.00     0.038 A 
HETATM    6  C   UNL     1      43.971 -13.500   6.458  1.00  0.00     0.020 A 
ENDROOT
BRANCH   4   7
HETATM    7  O   UNL     1      43.654  -9.993   7.589  1.00  0.00    -0.342 OA
BRANCH   7   8
HETATM    8  C   UNL     1      44.763  -9.929   8.482  1.00  0.00     0.278 C 
BRANCH   8   9
HETATM    9  C   UNL     1      44.403 -10.030   9.969  1.00  0.00     0.246 C 
HETATM   10  N   UNL     1      43.332  -9.228  10.321  1.00  0.00    -0.325 N 
HETATM   11  H   UNL     1      42.950  -8.663   9.568  1.00  0.00     0.169 HD
HETATM   12  O   UNL     1      45.040 -10.770  10.712  1.00  0.00    -0.271 OA
BRANCH  10  13
HETATM   13  C   UNL     1      42.762  -9.058  11.597  1.00  0.00     0.035 A 
HETATM   14  C   UNL     1      41.651  -9.762  12.055  1.00  0.00     0.032 A 
HETATM   15  C   UNL     1      41.159  -9.544  13.346  1.00  0.00     0.039 A 
HETATM   16  C   UNL     1      41.774  -8.630  14.202  1.00  0.00     0.068 A 
HETATM   17  C   UNL     1      42.876  -7.911  13.744  1.00  0.00     0.039 A 
HETATM   18  C   UNL     1      43.365  -8.124  12.448  1.00  0.00     0.032 A 
BRANCH  16  19
HETATM   19  O   UNL     1      41.204  -8.527  15.439  1.00  0.00    -0.356 OA
HETATM   20  C   UNL     1      41.603  -7.419  16.236  1.00  0.00     0.210 C 
ENDBRANCH  16  19
ENDBRANCH  10  13
ENDBRANCH   8   9
ENDBRANCH   7   8
ENDBRANCH   4   7
BRANCH   1  21
HETATM   21  C   UNL     1      42.482 -14.909   5.053  1.00  0.00     0.270 C 
HETATM   22  N   UNL     1      43.578 -15.572   4.555  1.00  0.00    -0.259 N 
HETATM   23  H   UNL     1      44.495 -15.162   4.485  1.00  0.00     0.191 HD
HETATM   24  O   UNL     1      41.319 -15.280   4.950  1.00  0.00    -0.266 OA
BRANCH  22  25
HETATM   25  N   UNL     1      43.407 -16.709   3.856  1.00  0.00    -0.263 N 
HETATM   26  C   UNL     1      43.581 -17.953   4.394  1.00  0.00     0.030 A 
HETATM   27  C   UNL     1      43.776 -18.198   5.846  1.00  0.00     0.070 C 
HETATM   28  C   UNL     1      43.515 -18.848   3.342  1.00  0.00     0.028 A 
HETATM   29  C   UNL     1      43.330 -18.101   2.150  1.00  0.00     0.028 A 
HETATM   30  C   UNL     1      43.289 -16.761   2.494  1.00  0.00     0.030 A 
HETATM   31  C   UNL     1      43.108 -15.562   1.637  1.00  0.00     0.070 C 
ENDBRANCH  22  25
ENDBRANCH   1  21
TORSDOF 7
ENDMDL
MODEL 2
REMARK VINA RESULT:      -8.0      2.383     10.228
REMARK  7 active torsions:
REMARK  status: ('A' for Active; 'I' for Inactive)
REMARK    1  A    between atoms: N_3  and  N_4 
REMARK       I    between atoms: N_4  and  C_5 
REMARK    2  A    between atoms: C_5  and  C_6 
REMARK    3  A    between atoms: C_9  and  O_10 
REMARK    4  A    between atoms: O_10  and  C_11 
REMARK    5  A    between atoms: C_11  and  C_12 
REMARK       I    between atoms: C_12  and  N_13 
REMARK    6  A    between atoms: N_13  and  C_14 
REMARK    7  A    between atoms: C_17  and  O_18 
ROOT
HETATM    1  C   UNL     1      42.849 -10.099   6.582  1.00  0.00     0.033 A 
HETATM    2  C   UNL     1      43.835 -10.978   6.116  1.00  0.00     0.020 A 
HETATM    3  C   UNL     1      43.699 -11.569   4.857  1.00  0.00     0.038 A 
HETATM    4  C   UNL     1      42.578 -11.303   4.066  1.00  0.00     0.069 A 
HETATM    5  C   UNL     1      41.608 -10.407   4.517  1.00  0.00     0.038 A 
HETATM    6  C   UNL     1      41.746  -9.805   5.771  1.00  0.00     0.020 A 
ENDROOT
BRANCH   4   7
HETATM    7  O   UNL     1      42.562 -11.906   2.838  1.00  0.00    -0.342 OA
BRANCH   7   8
HETATM    8  C   UNL     1      41.448 -12.758   2.585  1.00  0.00     0.278 C 
BRANCH   8   9
HETATM    9  C   UNL     1      41.555 -14.160   3.198  1.00  0.00     0.246 C 
HETATM   10  N   UNL     1      42.756 -14.784   2.913  1.00  0.00    -0.325 N 
HETATM   11  H   UNL     1      43.387 -14.254   2.319  1.00  0.00     0.169 HD
HETATM   12  O   UNL     1      40.631 -14.615   3.865  1.00  0.00    -0.271 OA
BRANCH  10  13
HETATM   13  C   UNL     1      43.169 -16.075   3.290  1.00  0.00     0.035 A 
HETATM   14  C   UNL     1      43.239 -17.158   2.416  1.00  0.00     0.032 A 
HETATM   15  C   UNL     1      43.680 -18.406   2.870  1.00  0.00     0.039 A 
HETATM   16  C   UNL     1      44.066 -18.589   4.198  1.00  0.00     0.068 A 
HETATM   17  C   UNL     1      43.983 -17.514   5.080  1.00  0.00     0.039 A 
HETATM   18  C   UNL     1      43.535 -16.266   4.628  1.00  0.00     0.032 A 
BRANCH  16  19
HETATM   19  O   UNL     1      44.491 -19.851   4.504  1.00  0.00    -0.356 OA
HETATM   20  C   UNL     1      43.856 -20.922   3.817  1.00  0.00     0.210 C 
ENDBRANCH  16  19
ENDBRANCH  10  13
ENDBRANCH   8   9
ENDBRANCH   7   8
ENDBRANCH   4   7
BRANCH   1  21
HETATM   21  C   UNL     1      42.961  -9.428   7.906  1.00  0.00     0.270 C 
HETATM   22  N   UNL     1      42.783 -10.246   8.995  1.00  0.00    -0.259 N 
HETATM   23  H   UNL     1      42.428 -11.188   8.935  1.00  0.00     0.191 HD
HETATM   24  O   UNL     1      43.171  -8.222   7.949  1.00  0.00    -0.266 OA
BRANCH  22  25
HETATM   25  N   UNL     1      42.792  -9.719  10.233  1.00  0.00    -0.263 N 
HETATM   26  C   UNL     1      41.676  -9.216  10.841  1.00  0.00     0.030 A 
HETATM   27  C   UNL     1      40.303  -9.376  10.298  1.00  0.00     0.070 C 
HETATM   28  C   UNL     1      42.108  -8.594  11.998  1.00  0.00     0.028 A 
HETATM   29  C   UNL     1      43.521  -8.709  12.049  1.00  0.00     0.028 A 
HETATM   30  C   UNL     1      43.929  -9.397  10.921  1.00  0.00     0.030 A 
HETATM   31  C   UNL     1      45.293  -9.793  10.487  1.00  0.00     0.070 C 
ENDBRANCH  22  25
ENDBRANCH   1  21
TORSDOF 7
ENDMDL
MODEL 3
REMARK VINA RESULT:      -7.9      1.284      1.788
REMARK  7 active torsions:
REMARK  status: ('A' for Active; 'I' for Inactive)
REMARK    1  A    between atoms: N_3  and  N_4 
REMARK       I    between atoms: N_4  and  C_5 
REMARK    2  A    between atoms: C_5  and  C_6 
REMARK    3  A    between atoms: C_9  and  O_10 
REMARK    4  A    between atoms: O_10  and  C_11 
REMARK    5  A    between atoms: C_11  and  C_12 
REMARK       I    between atoms: C_12  and  N_13 
REMARK    6  A    between atoms: N_13  and  C_14 
REMARK    7  A    between atoms: C_17  and  O_18 
ROOT
HETATM    1  C   UNL     1      42.855 -12.612   6.220  1.00  0.00     0.033 A 
HETATM    2  C   UNL     1      44.145 -12.695   6.758  1.00  0.00     0.020 A 
HETATM    3  C   UNL     1      44.699 -11.588   7.405  1.00  0.00     0.038 A 
HETATM    4  C   UNL     1      43.983 -10.393   7.505  1.00  0.00     0.069 A 
HETATM    5  C   UNL     1      42.688 -10.315   6.993  1.00  0.00     0.038 A 
HETATM    6  C   UNL     1      42.124 -11.425   6.355  1.00  0.00     0.020 A 
ENDROOT
BRANCH   4   7
HETATM    7  O   UNL     1      44.606  -9.385   8.189  1.00  0.00    -0.342 OA
BRANCH   7   8
HETATM    8  C   UNL     1      45.344  -9.786   9.341  1.00  0.00     0.278 C 
BRANCH   8   9
HETATM    9  C   UNL     1      44.499 -10.028  10.597  1.00  0.00     0.246 C 
HETATM   10  N   UNL     1      43.993  -8.861  11.141  1.00  0.00    -0.325 N 
HETATM   11  H   UNL     1      44.268  -8.008  10.663  1.00  0.00     0.169 HD
HETATM   12  O   UNL     1      44.328 -11.168  11.018  1.00  0.00    -0.271 OA
BRANCH  10  13
HETATM   13  C   UNL     1      43.208  -8.718  12.300  1.00  0.00     0.035 A 
HETATM   14  C   UNL     1      42.146  -9.556  12.633  1.00  0.00     0.032 A 
HETATM   15  C   UNL     1      41.429  -9.353  13.817  1.00  0.00     0.039 A 
HETATM   16  C   UNL     1      41.766  -8.318  14.689  1.00  0.00     0.068 A 
HETATM   17  C   UNL     1      42.815  -7.466  14.355  1.00  0.00     0.039 A 
HETATM   18  C   UNL     1      43.530  -7.664  13.165  1.00  0.00     0.032 A 
BRANCH  16  19
HETATM   19  O   UNL     1      40.995  -8.242  15.816  1.00  0.00    -0.356 OA
HETATM   20  C   UNL     1      41.100  -7.049  16.581  1.00  0.00     0.210 C 
ENDBRANCH  16  19
ENDBRANCH  10  13
ENDBRANCH   8   9
ENDBRANCH   7   8
ENDBRANCH   4   7
BRANCH   1  21
HETATM   21  C   UNL     1      42.212 -13.771   5.541  1.00  0.00     0.270 C 
HETATM   22  N   UNL     1      42.737 -14.096   4.314  1.00  0.00    -0.259 N 
HETATM   23  H   UNL     1      43.382 -13.510   3.808  1.00  0.00     0.191 HD
HETATM   24  O   UNL     1      41.268 -14.333   6.083  1.00  0.00    -0.266 OA
BRANCH  22  25
HETATM   25  N   UNL     1      42.176 -15.082   3.590  1.00  0.00    -0.263 N 
HETATM   26  C   UNL     1      42.655 -16.361   3.569  1.00  0.00     0.030 A 
HETATM   27  C   UNL     1      43.712 -16.857   4.487  1.00  0.00     0.070 C 
HETATM   28  C   UNL     1      41.954 -17.025   2.579  1.00  0.00     0.028 A 
HETATM   29  C   UNL     1      41.064 -16.097   1.982  1.00  0.00     0.028 A 
HETATM   30  C   UNL     1      41.237 -14.879   2.616  1.00  0.00     0.030 A 
HETATM   31  C   UNL     1      40.555 -13.580   2.389  1.00  0.00     0.070 C 
ENDBRANCH  22  25
ENDBRANCH   1  21
TORSDOF 7
ENDMDL
MODEL 4
REMARK VINA RESULT:      -7.9      2.423      3.306
REMARK  7 active torsions:
REMARK  status: ('A' for Active; 'I' for Inactive)
REMARK    1  A    between atoms: N_3  and  N_4 
REMARK       I    between atoms: N_4  and  C_5 
REMARK    2  A    between atoms: C_5  and  C_6 
REMARK    3  A    between atoms: C_9  and  O_10 
REMARK    4  A    between atoms: O_10  and  C_11 
REMARK    5  A    between atoms: C_11  and  C_12 
REMARK       I    between atoms: C_12  and  N_13 
REMARK    6  A    between atoms: N_13  and  C_14 
REMARK    7  A    between atoms: C_17  and  O_18 
ROOT
HETATM    1  C   UNL     1      42.970 -13.069   4.186  1.00  0.00     0.033 A 
HETATM    2  C   UNL     1      42.900 -13.965   5.260  1.00  0.00     0.020 A 
HETATM    3  C   UNL     1      43.339 -13.567   6.525  1.00  0.00     0.038 A 
HETATM    4  C   UNL     1      43.862 -12.287   6.723  1.00  0.00     0.069 A 
HETATM    5  C   UNL     1      43.909 -11.384   5.661  1.00  0.00     0.038 A 
HETATM    6  C   UNL     1      43.460 -11.774   4.395  1.00  0.00     0.020 A 
ENDROOT
BRANCH   4   7
HETATM    7  O   UNL     1      44.229 -11.990   8.007  1.00  0.00    -0.342 OA
BRANCH   7   8
HETATM    8  C   UNL     1      43.976 -10.650   8.425  1.00  0.00     0.278 C 
BRANCH   8   9
HETATM    9  C   UNL     1      43.910 -10.448   9.943  1.00  0.00     0.246 C 
HETATM   10  N   UNL     1      42.749  -9.820  10.355  1.00  0.00    -0.325 N 
HETATM   11  H   UNL     1      42.116  -9.551   9.607  1.00  0.00     0.169 HD
HETATM   12  O   UNL     1      44.829 -10.834  10.659  1.00  0.00    -0.271 OA
BRANCH  10  13
HETATM   13  C   UNL     1      42.380  -9.457  11.664  1.00  0.00     0.035 A 
HETATM   14  C   UNL     1      43.109  -8.582  12.465  1.00  0.00     0.032 A 
HETATM   15  C   UNL     1      42.660  -8.259  13.751  1.00  0.00     0.039 A 
HETATM   16  C   UNL     1      41.474  -8.798  14.251  1.00  0.00     0.068 A 
HETATM   17  C   UNL     1      40.749  -9.687  13.460  1.00  0.00     0.039 A 
HETATM   18  C   UNL     1      41.202 -10.016  12.176  1.00  0.00     0.032 A 
BRANCH  16  19
HETATM   19  O   UNL     1      41.143  -8.388  15.512  1.00  0.00    -0.356 OA
HETATM   20  C   UNL     1      40.857  -7.006  15.679  1.00  0.00     0.210 C 
ENDBRANCH  16  19
ENDBRANCH  10  13
ENDBRANCH   8   9
ENDBRANCH   7   8
ENDBRANCH   4   7
BRANCH   1  21
HETATM   21  C   UNL     1      42.494 -13.440   2.825  1.00  0.00     0.270 C 
HETATM   22  N   UNL     1      41.187 -13.115   2.552  1.00  0.00    -0.259 N 
HETATM   23  H   UNL     1      40.528 -12.814   3.252  1.00  0.00     0.191 HD
HETATM   24  O   UNL     1      43.258 -14.017   2.060  1.00  0.00    -0.266 OA
BRANCH  22  25
HETATM   25  N   UNL     1      40.644 -13.475   1.375  1.00  0.00    -0.263 N 
HETATM   26  C   UNL     1      40.187 -14.737   1.115  1.00  0.00     0.030 A 
HETATM   27  C   UNL     1      40.052 -15.790   2.153  1.00  0.00     0.070 C 
HETATM   28  C   UNL     1      39.890 -14.776  -0.235  1.00  0.00     0.028 A 
HETATM   29  C   UNL     1      40.214 -13.509  -0.786  1.00  0.00     0.028 A 
HETATM   30  C   UNL     1      40.706 -12.718   0.238  1.00  0.00     0.030 A 
HETATM   31  C   UNL     1      41.182 -11.312   0.211  1.00  0.00     0.070 C 
ENDBRANCH  22  25
ENDBRANCH   1  21
TORSDOF 7
ENDMDL
MODEL 5
REMARK VINA RESULT:      -7.9      3.000     10.049
REMARK  7 active torsions:
REMARK  status: ('A' for Active; 'I' for Inactive)
REMARK    1  A    between atoms: N_3  and  N_4 
REMARK       I    between atoms: N_4  and  C_5 
REMARK    2  A    between atoms: C_5  and  C_6 
REMARK    3  A    between atoms: C_9  and  O_10 
REMARK    4  A    between atoms: O_10  and  C_11 
REMARK    5  A    between atoms: C_11  and  C_12 
REMARK       I    between atoms: C_12  and  N_13 
REMARK    6  A    between atoms: N_13  and  C_14 
REMARK    7  A    between atoms: C_17  and  O_18 
ROOT
HETATM    1  C   UNL     1      41.463 -10.647   5.978  1.00  0.00     0.033 A 
HETATM    2  C   UNL     1      40.482 -11.563   6.379  1.00  0.00     0.020 A 
HETATM    3  C   UNL     1      39.732 -12.243   5.416  1.00  0.00     0.038 A 
HETATM    4  C   UNL     1      39.941 -12.003   4.056  1.00  0.00     0.069 A 
HETATM    5  C   UNL     1      40.935 -11.110   3.653  1.00  0.00     0.038 A 
HETATM    6  C   UNL     1      41.696 -10.437   4.613  1.00  0.00     0.020 A 
ENDROOT
BRANCH   4   7
HETATM    7  O   UNL     1      39.177 -12.747   3.199  1.00  0.00    -0.342 OA
BRANCH   7   8
HETATM    8  C   UNL     1      39.889 -13.403   2.151  1.00  0.00     0.278 C 
BRANCH   8   9
HETATM    9  C   UNL     1      40.298 -14.849   2.455  1.00  0.00     0.246 C 
HETATM   10  N   UNL     1      41.609 -14.962   2.882  1.00  0.00    -0.325 N 
HETATM   11  H   UNL     1      42.130 -14.090   2.908  1.00  0.00     0.169 HD
HETATM   12  O   UNL     1      39.491 -15.763   2.315  1.00  0.00    -0.271 OA
BRANCH  10  13
HETATM   13  C   UNL     1      42.311 -16.135   3.214  1.00  0.00     0.035 A 
HETATM   14  C   UNL     1      42.628 -17.139   2.302  1.00  0.00     0.032 A 
HETATM   15  C   UNL     1      43.348 -18.267   2.713  1.00  0.00     0.039 A 
HETATM   16  C   UNL     1      43.769 -18.403   4.036  1.00  0.00     0.068 A 
HETATM   17  C   UNL     1      43.440 -17.411   4.957  1.00  0.00     0.039 A 
HETATM   18  C   UNL     1      42.714 -16.285   4.547  1.00  0.00     0.032 A 
BRANCH  16  19
HETATM   19  O   UNL     1      44.475 -19.543   4.299  1.00  0.00    -0.356 OA
HETATM   20  C   UNL     1      43.950 -20.755   3.773  1.00  0.00     0.210 C 
ENDBRANCH  16  19
ENDBRANCH  10  13
ENDBRANCH   8   9
ENDBRANCH   7   8
ENDBRANCH   4   7
BRANCH   1  21
HETATM   21  C   UNL     1      42.302  -9.916   6.966  1.00  0.00     0.270 C 
HETATM   22  N   UNL     1      42.841 -10.690   7.965  1.00  0.00    -0.259 N 
HETATM   23  H   UNL     1      42.565 -11.642   8.145  1.00  0.00     0.191 HD
HETATM   24  O   UNL     1      42.440  -8.704   6.854  1.00  0.00    -0.266 OA
BRANCH  22  25
HETATM   25  N   UNL     1      43.554 -10.109   8.947  1.00  0.00    -0.263 N 
HETATM   26  C   UNL     1      44.917 -10.165   9.016  1.00  0.00     0.030 A 
HETATM   27  C   UNL     1      45.773 -10.691   7.924  1.00  0.00     0.070 C 
HETATM   28  C   UNL     1      45.269  -9.635  10.245  1.00  0.00     0.028 A 
HETATM   29  C   UNL     1      44.073  -9.290  10.925  1.00  0.00     0.028 A 
HETATM   30  C   UNL     1      43.010  -9.618  10.102  1.00  0.00     0.030 A 
HETATM   31  C   UNL     1      41.550  -9.460  10.322  1.00  0.00     0.070 C 
ENDBRANCH  22  25
ENDBRANCH   1  21
TORSDOF 7
ENDMDL
MODEL 6
REMARK VINA RESULT:      -7.8      1.845      2.547
REMARK  7 active torsions:
REMARK  status: ('A' for Active; 'I' for Inactive)
REMARK    1  A    between atoms: N_3  and  N_4 
REMARK       I    between atoms: N_4  and  C_5 
REMARK    2  A    between atoms: C_5  and  C_6 
REMARK    3  A    between atoms: C_9  and  O_10 
REMARK    4  A    between atoms: O_10  and  C_11 
REMARK    5  A    between atoms: C_11  and  C_12 
REMARK       I    between atoms: C_12  and  N_13 
REMARK    6  A    between atoms: N_13  and  C_14 
REMARK    7  A    between atoms: C_17  and  O_18 
ROOT
HETATM    1  C   UNL     1      43.174 -15.137   5.340  1.00  0.00     0.033 A 
HETATM    2  C   UNL     1      43.706 -14.702   6.560  1.00  0.00     0.020 A 
HETATM    3  C   UNL     1      43.966 -13.343   6.759  1.00  0.00     0.038 A 
HETATM    4  C   UNL     1      43.714 -12.418   5.743  1.00  0.00     0.069 A 
HETATM    5  C   UNL     1      43.160 -12.845   4.536  1.00  0.00     0.038 A 
HETATM    6  C   UNL     1      42.887 -14.202   4.338  1.00  0.00     0.020 A 
ENDROOT
BRANCH   4   7
HETATM    7  O   UNL     1      43.971 -11.111   6.055  1.00  0.00    -0.342 OA
BRANCH   7   8
HETATM    8  C   UNL     1      45.237 -10.860   6.661  1.00  0.00     0.278 C 
BRANCH   8   9
HETATM    9  C   UNL     1      45.207  -9.875   7.836  1.00  0.00     0.246 C 
HETATM   10  N   UNL     1      43.994  -9.863   8.500  1.00  0.00    -0.325 N 
HETATM   11  H   UNL     1      43.282 -10.475   8.110  1.00  0.00     0.169 HD
HETATM   12  O   UNL     1      46.197  -9.202   8.105  1.00  0.00    -0.271 OA
BRANCH  10  13
HETATM   13  C   UNL     1      43.616  -9.064   9.595  1.00  0.00     0.035 A 
HETATM   14  C   UNL     1      42.935  -7.854   9.480  1.00  0.00     0.032 A 
HETATM   15  C   UNL     1      42.580  -7.130  10.623  1.00  0.00     0.039 A 
HETATM   16  C   UNL     1      42.890  -7.608  11.897  1.00  0.00     0.068 A 
HETATM   17  C   UNL     1      43.585  -8.809  12.019  1.00  0.00     0.039 A 
HETATM   18  C   UNL     1      43.947  -9.530  10.873  1.00  0.00     0.032 A 
BRANCH  16  19
HETATM   19  O   UNL     1      42.472  -6.812  12.927  1.00  0.00    -0.356 OA
HETATM   20  C   UNL     1      43.058  -7.055  14.199  1.00  0.00     0.210 C 
ENDBRANCH  16  19
ENDBRANCH  10  13
ENDBRANCH   8   9
ENDBRANCH   7   8
ENDBRANCH   4   7
BRANCH   1  21
HETATM   21  C   UNL     1      42.860 -16.570   5.090  1.00  0.00     0.270 C 
HETATM   22  N   UNL     1      43.935 -17.424   5.142  1.00  0.00    -0.259 N 
HETATM   23  H   UNL     1      44.893 -17.115   5.168  1.00  0.00     0.191 HD
HETATM   24  O   UNL     1      41.706 -16.894   4.833  1.00  0.00    -0.266 OA
BRANCH  22  25
HETATM   25  N   UNL     1      43.764 -18.728   4.857  1.00  0.00    -0.263 N 
HETATM   26  C   UNL     1      43.664 -19.697   5.815  1.00  0.00     0.030 A 
HETATM   27  C   UNL     1      43.528 -19.407   7.265  1.00  0.00     0.070 C 
HETATM   28  C   UNL     1      43.696 -20.910   5.149  1.00  0.00     0.028 A 
HETATM   29  C   UNL     1      43.854 -20.640   3.766  1.00  0.00     0.028 A 
HETATM   30  C   UNL     1      43.917 -19.266   3.609  1.00  0.00     0.030 A 
HETATM   31  C   UNL     1      44.069 -18.454   2.376  1.00  0.00     0.070 C 
ENDBRANCH  22  25
ENDBRANCH   1  21
TORSDOF 7
ENDMDL
MODEL 7
REMARK VINA RESULT:      -7.7      2.424     11.394
REMARK  7 active torsions:
REMARK  status: ('A' for Active; 'I' for Inactive)
REMARK    1  A    between atoms: N_3  and  N_4 
REMARK       I    between atoms: N_4  and  C_5 
REMARK    2  A    between atoms: C_5  and  C_6 
REMARK    3  A    between atoms: C_9  and  O_10 
REMARK    4  A    between atoms: O_10  and  C_11 
REMARK    5  A    between atoms: C_11  and  C_12 
REMARK       I    between atoms: C_12  and  N_13 
REMARK    6  A    between atoms: N_13  and  C_14 
REMARK    7  A    between atoms: C_17  and  O_18 
ROOT
HETATM    1  C   UNL     1      42.728  -8.389  12.319  1.00  0.00     0.033 A 
HETATM    2  C   UNL     1      43.241  -7.974  11.083  1.00  0.00     0.020 A 
HETATM    3  C   UNL     1      43.785  -8.915  10.206  1.00  0.00     0.038 A 
HETATM    4  C   UNL     1      43.838 -10.266  10.559  1.00  0.00     0.069 A 
HETATM    5  C   UNL     1      43.305 -10.686  11.778  1.00  0.00     0.038 A 
HETATM    6  C   UNL     1      42.748  -9.749  12.654  1.00  0.00     0.020 A 
ENDROOT
BRANCH   4   7
HETATM    7  O   UNL     1      44.359 -11.106   9.613  1.00  0.00    -0.342 OA
BRANCH   7   8
HETATM    8  C   UNL     1      43.974 -10.832   8.268  1.00  0.00     0.278 C 
BRANCH   8   9
HETATM    9  C   UNL     1      44.345 -11.922   7.256  1.00  0.00     0.246 C 
HETATM   10  N   UNL     1      43.346 -12.863   7.085  1.00  0.00    -0.325 N 
HETATM   11  H   UNL     1      42.523 -12.729   7.665  1.00  0.00     0.169 HD
HETATM   12  O   UNL     1      45.433 -11.896   6.690  1.00  0.00    -0.271 OA
BRANCH  10  13
HETATM   13  C   UNL     1      43.365 -14.004   6.261  1.00  0.00     0.035 A 
HETATM   14  C   UNL     1      42.904 -14.026   4.947  1.00  0.00     0.032 A 
HETATM   15  C   UNL     1      42.977 -15.200   4.191  1.00  0.00     0.039 A 
HETATM   16  C   UNL     1      43.520 -16.366   4.731  1.00  0.00     0.068 A 
HETATM   17  C   UNL     1      43.968 -16.356   6.050  1.00  0.00     0.039 A 
HETATM   18  C   UNL     1      43.888 -15.181   6.810  1.00  0.00     0.032 A 
BRANCH  16  19
HETATM   19  O   UNL     1      43.546 -17.436   3.880  1.00  0.00    -0.356 OA
HETATM   20  C   UNL     1      42.930 -17.257   2.612  1.00  0.00     0.210 C 
ENDBRANCH  16  19
ENDBRANCH  10  13
ENDBRANCH   8   9
ENDBRANCH   7   8
ENDBRANCH   4   7
BRANCH   1  21
HETATM   21  C   UNL     1      42.118  -7.427  13.276  1.00  0.00     0.270 C 
HETATM   22  N   UNL     1      40.934  -7.834  13.842  1.00  0.00    -0.259 N 
HETATM   23  H   UNL     1      40.407  -8.632  13.523  1.00  0.00     0.191 HD
HETATM   24  O   UNL     1      42.670  -6.352  13.479  1.00  0.00    -0.266 OA
BRANCH  22  25
HETATM   25  N   UNL     1      40.268  -7.003  14.664  1.00  0.00    -0.263 N 
HETATM   26  C   UNL     1      40.437  -6.996  16.021  1.00  0.00     0.030 A 
HETATM   27  C   UNL     1      41.508  -7.752  16.717  1.00  0.00     0.070 C 
HETATM   28  C   UNL     1      39.457  -6.164  16.533  1.00  0.00     0.028 A 
HETATM   29  C   UNL     1      38.674  -5.699  15.446  1.00  0.00     0.028 A 
HETATM   30  C   UNL     1      39.186  -6.256  14.287  1.00  0.00     0.030 A 
HETATM   31  C   UNL     1      38.749  -6.095  12.878  1.00  0.00     0.070 C 
ENDBRANCH  22  25
ENDBRANCH   1  21
TORSDOF 7
ENDMDL
MODEL 8
REMARK VINA RESULT:      -7.5      2.462     11.057
REMARK  7 active torsions:
REMARK  status: ('A' for Active; 'I' for Inactive)
REMARK    1  A    between atoms: N_3  and  N_4 
REMARK       I    between atoms: N_4  and  C_5 
REMARK    2  A    between atoms: C_5  and  C_6 
REMARK    3  A    between atoms: C_9  and  O_10 
REMARK    4  A    between atoms: O_10  and  C_11 
REMARK    5  A    between atoms: C_11  and  C_12 
REMARK       I    between atoms: C_12  and  N_13 
REMARK    6  A    between atoms: N_13  and  C_14 
REMARK    7  A    between atoms: C_17  and  O_18 
ROOT
HETATM    1  C   UNL     1      42.396  -9.227  12.531  1.00  0.00     0.033 A 
HETATM    2  C   UNL     1      42.796 -10.567  12.481  1.00  0.00     0.020 A 
HETATM    3  C   UNL     1      43.785 -10.963  11.576  1.00  0.00     0.038 A 
HETATM    4  C   UNL     1      44.364 -10.034  10.709  1.00  0.00     0.069 A 
HETATM    5  C   UNL     1      43.986  -8.692  10.774  1.00  0.00     0.038 A 
HETATM    6  C   UNL     1      43.005  -8.290  11.687  1.00  0.00     0.020 A 
ENDROOT
BRANCH   4   7
HETATM    7  O   UNL     1      45.346 -10.520   9.889  1.00  0.00    -0.342 OA
BRANCH   7   8
HETATM    8  C   UNL     1      45.344 -10.010   8.557  1.00  0.00     0.278 C 
BRANCH   8   9
HETATM    9  C   UNL     1      45.240 -11.074   7.459  1.00  0.00     0.246 C 
HETATM   10  N   UNL     1      44.003 -11.692   7.419  1.00  0.00    -0.325 N 
HETATM   11  H   UNL     1      43.346 -11.386   8.132  1.00  0.00     0.169 HD
HETATM   12  O   UNL     1      46.196 -11.300   6.723  1.00  0.00    -0.271 OA
BRANCH  10  13
HETATM   13  C   UNL     1      43.579 -12.725   6.563  1.00  0.00     0.035 A 
HETATM   14  C   UNL     1      43.211 -12.533   5.233  1.00  0.00     0.032 A 
HETATM   15  C   UNL     1      42.819 -13.620   4.444  1.00  0.00     0.039 A 
HETATM   16  C   UNL     1      42.798 -14.914   4.967  1.00  0.00     0.068 A 
HETATM   17  C   UNL     1      43.150 -15.109   6.301  1.00  0.00     0.039 A 
HETATM   18  C   UNL     1      43.535 -14.020   7.093  1.00  0.00     0.032 A 
BRANCH  16  19
HETATM   19  O   UNL     1      42.412 -15.884   4.086  1.00  0.00    -0.356 OA
HETATM   20  C   UNL     1      41.014 -16.034   3.875  1.00  0.00     0.210 C 
ENDBRANCH  16  19
ENDBRANCH  10  13
ENDBRANCH   8   9
ENDBRANCH   7   8
ENDBRANCH   4   7
BRANCH   1  21
HETATM   21  C   UNL     1      41.363  -8.753  13.494  1.00  0.00     0.270 C 
HETATM   22  N   UNL     1      41.277  -7.390  13.638  1.00  0.00    -0.259 N 
HETATM   23  H   UNL     1      41.960  -6.745  13.273  1.00  0.00     0.191 HD
HETATM   24  O   UNL     1      40.691  -9.576  14.102  1.00  0.00    -0.266 OA
BRANCH  22  25
HETATM   25  N   UNL     1      40.425  -6.868  14.539  1.00  0.00    -0.263 N 
HETATM   26  C   UNL     1      39.158  -6.464  14.225  1.00  0.00     0.030 A 
HETATM   27  C   UNL     1      38.510  -6.738  12.918  1.00  0.00     0.070 C 
HETATM   28  C   UNL     1      38.668  -5.812  15.342  1.00  0.00     0.028 A 
HETATM   29  C   UNL     1      39.691  -5.806  16.324  1.00  0.00     0.028 A 
HETATM   30  C   UNL     1      40.792  -6.453  15.790  1.00  0.00     0.030 A 
HETATM   31  C   UNL     1      42.120  -6.730  16.393  1.00  0.00     0.070 C 
ENDBRANCH  22  25
ENDBRANCH   1  21
TORSDOF 7
ENDMDL
MODEL 9
REMARK VINA RESULT:      -7.5      2.364     10.498
REMARK  7 active torsions:
REMARK  status: ('A' for Active; 'I' for Inactive)
REMARK    1  A    between atoms: N_3  and  N_4 
REMARK       I    between atoms: N_4  and  C_5 
REMARK    2  A    between atoms: C_5  and  C_6 
REMARK    3  A    between atoms: C_9  and  O_10 
REMARK    4  A    between atoms: O_10  and  C_11 
REMARK    5  A    between atoms: C_11  and  C_12 
REMARK       I    between atoms: C_12  and  N_13 
REMARK    6  A    between atoms: N_13  and  C_14 
REMARK    7  A    between atoms: C_17  and  O_18 
ROOT
HETATM    1  C   UNL     1      40.831  -9.732   8.212  1.00  0.00     0.033 A 
HETATM    2  C   UNL     1      39.615 -10.206   7.704  1.00  0.00     0.020 A 
HETATM    3  C   UNL     1      39.571 -10.785   6.433  1.00  0.00     0.038 A 
HETATM    4  C   UNL     1      40.729 -10.878   5.657  1.00  0.00     0.069 A 
HETATM    5  C   UNL     1      41.947 -10.430   6.171  1.00  0.00     0.038 A 
HETATM    6  C   UNL     1      41.997  -9.861   7.447  1.00  0.00     0.020 A 
ENDROOT
BRANCH   4   7
HETATM    7  O   UNL     1      40.581 -11.493   4.445  1.00  0.00    -0.342 OA
BRANCH   7   8
HETATM    8  C   UNL     1      41.733 -12.178   3.957  1.00  0.00     0.278 C 
BRANCH   8   9
HETATM    9  C   UNL     1      41.702 -13.701   4.133  1.00  0.00     0.246 C 
HETATM   10  N   UNL     1      42.850 -14.322   3.677  1.00  0.00    -0.325 N 
HETATM   11  H   UNL     1      43.540 -13.701   3.262  1.00  0.00     0.169 HD
HETATM   12  O   UNL     1      40.726 -14.245   4.640  1.00  0.00    -0.271 OA
BRANCH  10  13
HETATM   13  C   UNL     1      43.140 -15.698   3.659  1.00  0.00     0.035 A 
HETATM   14  C   UNL     1      43.034 -16.504   2.527  1.00  0.00     0.032 A 
HETATM   15  C   UNL     1      43.360 -17.863   2.593  1.00  0.00     0.039 A 
HETATM   16  C   UNL     1      43.806 -18.435   3.785  1.00  0.00     0.068 A 
HETATM   17  C   UNL     1      43.899 -17.639   4.924  1.00  0.00     0.039 A 
HETATM   18  C   UNL     1      43.565 -16.279   4.860  1.00  0.00     0.032 A 
BRANCH  16  19
HETATM   19  O   UNL     1      44.106 -19.766   3.706  1.00  0.00    -0.356 OA
HETATM   20  C   UNL     1      44.247 -20.461   4.938  1.00  0.00     0.210 C 
ENDBRANCH  16  19
ENDBRANCH  10  13
ENDBRANCH   8   9
ENDBRANCH   7   8
ENDBRANCH   4   7
BRANCH   1  21
HETATM   21  C   UNL     1      40.931  -9.128   9.569  1.00  0.00     0.270 C 
HETATM   22  N   UNL     1      41.454  -9.949  10.538  1.00  0.00    -0.259 N 
HETATM   23  H   UNL     1      41.600 -10.939  10.414  1.00  0.00     0.191 HD
HETATM   24  O   UNL     1      40.531  -7.984   9.746  1.00  0.00    -0.266 OA
BRANCH  22  25
HETATM   25  N   UNL     1      41.517  -9.520  11.812  1.00  0.00    -0.263 N 
HETATM   26  C   UNL     1      42.631  -8.944  12.354  1.00  0.00     0.030 A 
HETATM   27  C   UNL     1      43.818  -8.545  11.557  1.00  0.00     0.070 C 
HETATM   28  C   UNL     1      42.387  -8.820  13.710  1.00  0.00     0.028 A 
HETATM   29  C   UNL     1      41.106  -9.370  13.971  1.00  0.00     0.028 A 
HETATM   30  C   UNL     1      40.589  -9.823  12.770  1.00  0.00     0.030 A 
HETATM   31  C   UNL     1      39.286 -10.473  12.478  1.00  0.00     0.070 C 
ENDBRANCH  22  25
ENDBRANCH   1  21
TORSDOF 7
ENDMDL
MODEL 10
REMARK VINA RESULT:      -7.4      3.987      7.223
REMARK  7 active torsions:
REMARK  status: ('A' for Active; 'I' for Inactive)
REMARK    1  A    between atoms: N_3  and  N_4 
REMARK       I    between atoms: N_4  and  C_5 
REMARK    2  A    between atoms: C_5  and  C_6 
REMARK    3  A    between atoms: C_9  and  O_10 
REMARK    4  A    between atoms: O_10  and  C_11 
REMARK    5  A    between atoms: C_11  and  C_12 
REMARK       I    between atoms: C_12  and  N_13 
REMARK    6  A    between atoms: N_13  and  C_14 
REMARK    7  A    between atoms: C_17  and  O_18 
ROOT
HETATM    1  C   UNL     1      41.079 -14.639   1.568  1.00  0.00     0.033 A 
HETATM    2  C   UNL     1      40.258 -15.165   2.574  1.00  0.00     0.020 A 
HETATM    3  C   UNL     1      40.791 -16.056   3.509  1.00  0.00     0.038 A 
HETATM    4  C   UNL     1      42.132 -16.440   3.438  1.00  0.00     0.069 A 
HETATM    5  C   UNL     1      42.958 -15.897   2.453  1.00  0.00     0.038 A 
HETATM    6  C   UNL     1      42.432 -14.996   1.523  1.00  0.00     0.020 A 
ENDROOT
BRANCH   4   7
HETATM    7  O   UNL     1      42.559 -17.288   4.423  1.00  0.00    -0.342 OA
BRANCH   7   8
HETATM    8  C   UNL     1      43.541 -16.757   5.310  1.00  0.00     0.278 C 
BRANCH   8   9
HETATM    9  C   UNL     1      43.078 -15.553   6.139  1.00  0.00     0.246 C 
HETATM   10  N   UNL     1      43.574 -14.350   5.669  1.00  0.00    -0.325 N 
HETATM   11  H   UNL     1      44.195 -14.424   4.867  1.00  0.00     0.169 HD
HETATM   12  O   UNL     1      42.340 -15.714   7.106  1.00  0.00    -0.271 OA
BRANCH  10  13
HETATM   13  C   UNL     1      43.375 -13.065   6.204  1.00  0.00     0.035 A 
HETATM   14  C   UNL     1      44.258 -12.439   7.081  1.00  0.00     0.032 A 
HETATM   15  C   UNL     1      43.992 -11.149   7.552  1.00  0.00     0.039 A 
HETATM   16  C   UNL     1      42.848 -10.461   7.148  1.00  0.00     0.068 A 
HETATM   17  C   UNL     1      41.952 -11.088   6.284  1.00  0.00     0.039 A 
HETATM   18  C   UNL     1      42.215 -12.383   5.818  1.00  0.00     0.032 A 
BRANCH  16  19
HETATM   19  O   UNL     1      42.718  -9.205   7.669  1.00  0.00    -0.356 OA
HETATM   20  C   UNL     1      42.596  -9.110   9.083  1.00  0.00     0.210 C 
ENDBRANCH  16  19
ENDBRANCH  10  13
ENDBRANCH   8   9
ENDBRANCH   7   8
ENDBRANCH   4   7
BRANCH   1  21
HETATM   21  C   UNL     1      40.562 -13.669   0.564  1.00  0.00     0.270 C 
HETATM   22  N   UNL     1      39.241 -13.826   0.223  1.00  0.00    -0.259 N 
HETATM   23  H   UNL     1      38.688 -14.629   0.479  1.00  0.00     0.191 HD
HETATM   24  O   UNL     1      41.324 -12.833   0.093  1.00  0.00    -0.266 OA
BRANCH  22  25
HETATM   25  N   UNL     1      38.702 -13.045  -0.731  1.00  0.00    -0.263 N 
HETATM   26  C   UNL     1      38.061 -11.868  -0.462  1.00  0.00     0.030 A 
HETATM   27  C   UNL     1      38.061 -11.221   0.874  1.00  0.00     0.070 C 
HETATM   28  C   UNL     1      37.480 -11.459  -1.649  1.00  0.00     0.028 A 
HETATM   29  C   UNL     1      37.764 -12.443  -2.631  1.00  0.00     0.028 A 
HETATM   30  C   UNL     1      38.511 -13.438  -2.027  1.00  0.00     0.030 A 
HETATM   31  C   UNL     1      39.074 -14.687  -2.599  1.00  0.00     0.070 C 
ENDBRANCH  22  25
ENDBRANCH   1  21
TORSDOF 7
ENDMDL
