MODEL 1
REMARK VINA RESULT:      -9.4      0.000      0.000
REMARK  10 active torsions:
REMARK  status: ('A' for Active; 'I' for Inactive)
REMARK    1  A    between atoms: C_2  and  C_3 
REMARK    2  A    between atoms: C_3  and  C_4 
REMARK    3  A    between atoms: C_4  and  O_5 
REMARK    4  A    between atoms: O_5  and  C_6 
REMARK    5  A    between atoms: C_9  and  C_10 
REMARK       I    between atoms: C_10  and  N_11 
REMARK    6  A    between atoms: N_11  and  C_12 
REMARK    7  A    between atoms: C_12  and  N_13 
REMARK    8  A    between atoms: N_13  and  C_14 
REMARK    9  A    between atoms: C_16  and  O_17 
REMARK   10  A    between atoms: C_18  and  C_19 
ROOT
HETATM    1  N   UNL     1      42.520 -10.657   7.336  1.00  0.00    -0.333 N 
HETATM    2  H   UNL     1      41.557 -10.368   7.208  1.00  0.00     0.168 HD
ENDROOT
BRANCH   1   3
HETATM    3  C   UNL     1      43.146  -9.986   8.328  1.00  0.00     0.179 C 
HETATM    4  S   UNL     1      44.644  -9.304   8.022  1.00  0.00    -0.040 SA
BRANCH   3   5
HETATM    5  N   UNL     1      42.639  -9.869   9.583  1.00  0.00    -0.299 N 
HETATM    6  C   UNL     1      43.273 -10.171  10.787  1.00  0.00     0.257 C 
HETATM    7  O   UNL     1      44.261 -10.883  10.919  1.00  0.00    -0.267 OA
HETATM    8  H   UNL     1      41.917  -9.167   9.624  1.00  0.00     0.171 HD
BRANCH   6   9
HETATM    9  C   UNL     1      42.637  -9.592  12.010  1.00  0.00     0.032 A 
HETATM   10  C   UNL     1      43.303  -8.546  12.666  1.00  0.00     0.020 A 
HETATM   11  C   UNL     1      42.770  -7.985  13.831  1.00  0.00     0.038 A 
HETATM   12  C   UNL     1      41.557  -8.453  14.332  1.00  0.00     0.068 A 
HETATM   13  C   UNL     1      40.885  -9.488  13.686  1.00  0.00     0.038 A 
HETATM   14  C   UNL     1      41.411 -10.046  12.516  1.00  0.00     0.020 A 
BRANCH  12  15
HETATM   15  O   UNL     1      41.021  -8.006  15.507  1.00  0.00    -0.351 OA
BRANCH  15  16
HETATM   16  C   UNL     1      41.714  -6.879  16.052  1.00  0.00     0.175 C 
BRANCH  16  17
HETATM   17  C   UNL     1      41.631  -6.948  17.577  1.00  0.00     0.026 C 
BRANCH  17  18
HETATM   18  C   UNL     1      40.184  -6.879  18.074  1.00  0.00    -0.002 C 
HETATM   19  C   UNL     1      39.792  -8.138  18.831  1.00  0.00     0.005 C 
ENDBRANCH  17  18
ENDBRANCH  16  17
ENDBRANCH  15  16
ENDBRANCH  12  15
ENDBRANCH   6   9
ENDBRANCH   3   5
ENDBRANCH   1   3
BRANCH   1  20
HETATM   20  C   UNL     1      42.827 -11.916   6.767  1.00  0.00     0.036 A 
HETATM   21  C   UNL     1      41.909 -12.439   5.850  1.00  0.00     0.067 A 
HETATM   22  C   UNL     1      42.073 -13.728   5.324  1.00  0.00     0.082 A 
HETATM   23  C   UNL     1      43.160 -14.529   5.699  1.00  0.00     0.050 A 
HETATM   24  C   UNL     1      44.079 -13.986   6.613  1.00  0.00     0.021 A 
HETATM   25  C   UNL     1      43.915 -12.699   7.145  1.00  0.00     0.030 A 
BRANCH  22  26
HETATM   26  O   UNL     1      41.120 -14.205   4.463  1.00  0.00    -0.360 OA
HETATM   27  H   UNL     1      41.545 -14.671   3.725  1.00  0.00     0.217 HD
ENDBRANCH  22  26
BRANCH  23  28
HETATM   28  C   UNL     1      43.376 -15.904   5.239  1.00  0.00     0.183 A 
HETATM   29  O   UNL     1      43.218 -16.164   3.900  1.00  0.00    -0.289 OA
HETATM   30  C   UNL     1      43.450 -17.501   3.787  1.00  0.00     0.107 A 
HETATM   31  C   UNL     1      43.755 -17.985   5.046  1.00  0.00     0.093 A 
HETATM   32  C   UNL     1      43.393 -18.272   2.631  1.00  0.00     0.046 A 
HETATM   33  N   UNL     1      43.722 -16.961   5.959  1.00  0.00    -0.221 NA
HETATM   34  C   UNL     1      44.024 -19.350   5.198  1.00  0.00     0.035 A 
HETATM   35  C   UNL     1      43.974 -20.167   4.057  1.00  0.00     0.009 A 
HETATM   36  C   UNL     1      43.675 -19.641   2.787  1.00  0.00    -0.059 A 
HETATM   37  C   UNL     1      43.599 -20.560   1.599  1.00  0.00     0.048 C 
ENDBRANCH  23  28
ENDBRANCH   1  20
TORSDOF 10
ENDMDL
MODEL 2
REMARK VINA RESULT:      -9.3      1.131      1.131
REMARK  10 active torsions:
REMARK  status: ('A' for Active; 'I' for Inactive)
REMARK    1  A    between atoms: C_2  and  C_3 
REMARK    2  A    between atoms: C_3  and  C_4 
REMARK    3  A    between atoms: C_4  and  O_5 
REMARK    4  A    between atoms: O_5  and  C_6 
REMARK    5  A    between atoms: C_9  and  C_10 
REMARK       I    between atoms: C_10  and  N_11 
REMARK    6  A    between atoms: N_11  and  C_12 
REMARK    7  A    between atoms: C_12  and  N_13 
REMARK    8  A    between atoms: N_13  and  C_14 
REMARK    9  A    between atoms: C_16  and  O_17 
REMARK   10  A    between atoms: C_18  and  C_19 
ROOT
HETATM    1  N   UNL     1      42.526 -10.154   6.845  1.00  0.00    -0.333 N 
HETATM    2  H   UNL     1      42.886  -9.408   6.260  1.00  0.00     0.168 HD
ENDROOT
BRANCH   1   3
HETATM    3  C   UNL     1      41.520  -9.754   7.655  1.00  0.00     0.179 C 
HETATM    4  S   UNL     1      40.105  -9.185   6.965  1.00  0.00    -0.040 SA
BRANCH   3   5
HETATM    5  N   UNL     1      41.613  -9.750   9.010  1.00  0.00    -0.299 N 
HETATM    6  C   UNL     1      42.753  -9.534   9.783  1.00  0.00     0.257 C 
HETATM    7  O   UNL     1      43.911  -9.626   9.395  1.00  0.00    -0.267 OA
HETATM    8  H   UNL     1      40.732  -9.510   9.438  1.00  0.00     0.171 HD
BRANCH   6   9
HETATM    9  C   UNL     1      42.501  -9.205  11.220  1.00  0.00     0.032 A 
HETATM   10  C   UNL     1      43.363  -8.295  11.848  1.00  0.00     0.020 A 
HETATM   11  C   UNL     1      43.194  -7.971  13.198  1.00  0.00     0.038 A 
HETATM   12  C   UNL     1      42.146  -8.540  13.919  1.00  0.00     0.068 A 
HETATM   13  C   UNL     1      41.280  -9.441  13.304  1.00  0.00     0.038 A 
HETATM   14  C   UNL     1      41.442  -9.761  11.952  1.00  0.00     0.020 A 
BRANCH  12  15
HETATM   15  O   UNL     1      41.970  -8.331  15.258  1.00  0.00    -0.351 OA
BRANCH  15  16
HETATM   16  C   UNL     1      42.404  -7.036  15.689  1.00  0.00     0.175 C 
BRANCH  16  17
HETATM   17  C   UNL     1      41.765  -6.737  17.045  1.00  0.00     0.026 C 
BRANCH  17  18
HETATM   18  C   UNL     1      40.500  -7.567  17.277  1.00  0.00    -0.002 C 
HETATM   19  C   UNL     1      40.376  -8.007  18.728  1.00  0.00     0.005 C 
ENDBRANCH  17  18
ENDBRANCH  16  17
ENDBRANCH  15  16
ENDBRANCH  12  15
ENDBRANCH   6   9
ENDBRANCH   3   5
ENDBRANCH   1   3
BRANCH   1  20
HETATM   20  C   UNL     1      42.851 -11.455   6.391  1.00  0.00     0.036 A 
HETATM   21  C   UNL     1      42.138 -11.939   5.289  1.00  0.00     0.067 A 
HETATM   22  C   UNL     1      42.312 -13.257   4.843  1.00  0.00     0.082 A 
HETATM   23  C   UNL     1      43.204 -14.126   5.484  1.00  0.00     0.050 A 
HETATM   24  C   UNL     1      43.920 -13.622   6.584  1.00  0.00     0.021 A 
HETATM   25  C   UNL     1      43.745 -12.306   7.036  1.00  0.00     0.030 A 
BRANCH  22  26
HETATM   26  O   UNL     1      41.555 -13.690   3.785  1.00  0.00    -0.360 OA
HETATM   27  H   UNL     1      40.699 -13.231   3.782  1.00  0.00     0.217 HD
ENDBRANCH  22  26
BRANCH  23  28
HETATM   28  C   UNL     1      43.404 -15.531   5.116  1.00  0.00     0.183 A 
HETATM   29  O   UNL     1      43.274 -15.870   3.792  1.00  0.00    -0.289 OA
HETATM   30  C   UNL     1      43.483 -17.216   3.768  1.00  0.00     0.107 A 
HETATM   31  C   UNL     1      43.748 -17.626   5.063  1.00  0.00     0.093 A 
HETATM   32  C   UNL     1      43.440 -18.056   2.661  1.00  0.00     0.046 A 
HETATM   33  N   UNL     1      43.711 -16.547   5.909  1.00  0.00    -0.221 NA
HETATM   34  C   UNL     1      43.986 -18.983   5.306  1.00  0.00     0.035 A 
HETATM   35  C   UNL     1      43.948 -19.869   4.217  1.00  0.00     0.009 A 
HETATM   36  C   UNL     1      43.691 -19.417   2.908  1.00  0.00    -0.059 A 
HETATM   37  C   UNL     1      43.627 -20.408   1.779  1.00  0.00     0.048 C 
ENDBRANCH  23  28
ENDBRANCH   1  20
TORSDOF 10
ENDMDL
MODEL 3
REMARK VINA RESULT:      -9.2      1.153      1.476
REMARK  10 active torsions:
REMARK  status: ('A' for Active; 'I' for Inactive)
REMARK    1  A    between atoms: C_2  and  C_3 
REMARK    2  A    between atoms: C_3  and  C_4 
REMARK    3  A    between atoms: C_4  and  O_5 
REMARK    4  A    between atoms: O_5  and  C_6 
REMARK    5  A    between atoms: C_9  and  C_10 
REMARK       I    between atoms: C_10  and  N_11 
REMARK    6  A    between atoms: N_11  and  C_12 
REMARK    7  A    between atoms: C_12  and  N_13 
REMARK    8  A    between atoms: N_13  and  C_14 
REMARK    9  A    between atoms: C_16  and  O_17 
REMARK   10  A    between atoms: C_18  and  C_19 
ROOT
HETATM    1  N   UNL     1      43.272 -10.102   7.345  1.00  0.00    -0.333 N 
HETATM    2  H   UNL     1      42.370  -9.650   7.240  1.00  0.00     0.168 HD
ENDROOT
BRANCH   1   3
HETATM    3  C   UNL     1      43.972  -9.645   8.407  1.00  0.00     0.179 C 
HETATM    4  S   UNL     1      45.630  -9.463   8.263  1.00  0.00    -0.040 SA
BRANCH   3   5
HETATM    5  N   UNL     1      43.403  -9.361   9.608  1.00  0.00    -0.299 N 
HETATM    6  C   UNL     1      43.501 -10.094  10.789  1.00  0.00     0.257 C 
HETATM    7  O   UNL     1      43.842 -11.267  10.879  1.00  0.00    -0.267 OA
HETATM    8  H   UNL     1      43.234  -8.372   9.710  1.00  0.00     0.171 HD
BRANCH   6   9
HETATM    9  C   UNL     1      43.106  -9.363  12.033  1.00  0.00     0.032 A 
HETATM   10  C   UNL     1      43.534  -8.037  12.181  1.00  0.00     0.020 A 
HETATM   11  C   UNL     1      43.219  -7.313  13.336  1.00  0.00     0.038 A 
HETATM   12  C   UNL     1      42.456  -7.909  14.339  1.00  0.00     0.068 A 
HETATM   13  C   UNL     1      42.021  -9.225  14.199  1.00  0.00     0.038 A 
HETATM   14  C   UNL     1      42.327  -9.948  13.041  1.00  0.00     0.020 A 
BRANCH  12  15
HETATM   15  O   UNL     1      42.181  -7.290  15.525  1.00  0.00    -0.351 OA
BRANCH  15  16
HETATM   16  C   UNL     1      40.902  -7.643  16.064  1.00  0.00     0.175 C 
BRANCH  16  17
HETATM   17  C   UNL     1      41.057  -7.881  17.566  1.00  0.00     0.026 C 
BRANCH  17  18
HETATM   18  C   UNL     1      39.785  -7.517  18.336  1.00  0.00    -0.002 C 
HETATM   19  C   UNL     1      39.548  -8.461  19.505  1.00  0.00     0.005 C 
ENDBRANCH  17  18
ENDBRANCH  16  17
ENDBRANCH  15  16
ENDBRANCH  12  15
ENDBRANCH   6   9
ENDBRANCH   3   5
ENDBRANCH   1   3
BRANCH   1  20
HETATM   20  C   UNL     1      43.389 -11.330   6.651  1.00  0.00     0.036 A 
HETATM   21  C   UNL     1      42.832 -11.389   5.369  1.00  0.00     0.067 A 
HETATM   22  C   UNL     1      42.800 -12.595   4.654  1.00  0.00     0.082 A 
HETATM   23  C   UNL     1      43.325 -13.774   5.200  1.00  0.00     0.050 A 
HETATM   24  C   UNL     1      43.890 -13.695   6.485  1.00  0.00     0.021 A 
HETATM   25  C   UNL     1      43.920 -12.492   7.205  1.00  0.00     0.030 A 
BRANCH  22  26
HETATM   26  O   UNL     1      42.203 -12.604   3.420  1.00  0.00    -0.360 OA
HETATM   27  H   UNL     1      41.482 -13.254   3.407  1.00  0.00     0.217 HD
ENDBRANCH  22  26
BRANCH  23  28
HETATM   28  C   UNL     1      43.283 -15.084   4.544  1.00  0.00     0.183 A 
HETATM   29  O   UNL     1      43.688 -16.177   5.269  1.00  0.00    -0.289 OA
HETATM   30  C   UNL     1      43.566 -17.220   4.402  1.00  0.00     0.107 A 
HETATM   31  C   UNL     1      43.079 -16.721   3.207  1.00  0.00     0.093 A 
HETATM   32  C   UNL     1      43.873 -18.554   4.640  1.00  0.00     0.046 A 
HETATM   33  N   UNL     1      42.887 -15.366   3.311  1.00  0.00    -0.221 NA
HETATM   34  C   UNL     1      42.877 -17.603   2.139  1.00  0.00     0.035 A 
HETATM   35  C   UNL     1      43.178 -18.961   2.334  1.00  0.00     0.009 A 
HETATM   36  C   UNL     1      43.658 -19.439   3.568  1.00  0.00    -0.059 A 
HETATM   37  C   UNL     1      43.998 -20.896   3.720  1.00  0.00     0.048 C 
ENDBRANCH  23  28
ENDBRANCH   1  20
TORSDOF 10
ENDMDL
MODEL 4
REMARK VINA RESULT:      -8.8      1.764     13.275
REMARK  10 active torsions:
REMARK  status: ('A' for Active; 'I' for Inactive)
REMARK    1  A    between atoms: C_2  and  C_3 
REMARK    2  A    between atoms: C_3  and  C_4 
REMARK    3  A    between atoms: C_4  and  O_5 
REMARK    4  A    between atoms: O_5  and  C_6 
REMARK    5  A    between atoms: C_9  and  C_10 
REMARK       I    between atoms: C_10  and  N_11 
REMARK    6  A    between atoms: N_11  and  C_12 
REMARK    7  A    between atoms: C_12  and  N_13 
REMARK    8  A    between atoms: N_13  and  C_14 
REMARK    9  A    between atoms: C_16  and  O_17 
REMARK   10  A    between atoms: C_18  and  C_19 
ROOT
HETATM    1  N   UNL     1      43.149 -10.304  10.033  1.00  0.00    -0.333 N 
HETATM    2  H   UNL     1      43.303 -11.305  10.091  1.00  0.00     0.168 HD
ENDROOT
BRANCH   1   3
HETATM    3  C   UNL     1      42.777  -9.897   8.799  1.00  0.00     0.179 C 
HETATM    4  S   UNL     1      42.117  -8.369   8.618  1.00  0.00    -0.040 SA
BRANCH   3   5
HETATM    5  N   UNL     1      42.874 -10.683   7.694  1.00  0.00    -0.299 N 
HETATM    6  C   UNL     1      43.872 -11.609   7.396  1.00  0.00     0.257 C 
HETATM    7  O   UNL     1      44.985 -11.652   7.905  1.00  0.00    -0.267 OA
HETATM    8  H   UNL     1      41.969 -10.856   7.286  1.00  0.00     0.171 HD
BRANCH   6   9
HETATM    9  C   UNL     1      43.533 -12.595   6.324  1.00  0.00     0.032 A 
HETATM   10  C   UNL     1      43.527 -13.956   6.660  1.00  0.00     0.020 A 
HETATM   11  C   UNL     1      43.245 -14.925   5.692  1.00  0.00     0.038 A 
HETATM   12  C   UNL     1      42.947 -14.533   4.387  1.00  0.00     0.068 A 
HETATM   13  C   UNL     1      42.945 -13.184   4.045  1.00  0.00     0.038 A 
HETATM   14  C   UNL     1      43.218 -12.211   5.013  1.00  0.00     0.020 A 
BRANCH  12  15
HETATM   15  O   UNL     1      42.742 -15.429   3.375  1.00  0.00    -0.351 OA
BRANCH  15  16
HETATM   16  C   UNL     1      42.673 -16.785   3.827  1.00  0.00     0.175 C 
BRANCH  16  17
HETATM   17  C   UNL     1      43.615 -17.631   2.969  1.00  0.00     0.026 C 
BRANCH  17  18
HETATM   18  C   UNL     1      42.868 -18.745   2.230  1.00  0.00    -0.002 C 
HETATM   19  C   UNL     1      43.627 -20.062   2.288  1.00  0.00     0.005 C 
ENDBRANCH  17  18
ENDBRANCH  16  17
ENDBRANCH  15  16
ENDBRANCH  12  15
ENDBRANCH   6   9
ENDBRANCH   3   5
ENDBRANCH   1   3
BRANCH   1  20
HETATM   20  C   UNL     1      42.952  -9.675  11.285  1.00  0.00     0.036 A 
HETATM   21  C   UNL     1      41.811 -10.041  12.007  1.00  0.00     0.067 A 
HETATM   22  C   UNL     1      41.475  -9.388  13.201  1.00  0.00     0.082 A 
HETATM   23  C   UNL     1      42.271  -8.352  13.708  1.00  0.00     0.050 A 
HETATM   24  C   UNL     1      43.419  -8.002  12.976  1.00  0.00     0.021 A 
HETATM   25  C   UNL     1      43.756  -8.650  11.778  1.00  0.00     0.030 A 
BRANCH  22  26
HETATM   26  O   UNL     1      40.322  -9.759  13.843  1.00  0.00    -0.360 OA
HETATM   27  H   UNL     1      40.063 -10.652  13.564  1.00  0.00     0.217 HD
ENDBRANCH  22  26
BRANCH  23  28
HETATM   28  C   UNL     1      41.963  -7.583  14.917  1.00  0.00     0.183 A 
HETATM   29  O   UNL     1      41.609  -8.279  16.046  1.00  0.00    -0.289 OA
HETATM   30  C   UNL     1      41.360  -7.313  16.973  1.00  0.00     0.107 A 
HETATM   31  C   UNL     1      41.590  -6.086  16.376  1.00  0.00     0.093 A 
HETATM   32  C   UNL     1      40.942  -7.493  18.286  1.00  0.00     0.046 A 
HETATM   33  N   UNL     1      41.988  -6.267  15.076  1.00  0.00    -0.221 NA
HETATM   34  C   UNL     1      41.389  -4.922  17.127  1.00  0.00     0.035 A 
HETATM   35  C   UNL     1      40.963  -5.057  18.458  1.00  0.00     0.009 A 
HETATM   36  C   UNL     1      40.752  -6.321  19.040  1.00  0.00    -0.059 A 
HETATM   37  C   UNL     1      40.263  -6.415  20.459  1.00  0.00     0.048 C 
ENDBRANCH  23  28
ENDBRANCH   1  20
TORSDOF 10
ENDMDL
MODEL 5
REMARK VINA RESULT:      -8.7      2.489      3.431
REMARK  10 active torsions:
REMARK  status: ('A' for Active; 'I' for Inactive)
REMARK    1  A    between atoms: C_2  and  C_3 
REMARK    2  A    between atoms: C_3  and  C_4 
REMARK    3  A    between atoms: C_4  and  O_5 
REMARK    4  A    between atoms: O_5  and  C_6 
REMARK    5  A    between atoms: C_9  and  C_10 
REMARK       I    between atoms: C_10  and  N_11 
REMARK    6  A    between atoms: N_11  and  C_12 
REMARK    7  A    between atoms: C_12  and  N_13 
REMARK    8  A    between atoms: N_13  and  C_14 
REMARK    9  A    between atoms: C_16  and  O_17 
REMARK   10  A    between atoms: C_18  and  C_19 
ROOT
HETATM    1  N   UNL     1      40.253  -9.450   4.464  1.00  0.00    -0.333 N 
HETATM    2  H   UNL     1      39.258  -9.424   4.268  1.00  0.00     0.168 HD
ENDROOT
BRANCH   1   3
HETATM    3  C   UNL     1      40.667  -8.422   5.237  1.00  0.00     0.179 C 
HETATM    4  S   UNL     1      41.267  -7.045   4.497  1.00  0.00    -0.040 SA
BRANCH   3   5
HETATM    5  N   UNL     1      40.660  -8.463   6.596  1.00  0.00    -0.299 N 
HETATM    6  C   UNL     1      39.785  -9.169   7.420  1.00  0.00     0.257 C 
HETATM    7  O   UNL     1      38.692  -9.614   7.092  1.00  0.00    -0.267 OA
HETATM    8  H   UNL     1      41.576  -8.276   6.973  1.00  0.00     0.171 HD
BRANCH   6   9
HETATM    9  C   UNL     1      40.237  -9.343   8.835  1.00  0.00     0.032 A 
HETATM   10  C   UNL     1      41.601  -9.186   9.115  1.00  0.00     0.020 A 
HETATM   11  C   UNL     1      42.085  -9.365  10.414  1.00  0.00     0.038 A 
HETATM   12  C   UNL     1      41.201  -9.682  11.444  1.00  0.00     0.068 A 
HETATM   13  C   UNL     1      39.843  -9.836  11.178  1.00  0.00     0.038 A 
HETATM   14  C   UNL     1      39.354  -9.649   9.880  1.00  0.00     0.020 A 
BRANCH  12  15
HETATM   15  O   UNL     1      41.615  -9.950  12.718  1.00  0.00    -0.351 OA
BRANCH  15  16
HETATM   16  C   UNL     1      40.770  -9.375  13.720  1.00  0.00     0.175 C 
BRANCH  16  17
HETATM   17  C   UNL     1      41.636  -8.551  14.672  1.00  0.00     0.026 C 
BRANCH  17  18
HETATM   18  C   UNL     1      42.816  -7.896  13.948  1.00  0.00    -0.002 C 
HETATM   19  C   UNL     1      42.506  -6.461  13.554  1.00  0.00     0.005 C 
ENDBRANCH  17  18
ENDBRANCH  16  17
ENDBRANCH  15  16
ENDBRANCH  12  15
ENDBRANCH   6   9
ENDBRANCH   3   5
ENDBRANCH   1   3
BRANCH   1  20
HETATM   20  C   UNL     1      40.852 -10.714   4.251  1.00  0.00     0.036 A 
HETATM   21  C   UNL     1      39.995 -11.782   3.963  1.00  0.00     0.067 A 
HETATM   22  C   UNL     1      40.489 -13.090   3.850  1.00  0.00     0.082 A 
HETATM   23  C   UNL     1      41.852 -13.367   4.022  1.00  0.00     0.050 A 
HETATM   24  C   UNL     1      42.701 -12.282   4.301  1.00  0.00     0.021 A 
HETATM   25  C   UNL     1      42.210 -10.973   4.419  1.00  0.00     0.030 A 
BRANCH  22  26
HETATM   26  O   UNL     1      39.597 -14.103   3.609  1.00  0.00    -0.360 OA
HETATM   27  H   UNL     1      38.758 -13.918   4.061  1.00  0.00     0.217 HD
ENDBRANCH  22  26
BRANCH  23  28
HETATM   28  C   UNL     1      42.439 -14.708   3.975  1.00  0.00     0.183 A 
HETATM   29  O   UNL     1      42.153 -15.495   2.886  1.00  0.00    -0.289 OA
HETATM   30  C   UNL     1      42.803 -16.666   3.137  1.00  0.00     0.107 A 
HETATM   31  C   UNL     1      43.463 -16.532   4.345  1.00  0.00     0.093 A 
HETATM   32  C   UNL     1      42.814 -17.809   2.347  1.00  0.00     0.046 A 
HETATM   33  N   UNL     1      43.240 -15.280   4.862  1.00  0.00    -0.221 NA
HETATM   34  C   UNL     1      44.201 -17.615   4.835  1.00  0.00     0.035 A 
HETATM   35  C   UNL     1      44.237 -18.793   4.071  1.00  0.00     0.009 A 
HETATM   36  C   UNL     1      43.566 -18.892   2.838  1.00  0.00    -0.059 A 
HETATM   37  C   UNL     1      43.606 -20.184   2.071  1.00  0.00     0.048 C 
ENDBRANCH  23  28
ENDBRANCH   1  20
TORSDOF 10
ENDMDL
MODEL 6
REMARK VINA RESULT:      -8.6      1.817     12.689
REMARK  10 active torsions:
REMARK  status: ('A' for Active; 'I' for Inactive)
REMARK    1  A    between atoms: C_2  and  C_3 
REMARK    2  A    between atoms: C_3  and  C_4 
REMARK    3  A    between atoms: C_4  and  O_5 
REMARK    4  A    between atoms: O_5  and  C_6 
REMARK    5  A    between atoms: C_9  and  C_10 
REMARK       I    between atoms: C_10  and  N_11 
REMARK    6  A    between atoms: N_11  and  C_12 
REMARK    7  A    between atoms: C_12  and  N_13 
REMARK    8  A    between atoms: N_13  and  C_14 
REMARK    9  A    between atoms: C_16  and  O_17 
REMARK   10  A    between atoms: C_18  and  C_19 
ROOT
HETATM    1  N   UNL     1      43.738  -9.491   8.080  1.00  0.00    -0.333 N 
HETATM    2  H   UNL     1      43.612  -8.838   7.315  1.00  0.00     0.168 HD
ENDROOT
BRANCH   1   3
HETATM    3  C   UNL     1      44.636 -10.463   7.803  1.00  0.00     0.179 C 
HETATM    4  S   UNL     1      46.268 -10.119   7.944  1.00  0.00    -0.040 SA
BRANCH   3   5
HETATM    5  N   UNL     1      44.282 -11.703   7.373  1.00  0.00    -0.299 N 
HETATM    6  C   UNL     1      43.199 -12.046   6.566  1.00  0.00     0.257 C 
HETATM    7  O   UNL     1      42.208 -11.355   6.365  1.00  0.00    -0.267 OA
HETATM    8  H   UNL     1      45.079 -12.319   7.336  1.00  0.00     0.171 HD
BRANCH   6   9
HETATM    9  C   UNL     1      43.269 -13.402   5.940  1.00  0.00     0.032 A 
HETATM   10  C   UNL     1      42.881 -13.529   4.599  1.00  0.00     0.020 A 
HETATM   11  C   UNL     1      42.899 -14.777   3.969  1.00  0.00     0.038 A 
HETATM   12  C   UNL     1      43.325 -15.901   4.674  1.00  0.00     0.068 A 
HETATM   13  C   UNL     1      43.718 -15.786   6.005  1.00  0.00     0.038 A 
HETATM   14  C   UNL     1      43.710 -14.537   6.635  1.00  0.00     0.020 A 
BRANCH  12  15
HETATM   15  O   UNL     1      43.291 -17.162   4.147  1.00  0.00    -0.351 OA
BRANCH  15  16
HETATM   16  C   UNL     1      42.576 -17.237   2.909  1.00  0.00     0.175 C 
BRANCH  16  17
HETATM   17  C   UNL     1      42.964 -18.535   2.202  1.00  0.00     0.026 C 
BRANCH  17  18
HETATM   18  C   UNL     1      44.093 -19.268   2.932  1.00  0.00    -0.002 C 
HETATM   19  C   UNL     1      43.715 -20.707   3.247  1.00  0.00     0.005 C 
ENDBRANCH  17  18
ENDBRANCH  16  17
ENDBRANCH  15  16
ENDBRANCH  12  15
ENDBRANCH   6   9
ENDBRANCH   3   5
ENDBRANCH   1   3
BRANCH   1  20
HETATM   20  C   UNL     1      43.292  -9.010   9.333  1.00  0.00     0.036 A 
HETATM   21  C   UNL     1      42.929  -9.967  10.288  1.00  0.00     0.067 A 
HETATM   22  C   UNL     1      42.369  -9.583  11.514  1.00  0.00     0.082 A 
HETATM   23  C   UNL     1      42.158  -8.232  11.822  1.00  0.00     0.050 A 
HETATM   24  C   UNL     1      42.536  -7.283  10.857  1.00  0.00     0.021 A 
HETATM   25  C   UNL     1      43.093  -7.663   9.627  1.00  0.00     0.030 A 
BRANCH  22  26
HETATM   26  O   UNL     1      41.993 -10.565  12.393  1.00  0.00    -0.360 OA
HETATM   27  H   UNL     1      41.918 -10.196  13.288  1.00  0.00     0.217 HD
ENDBRANCH  22  26
BRANCH  23  28
HETATM   28  C   UNL     1      41.529  -7.750  13.055  1.00  0.00     0.183 A 
HETATM   29  O   UNL     1      41.953  -8.291  14.244  1.00  0.00    -0.289 OA
HETATM   30  C   UNL     1      41.182  -7.679  15.185  1.00  0.00     0.107 A 
HETATM   31  C   UNL     1      40.347  -6.789  14.534  1.00  0.00     0.093 A 
HETATM   32  C   UNL     1      41.202  -7.892  16.559  1.00  0.00     0.046 A 
HETATM   33  N   UNL     1      40.586  -6.828  13.184  1.00  0.00    -0.221 NA
HETATM   34  C   UNL     1      39.439  -6.039  15.290  1.00  0.00     0.035 A 
HETATM   35  C   UNL     1      39.422  -6.225  16.682  1.00  0.00     0.009 A 
HETATM   36  C   UNL     1      40.295  -7.129  17.316  1.00  0.00    -0.059 A 
HETATM   37  C   UNL     1      40.217  -7.319  18.805  1.00  0.00     0.048 C 
ENDBRANCH  23  28
ENDBRANCH   1  20
TORSDOF 10
ENDMDL
MODEL 7
REMARK VINA RESULT:      -8.5      2.664     13.044
REMARK  10 active torsions:
REMARK  status: ('A' for Active; 'I' for Inactive)
REMARK    1  A    between atoms: C_2  and  C_3 
REMARK    2  A    between atoms: C_3  and  C_4 
REMARK    3  A    between atoms: C_4  and  O_5 
REMARK    4  A    between atoms: O_5  and  C_6 
REMARK    5  A    between atoms: C_9  and  C_10 
REMARK       I    between atoms: C_10  and  N_11 
REMARK    6  A    between atoms: N_11  and  C_12 
REMARK    7  A    between atoms: C_12  and  N_13 
REMARK    8  A    between atoms: N_13  and  C_14 
REMARK    9  A    between atoms: C_16  and  O_17 
REMARK   10  A    between atoms: C_18  and  C_19 
ROOT
HETATM    1  N   UNL     1      43.406 -10.535  10.223  1.00  0.00    -0.333 N 
HETATM    2  H   UNL     1      43.436 -11.529  10.420  1.00  0.00     0.168 HD
ENDROOT
BRANCH   1   3
HETATM    3  C   UNL     1      43.721 -10.239   8.942  1.00  0.00     0.179 C 
HETATM    4  S   UNL     1      44.381  -8.739   8.598  1.00  0.00    -0.040 SA
BRANCH   3   5
HETATM    5  N   UNL     1      43.491 -11.086   7.905  1.00  0.00    -0.299 N 
HETATM    6  C   UNL     1      44.435 -11.785   7.154  1.00  0.00     0.257 C 
HETATM    7  O   UNL     1      45.629 -11.524   7.081  1.00  0.00    -0.267 OA
HETATM    8  H   UNL     1      42.574 -11.500   7.964  1.00  0.00     0.171 HD
BRANCH   6   9
HETATM    9  C   UNL     1      43.898 -12.922   6.345  1.00  0.00     0.032 A 
HETATM   10  C   UNL     1      43.336 -12.633   5.094  1.00  0.00     0.020 A 
HETATM   11  C   UNL     1      42.792 -13.653   4.307  1.00  0.00     0.038 A 
HETATM   12  C   UNL     1      42.828 -14.971   4.760  1.00  0.00     0.068 A 
HETATM   13  C   UNL     1      43.388 -15.269   5.999  1.00  0.00     0.038 A 
HETATM   14  C   UNL     1      43.941 -14.253   6.785  1.00  0.00     0.020 A 
BRANCH  12  15
HETATM   15  O   UNL     1      42.244 -16.003   4.080  1.00  0.00    -0.351 OA
BRANCH  15  16
HETATM   16  C   UNL     1      42.958 -17.237   4.206  1.00  0.00     0.175 C 
BRANCH  16  17
HETATM   17  C   UNL     1      43.574 -17.581   2.849  1.00  0.00     0.026 C 
BRANCH  17  18
HETATM   18  C   UNL     1      42.866 -18.765   2.184  1.00  0.00    -0.002 C 
HETATM   19  C   UNL     1      43.586 -20.075   2.461  1.00  0.00     0.005 C 
ENDBRANCH  17  18
ENDBRANCH  16  17
ENDBRANCH  15  16
ENDBRANCH  12  15
ENDBRANCH   6   9
ENDBRANCH   3   5
ENDBRANCH   1   3
BRANCH   1  20
HETATM   20  C   UNL     1      42.668  -9.779  11.165  1.00  0.00     0.036 A 
HETATM   21  C   UNL     1      41.279  -9.736  10.995  1.00  0.00     0.067 A 
HETATM   22  C   UNL     1      40.480  -8.921  11.810  1.00  0.00     0.082 A 
HETATM   23  C   UNL     1      41.046  -8.128  12.817  1.00  0.00     0.050 A 
HETATM   24  C   UNL     1      42.441  -8.190  12.981  1.00  0.00     0.021 A 
HETATM   25  C   UNL     1      43.244  -9.000  12.165  1.00  0.00     0.030 A 
BRANCH  22  26
HETATM   26  O   UNL     1      39.131  -8.887  11.571  1.00  0.00    -0.360 OA
HETATM   27  H   UNL     1      38.647  -9.154  12.369  1.00  0.00     0.217 HD
ENDBRANCH  22  26
BRANCH  23  28
HETATM   28  C   UNL     1      40.291  -7.211  13.674  1.00  0.00     0.183 A 
HETATM   29  O   UNL     1      39.236  -6.533  13.114  1.00  0.00    -0.289 OA
HETATM   30  C   UNL     1      38.761  -5.755  14.126  1.00  0.00     0.107 A 
HETATM   31  C   UNL     1      39.529  -6.007  15.249  1.00  0.00     0.093 A 
HETATM   32  C   UNL     1      37.703  -4.855  14.071  1.00  0.00     0.046 A 
HETATM   33  N   UNL     1      40.487  -6.944  14.958  1.00  0.00    -0.221 NA
HETATM   34  C   UNL     1      39.245  -5.312  16.430  1.00  0.00     0.035 A 
HETATM   35  C   UNL     1      38.186  -4.390  16.419  1.00  0.00     0.009 A 
HETATM   36  C   UNL     1      37.414  -4.168  15.264  1.00  0.00    -0.059 A 
HETATM   37  C   UNL     1      36.311  -3.146  15.290  1.00  0.00     0.048 C 
ENDBRANCH  23  28
ENDBRANCH   1  20
TORSDOF 10
ENDMDL
MODEL 8
REMARK VINA RESULT:      -8.3      5.787      9.984
REMARK  10 active torsions:
REMARK  status: ('A' for Active; 'I' for Inactive)
REMARK    1  A    between atoms: C_2  and  C_3 
REMARK    2  A    between atoms: C_3  and  C_4 
REMARK    3  A    between atoms: C_4  and  O_5 
REMARK    4  A    between atoms: O_5  and  C_6 
REMARK    5  A    between atoms: C_9  and  C_10 
REMARK       I    between atoms: C_10  and  N_11 
REMARK    6  A    between atoms: N_11  and  C_12 
REMARK    7  A    between atoms: C_12  and  N_13 
REMARK    8  A    between atoms: N_13  and  C_14 
REMARK    9  A    between atoms: C_16  and  O_17 
REMARK   10  A    between atoms: C_18  and  C_19 
ROOT
HETATM    1  N   UNL     1      43.763 -10.882   5.684  1.00  0.00    -0.333 N 
HETATM    2  H   UNL     1      43.898  -9.883   5.798  1.00  0.00     0.168 HD
ENDROOT
BRANCH   1   3
HETATM    3  C   UNL     1      43.880 -11.567   6.844  1.00  0.00     0.179 C 
HETATM    4  S   UNL     1      44.253 -10.728   8.244  1.00  0.00    -0.040 SA
BRANCH   3   5
HETATM    5  N   UNL     1      43.750 -12.917   6.926  1.00  0.00    -0.299 N 
HETATM    6  C   UNL     1      42.633 -13.685   6.600  1.00  0.00     0.257 C 
HETATM    7  O   UNL     1      41.486 -13.270   6.489  1.00  0.00    -0.267 OA
HETATM    8  H   UNL     1      44.644 -13.377   6.853  1.00  0.00     0.171 HD
BRANCH   6   9
HETATM    9  C   UNL     1      42.890 -15.146   6.419  1.00  0.00     0.032 A 
HETATM   10  C   UNL     1      42.646 -15.707   5.158  1.00  0.00     0.020 A 
HETATM   11  C   UNL     1      42.840 -17.074   4.938  1.00  0.00     0.038 A 
HETATM   12  C   UNL     1      43.301 -17.883   5.975  1.00  0.00     0.068 A 
HETATM   13  C   UNL     1      43.552 -17.336   7.231  1.00  0.00     0.038 A 
HETATM   14  C   UNL     1      43.366 -15.967   7.452  1.00  0.00     0.020 A 
BRANCH  12  15
HETATM   15  O   UNL     1      43.436 -19.237   5.853  1.00  0.00    -0.351 OA
BRANCH  15  16
HETATM   16  C   UNL     1      44.493 -19.622   4.968  1.00  0.00     0.175 C 
BRANCH  16  17
HETATM   17  C   UNL     1      43.897 -20.460   3.836  1.00  0.00     0.026 C 
BRANCH  17  18
HETATM   18  C   UNL     1      43.608 -19.617   2.592  1.00  0.00    -0.002 C 
HETATM   19  C   UNL     1      43.427 -20.486   1.357  1.00  0.00     0.005 C 
ENDBRANCH  17  18
ENDBRANCH  16  17
ENDBRANCH  15  16
ENDBRANCH  12  15
ENDBRANCH   6   9
ENDBRANCH   3   5
ENDBRANCH   1   3
BRANCH   1  20
HETATM   20  C   UNL     1      43.101 -11.245   4.488  1.00  0.00     0.036 A 
HETATM   21  C   UNL     1      41.817 -10.722   4.290  1.00  0.00     0.067 A 
HETATM   22  C   UNL     1      41.042 -11.118   3.191  1.00  0.00     0.082 A 
HETATM   23  C   UNL     1      41.528 -12.045   2.259  1.00  0.00     0.050 A 
HETATM   24  C   UNL     1      42.822 -12.553   2.466  1.00  0.00     0.021 A 
HETATM   25  C   UNL     1      43.599 -12.163   3.567  1.00  0.00     0.030 A 
BRANCH  22  26
HETATM   26  O   UNL     1      39.776 -10.607   3.071  1.00  0.00    -0.360 OA
HETATM   27  H   UNL     1      39.197 -11.256   2.640  1.00  0.00     0.217 HD
ENDBRANCH  22  26
BRANCH  23  28
HETATM   28  C   UNL     1      40.763 -12.551   1.115  1.00  0.00     0.183 A 
HETATM   29  O   UNL     1      39.736 -11.774   0.637  1.00  0.00    -0.289 OA
HETATM   30  C   UNL     1      39.208 -12.506  -0.383  1.00  0.00     0.107 A 
HETATM   31  C   UNL     1      39.943 -13.673  -0.490  1.00  0.00     0.093 A 
HETATM   32  C   UNL     1      38.124 -12.173  -1.186  1.00  0.00     0.046 A 
HETATM   33  N   UNL     1      40.938 -13.686   0.454  1.00  0.00    -0.221 NA
HETATM   34  C   UNL     1      39.585 -14.609  -1.468  1.00  0.00     0.035 A 
HETATM   35  C   UNL     1      38.493 -14.314  -2.299  1.00  0.00     0.009 A 
HETATM   36  C   UNL     1      37.775 -13.110  -2.174  1.00  0.00    -0.059 A 
HETATM   37  C   UNL     1      36.591 -12.854  -3.065  1.00  0.00     0.048 C 
ENDBRANCH  23  28
ENDBRANCH   1  20
TORSDOF 10
ENDMDL
MODEL 9
REMARK VINA RESULT:      -8.2      3.828      4.907
REMARK  10 active torsions:
REMARK  status: ('A' for Active; 'I' for Inactive)
REMARK    1  A    between atoms: C_2  and  C_3 
REMARK    2  A    between atoms: C_3  and  C_4 
REMARK    3  A    between atoms: C_4  and  O_5 
REMARK    4  A    between atoms: O_5  and  C_6 
REMARK    5  A    between atoms: C_9  and  C_10 
REMARK       I    between atoms: C_10  and  N_11 
REMARK    6  A    between atoms: N_11  and  C_12 
REMARK    7  A    between atoms: C_12  and  N_13 
REMARK    8  A    between atoms: N_13  and  C_14 
REMARK    9  A    between atoms: C_16  and  O_17 
REMARK   10  A    between atoms: C_18  and  C_19 
ROOT
HETATM    1  N   UNL     1      43.516 -12.175   7.388  1.00  0.00    -0.333 N 
HETATM    2  H   UNL     1      43.610 -13.048   7.894  1.00  0.00     0.168 HD
ENDROOT
BRANCH   1   3
HETATM    3  C   UNL     1      44.144 -11.142   7.994  1.00  0.00     0.179 C 
HETATM    4  S   UNL     1      45.738 -10.820   7.596  1.00  0.00    -0.040 SA
BRANCH   3   5
HETATM    5  N   UNL     1      43.558 -10.370   8.946  1.00  0.00    -0.299 N 
HETATM    6  C   UNL     1      43.905 -10.270  10.292  1.00  0.00     0.257 C 
HETATM    7  O   UNL     1      44.576 -11.079  10.921  1.00  0.00    -0.267 OA
HETATM    8  H   UNL     1      43.112  -9.562   8.539  1.00  0.00     0.171 HD
BRANCH   6   9
HETATM    9  C   UNL     1      43.357  -9.079  11.010  1.00  0.00     0.032 A 
HETATM   10  C   UNL     1      43.039  -7.942  10.253  1.00  0.00     0.020 A 
HETATM   11  C   UNL     1      42.551  -6.789  10.874  1.00  0.00     0.038 A 
HETATM   12  C   UNL     1      42.357  -6.775  12.255  1.00  0.00     0.068 A 
HETATM   13  C   UNL     1      42.665  -7.900  13.015  1.00  0.00     0.038 A 
HETATM   14  C   UNL     1      43.146  -9.059  12.396  1.00  0.00     0.020 A 
BRANCH  12  15
HETATM   15  O   UNL     1      41.961  -5.659  12.935  1.00  0.00    -0.351 OA
BRANCH  15  16
HETATM   16  C   UNL     1      40.763  -5.855  13.694  1.00  0.00     0.175 C 
BRANCH  16  17
HETATM   17  C   UNL     1      39.563  -5.598  12.783  1.00  0.00     0.026 C 
BRANCH  17  18
HETATM   18  C   UNL     1      38.576  -6.769  12.792  1.00  0.00    -0.002 C 
HETATM   19  C   UNL     1      38.989  -7.857  11.813  1.00  0.00     0.005 C 
ENDBRANCH  17  18
ENDBRANCH  16  17
ENDBRANCH  15  16
ENDBRANCH  12  15
ENDBRANCH   6   9
ENDBRANCH   3   5
ENDBRANCH   1   3
BRANCH   1  20
HETATM   20  C   UNL     1      43.138 -12.327   6.033  1.00  0.00     0.036 A 
HETATM   21  C   UNL     1      42.900 -11.156   5.306  1.00  0.00     0.067 A 
HETATM   22  C   UNL     1      42.411 -11.212   3.993  1.00  0.00     0.082 A 
HETATM   23  C   UNL     1      42.148 -12.439   3.370  1.00  0.00     0.050 A 
HETATM   24  C   UNL     1      42.401 -13.607   4.111  1.00  0.00     0.021 A 
HETATM   25  C   UNL     1      42.885 -13.555   5.426  1.00  0.00     0.030 A 
BRANCH  22  26
HETATM   26  O   UNL     1      42.156 -10.032   3.344  1.00  0.00    -0.360 OA
HETATM   27  H   UNL     1      41.307 -10.089   2.877  1.00  0.00     0.217 HD
ENDBRANCH  22  26
BRANCH  23  28
HETATM   28  C   UNL     1      41.586 -12.584   2.024  1.00  0.00     0.183 A 
HETATM   29  O   UNL     1      40.917 -13.747   1.731  1.00  0.00    -0.289 OA
HETATM   30  C   UNL     1      40.545 -13.601   0.429  1.00  0.00     0.107 A 
HETATM   31  C   UNL     1      40.984 -12.361  -0.000  1.00  0.00     0.093 A 
HETATM   32  C   UNL     1      39.856 -14.517  -0.358  1.00  0.00     0.046 A 
HETATM   33  N   UNL     1      41.629 -11.715   1.024  1.00  0.00    -0.221 NA
HETATM   34  C   UNL     1      40.734 -11.977  -1.322  1.00  0.00     0.035 A 
HETATM   35  C   UNL     1      40.043 -12.873  -2.154  1.00  0.00     0.009 A 
HETATM   36  C   UNL     1      39.597 -14.122  -1.683  1.00  0.00    -0.059 A 
HETATM   37  C   UNL     1      38.891 -15.062  -2.619  1.00  0.00     0.048 C 
ENDBRANCH  23  28
ENDBRANCH   1  20
TORSDOF 10
ENDMDL
MODEL 10
REMARK VINA RESULT:      -8.1      3.323      5.185
REMARK  10 active torsions:
REMARK  status: ('A' for Active; 'I' for Inactive)
REMARK    1  A    between atoms: C_2  and  C_3 
REMARK    2  A    between atoms: C_3  and  C_4 
REMARK    3  A    between atoms: C_4  and  O_5 
REMARK    4  A    between atoms: O_5  and  C_6 
REMARK    5  A    between atoms: C_9  and  C_10 
REMARK       I    between atoms: C_10  and  N_11 
REMARK    6  A    between atoms: N_11  and  C_12 
REMARK    7  A    between atoms: C_12  and  N_13 
REMARK    8  A    between atoms: N_13  and  C_14 
REMARK    9  A    between atoms: C_16  and  O_17 
REMARK   10  A    between atoms: C_18  and  C_19 
ROOT
HETATM    1  N   UNL     1      39.100  -9.954   2.332  1.00  0.00    -0.333 N 
HETATM    2  H   UNL     1      38.323  -9.999   1.682  1.00  0.00     0.168 HD
ENDROOT
BRANCH   1   3
HETATM    3  C   UNL     1      38.987  -8.945   3.224  1.00  0.00     0.179 C 
HETATM    4  S   UNL     1      37.921  -7.696   2.899  1.00  0.00    -0.040 SA
BRANCH   3   5
HETATM    5  N   UNL     1      39.727  -8.871   4.361  1.00  0.00    -0.299 N 
HETATM    6  C   UNL     1      39.381  -9.327   5.632  1.00  0.00     0.257 C 
HETATM    7  O   UNL     1      38.247  -9.581   6.018  1.00  0.00    -0.267 OA
HETATM    8  H   UNL     1      40.713  -8.830   4.155  1.00  0.00     0.171 HD
BRANCH   6   9
HETATM    9  C   UNL     1      40.516  -9.465   6.595  1.00  0.00     0.032 A 
HETATM   10  C   UNL     1      41.728  -9.979   6.115  1.00  0.00     0.020 A 
HETATM   11  C   UNL     1      42.815 -10.158   6.976  1.00  0.00     0.038 A 
HETATM   12  C   UNL     1      42.699  -9.803   8.319  1.00  0.00     0.068 A 
HETATM   13  C   UNL     1      41.501  -9.287   8.806  1.00  0.00     0.038 A 
HETATM   14  C   UNL     1      40.414  -9.099   7.945  1.00  0.00     0.020 A 
BRANCH  12  15
HETATM   15  O   UNL     1      43.692 -10.026   9.231  1.00  0.00    -0.351 OA
BRANCH  15  16
HETATM   16  C   UNL     1      44.088  -8.844   9.935  1.00  0.00     0.175 C 
BRANCH  16  17
HETATM   17  C   UNL     1      44.022  -9.127  11.436  1.00  0.00     0.026 C 
BRANCH  17  18
HETATM   18  C   UNL     1      43.212  -8.063  12.182  1.00  0.00    -0.002 C 
HETATM   19  C   UNL     1      42.552  -8.633  13.428  1.00  0.00     0.005 C 
ENDBRANCH  17  18
ENDBRANCH  16  17
ENDBRANCH  15  16
ENDBRANCH  12  15
ENDBRANCH   6   9
ENDBRANCH   3   5
ENDBRANCH   1   3
BRANCH   1  20
HETATM   20  C   UNL     1      39.855 -11.149   2.415  1.00  0.00     0.036 A 
HETATM   21  C   UNL     1      39.141 -12.352   2.400  1.00  0.00     0.067 A 
HETATM   22  C   UNL     1      39.794 -13.578   2.593  1.00  0.00     0.082 A 
HETATM   23  C   UNL     1      41.178 -13.635   2.806  1.00  0.00     0.050 A 
HETATM   24  C   UNL     1      41.882 -12.418   2.809  1.00  0.00     0.021 A 
HETATM   25  C   UNL     1      41.231 -11.190   2.621  1.00  0.00     0.030 A 
BRANCH  22  26
HETATM   26  O   UNL     1      39.038 -14.721   2.611  1.00  0.00    -0.360 OA
HETATM   27  H   UNL     1      38.119 -14.505   2.837  1.00  0.00     0.217 HD
ENDBRANCH  22  26
BRANCH  23  28
HETATM   28  C   UNL     1      41.927 -14.866   3.069  1.00  0.00     0.183 A 
HETATM   29  O   UNL     1      41.793 -15.901   2.177  1.00  0.00    -0.289 OA
HETATM   30  C   UNL     1      42.569 -16.894   2.695  1.00  0.00     0.107 A 
HETATM   31  C   UNL     1      43.149 -16.415   3.856  1.00  0.00     0.093 A 
HETATM   32  C   UNL     1      42.759 -18.171   2.178  1.00  0.00     0.046 A 
HETATM   33  N   UNL     1      42.749 -15.122   4.077  1.00  0.00    -0.221 NA
HETATM   34  C   UNL     1      43.990 -17.261   4.588  1.00  0.00     0.035 A 
HETATM   35  C   UNL     1      44.207 -18.561   4.105  1.00  0.00     0.009 A 
HETATM   36  C   UNL     1      43.614 -19.013   2.911  1.00  0.00    -0.059 A 
HETATM   37  C   UNL     1      43.849 -20.425   2.451  1.00  0.00     0.048 C 
ENDBRANCH  23  28
ENDBRANCH   1  20
TORSDOF 10
ENDMDL
