MODEL 1
REMARK VINA RESULT:      -9.0      0.000      0.000
REMARK  3 active torsions:
REMARK  status: ('A' for Active; 'I' for Inactive)
REMARK    1  A    between atoms: C_12  and  C_13 
REMARK    2  A    between atoms: C_13  and  N_14 
REMARK       I    between atoms: N_14  and  C_15 
REMARK    3  A    between atoms: C_15  and  C_16 
ROOT
HETATM    1  N   UNL     1      41.186 -14.882   4.217  1.00  0.00    -0.352 N 
HETATM    2  C   UNL     1      42.504 -14.937   4.592  1.00  0.00     0.254 C 
HETATM    3  O   UNL     1      43.207 -13.931   4.656  1.00  0.00    -0.268 OA
HETATM    4  H   UNL     1      40.667 -15.745   4.141  1.00  0.00     0.163 HD
ENDROOT
BRANCH   1   5
HETATM    5  C   UNL     1      40.540 -13.667   3.785  1.00  0.00     0.165 C 
BRANCH   5   6
HETATM    6  C   UNL     1      40.711 -13.451   2.309  1.00  0.00     0.008 C 
HETATM    7  C   UNL     1      41.271 -12.115   1.807  1.00  0.00     0.043 C 
HETATM    8  C   UNL     1      41.857 -11.148   2.816  1.00  0.00     0.071 C 
HETATM    9  N   UNL     1      41.323 -11.723   0.564  1.00  0.00    -0.234 NA
HETATM   10  C   UNL     1      40.832 -12.636  -0.322  1.00  0.00     0.154 C 
HETATM   11  C   UNL     1      40.639 -12.382  -1.623  1.00  0.00     0.128 C 
HETATM   12  N   UNL     1      40.433 -13.918   0.004  1.00  0.00    -0.239 N 
HETATM   13  C   UNL     1      40.079 -13.635  -2.167  1.00  0.00     0.263 C 
HETATM   14  N   UNL     1      39.845 -14.489  -1.102  1.00  0.00    -0.258 N 
HETATM   15  O   UNL     1      39.906 -13.869  -3.350  1.00  0.00    -0.267 OA
HETATM   16  H   UNL     1      39.873 -15.488  -1.248  1.00  0.00     0.191 HD
HETATM   17  C   UNL     1      40.305 -14.302   1.329  1.00  0.00     0.042 C 
HETATM   18  C   UNL     1      39.703 -15.662   1.580  1.00  0.00     0.071 C 
ENDBRANCH   5   6
ENDBRANCH   1   5
BRANCH   2  19
HETATM   19  C   UNL     1      43.032 -16.270   4.907  1.00  0.00     0.062 A 
HETATM   20  C   UNL     1      43.244 -17.445   4.098  1.00  0.00     0.046 A 
HETATM   21  C   UNL     1      43.794 -18.433   4.926  1.00  0.00     0.046 A 
HETATM   22  C   UNL     1      43.044 -17.796   2.743  1.00  0.00     0.130 A 
HETATM   23  C   UNL     1      44.138 -19.714   4.469  1.00  0.00     0.030 A 
HETATM   24  N   UNL     1      43.909 -17.894   6.184  1.00  0.00    -0.364 N 
HETATM   25  C   UNL     1      43.921 -20.013   3.122  1.00  0.00     0.005 A 
HETATM   26  C   UNL     1      43.377 -19.064   2.264  1.00  0.00     0.043 A 
HETATM   27  H   UNL     1      44.277 -18.382   6.990  1.00  0.00     0.165 HD
HETATM   28  C   UNL     1      43.462 -16.605   6.182  1.00  0.00     0.106 A 
HETATM   29  F   UNL     1      42.525 -16.912   1.877  1.00  0.00    -0.205 F 
ENDBRANCH   2  19
TORSDOF 3
ENDMDL
MODEL 2
REMARK VINA RESULT:      -8.7      4.528      7.777
REMARK  3 active torsions:
REMARK  status: ('A' for Active; 'I' for Inactive)
REMARK    1  A    between atoms: C_12  and  C_13 
REMARK    2  A    between atoms: C_13  and  N_14 
REMARK       I    between atoms: N_14  and  C_15 
REMARK    3  A    between atoms: C_15  and  C_16 
ROOT
HETATM    1  N   UNL     1      43.017 -13.149   5.763  1.00  0.00    -0.352 N 
HETATM    2  C   UNL     1      43.670 -12.050   5.268  1.00  0.00     0.254 C 
HETATM    3  O   UNL     1      43.534 -11.679   4.104  1.00  0.00    -0.268 OA
HETATM    4  H   UNL     1      43.199 -13.433   6.715  1.00  0.00     0.163 HD
ENDROOT
BRANCH   1   5
HETATM    5  C   UNL     1      42.190 -14.006   4.951  1.00  0.00     0.165 C 
BRANCH   5   6
HETATM    6  C   UNL     1      42.852 -15.331   4.705  1.00  0.00     0.008 C 
HETATM    7  C   UNL     1      43.230 -15.725   3.272  1.00  0.00     0.043 C 
HETATM    8  C   UNL     1      43.144 -14.674   2.184  1.00  0.00     0.071 C 
HETATM    9  N   UNL     1      43.655 -16.896   2.885  1.00  0.00    -0.234 NA
HETATM   10  C   UNL     1      43.766 -17.803   3.896  1.00  0.00     0.154 C 
HETATM   11  C   UNL     1      44.027 -19.103   3.705  1.00  0.00     0.128 C 
HETATM   12  N   UNL     1      43.587 -17.519   5.236  1.00  0.00    -0.239 N 
HETATM   13  C   UNL     1      44.027 -19.685   5.062  1.00  0.00     0.263 C 
HETATM   14  N   UNL     1      43.615 -18.700   5.943  1.00  0.00    -0.258 N 
HETATM   15  O   UNL     1      44.376 -20.819   5.337  1.00  0.00    -0.267 OA
HETATM   16  H   UNL     1      43.929 -18.725   6.903  1.00  0.00     0.191 HD
HETATM   17  C   UNL     1      43.060 -16.301   5.635  1.00  0.00     0.042 C 
HETATM   18  C   UNL     1      42.745 -16.152   7.103  1.00  0.00     0.071 C 
ENDBRANCH   5   6
ENDBRANCH   1   5
BRANCH   2  19
HETATM   19  C   UNL     1      44.551 -11.343   6.206  1.00  0.00     0.062 A 
HETATM   20  C   UNL     1      44.280 -10.485   7.333  1.00  0.00     0.046 A 
HETATM   21  C   UNL     1      45.512 -10.103   7.878  1.00  0.00     0.046 A 
HETATM   22  C   UNL     1      43.123  -9.986   7.974  1.00  0.00     0.130 A 
HETATM   23  C   UNL     1      45.630  -9.268   8.999  1.00  0.00     0.030 A 
HETATM   24  N   UNL     1      46.495 -10.692   7.119  1.00  0.00    -0.364 N 
HETATM   25  C   UNL     1      44.459  -8.799   9.597  1.00  0.00     0.005 A 
HETATM   26  C   UNL     1      43.214  -9.153   9.091  1.00  0.00     0.043 A 
HETATM   27  H   UNL     1      47.488 -10.591   7.282  1.00  0.00     0.165 HD
HETATM   28  C   UNL     1      45.933 -11.437   6.125  1.00  0.00     0.106 A 
HETATM   29  F   UNL     1      41.900 -10.302   7.523  1.00  0.00    -0.205 F 
ENDBRANCH   2  19
TORSDOF 3
ENDMDL
MODEL 3
REMARK VINA RESULT:      -8.4      4.965      7.656
REMARK  3 active torsions:
REMARK  status: ('A' for Active; 'I' for Inactive)
REMARK    1  A    between atoms: C_12  and  C_13 
REMARK    2  A    between atoms: C_13  and  N_14 
REMARK       I    between atoms: N_14  and  C_15 
REMARK    3  A    between atoms: C_15  and  C_16 
ROOT
HETATM    1  N   UNL     1      43.066 -12.044   5.266  1.00  0.00    -0.352 N 
HETATM    2  C   UNL     1      41.898 -12.762   5.262  1.00  0.00     0.254 C 
HETATM    3  O   UNL     1      40.806 -12.232   5.460  1.00  0.00    -0.268 OA
HETATM    4  H   UNL     1      43.938 -12.538   5.140  1.00  0.00     0.163 HD
ENDROOT
BRANCH   1   5
HETATM    5  C   UNL     1      43.128 -10.639   5.585  1.00  0.00     0.165 C 
BRANCH   5   6
HETATM    6  C   UNL     1      43.390 -10.421   7.047  1.00  0.00     0.008 C 
HETATM    7  C   UNL     1      44.738 -10.848   7.638  1.00  0.00     0.043 C 
HETATM    8  C   UNL     1      45.850 -11.255   6.691  1.00  0.00     0.071 C 
HETATM    9  N   UNL     1      45.048 -10.874   8.905  1.00  0.00    -0.234 NA
HETATM   10  C   UNL     1      44.042 -10.457   9.725  1.00  0.00     0.154 C 
HETATM   11  C   UNL     1      44.082 -10.553  11.061  1.00  0.00     0.128 C 
HETATM   12  N   UNL     1      42.842  -9.922   9.296  1.00  0.00    -0.239 N 
HETATM   13  C   UNL     1      42.785 -10.010  11.511  1.00  0.00     0.263 C 
HETATM   14  N   UNL     1      42.014  -9.770  10.386  1.00  0.00    -0.258 N 
HETATM   15  O   UNL     1      42.487  -9.779  12.670  1.00  0.00    -0.267 OA
HETATM   16  H   UNL     1      41.310  -9.046  10.407  1.00  0.00     0.191 HD
HETATM   17  C   UNL     1      42.486  -9.970   7.958  1.00  0.00     0.042 C 
HETATM   18  C   UNL     1      41.090  -9.515   7.616  1.00  0.00     0.071 C 
ENDBRANCH   5   6
ENDBRANCH   1   5
BRANCH   2  19
HETATM   19  C   UNL     1      42.024 -14.203   5.015  1.00  0.00     0.062 A 
HETATM   20  C   UNL     1      42.499 -14.955   3.879  1.00  0.00     0.046 A 
HETATM   21  C   UNL     1      42.410 -16.313   4.206  1.00  0.00     0.046 A 
HETATM   22  C   UNL     1      43.009 -14.645   2.597  1.00  0.00     0.130 A 
HETATM   23  C   UNL     1      42.797 -17.341   3.333  1.00  0.00     0.030 A 
HETATM   24  N   UNL     1      41.900 -16.395   5.480  1.00  0.00    -0.364 N 
HETATM   25  C   UNL     1      43.294 -16.985   2.077  1.00  0.00     0.005 A 
HETATM   26  C   UNL     1      43.400 -15.649   1.709  1.00  0.00     0.043 A 
HETATM   27  H   UNL     1      41.727 -17.258   5.978  1.00  0.00     0.165 HD
HETATM   28  C   UNL     1      41.672 -15.143   5.972  1.00  0.00     0.106 A 
HETATM   29  F   UNL     1      43.132 -13.370   2.199  1.00  0.00    -0.205 F 
ENDBRANCH   2  19
TORSDOF 3
ENDMDL
MODEL 4
REMARK VINA RESULT:      -8.4      3.030      5.065
REMARK  3 active torsions:
REMARK  status: ('A' for Active; 'I' for Inactive)
REMARK    1  A    between atoms: C_12  and  C_13 
REMARK    2  A    between atoms: C_13  and  N_14 
REMARK       I    between atoms: N_14  and  C_15 
REMARK    3  A    between atoms: C_15  and  C_16 
ROOT
HETATM    1  N   UNL     1      43.168 -14.537   4.421  1.00  0.00    -0.352 N 
HETATM    2  C   UNL     1      43.247 -15.658   3.635  1.00  0.00     0.254 C 
HETATM    3  O   UNL     1      43.096 -15.612   2.416  1.00  0.00    -0.268 OA
HETATM    4  H   UNL     1      43.258 -14.640   5.422  1.00  0.00     0.163 HD
ENDROOT
BRANCH   1   5
HETATM    5  C   UNL     1      42.820 -13.236   3.906  1.00  0.00     0.165 C 
BRANCH   5   6
HETATM    6  C   UNL     1      41.699 -12.619   4.691  1.00  0.00     0.008 C 
HETATM    7  C   UNL     1      40.267 -12.709   4.150  1.00  0.00     0.043 C 
HETATM    8  C   UNL     1      39.993 -13.618   2.969  1.00  0.00     0.071 C 
HETATM    9  N   UNL     1      39.225 -12.088   4.629  1.00  0.00    -0.234 NA
HETATM   10  C   UNL     1      39.497 -11.317   5.720  1.00  0.00     0.154 C 
HETATM   11  C   UNL     1      38.617 -10.472   6.272  1.00  0.00     0.128 C 
HETATM   12  N   UNL     1      40.715 -11.271   6.372  1.00  0.00    -0.239 N 
HETATM   13  C   UNL     1      39.353  -9.848   7.391  1.00  0.00     0.263 C 
HETATM   14  N   UNL     1      40.670 -10.271   7.316  1.00  0.00    -0.258 N 
HETATM   15  O   UNL     1      38.858  -9.130   8.240  1.00  0.00    -0.267 OA
HETATM   16  H   UNL     1      41.225 -10.325   8.158  1.00  0.00     0.191 HD
HETATM   17  C   UNL     1      41.836 -11.867   5.815  1.00  0.00     0.042 C 
HETATM   18  C   UNL     1      43.148 -11.617   6.517  1.00  0.00     0.071 C 
ENDBRANCH   5   6
ENDBRANCH   1   5
BRANCH   2  19
HETATM   19  C   UNL     1      43.514 -16.921   4.333  1.00  0.00     0.062 A 
HETATM   20  C   UNL     1      43.606 -18.285   3.870  1.00  0.00     0.046 A 
HETATM   21  C   UNL     1      43.902 -19.087   4.979  1.00  0.00     0.046 A 
HETATM   22  C   UNL     1      43.481 -18.946   2.627  1.00  0.00     0.130 A 
HETATM   23  C   UNL     1      44.072 -20.477   4.898  1.00  0.00     0.030 A 
HETATM   24  N   UNL     1      43.984 -18.259   6.073  1.00  0.00    -0.364 N 
HETATM   25  C   UNL     1      43.937 -21.085   3.648  1.00  0.00     0.005 A 
HETATM   26  C   UNL     1      43.643 -20.328   2.520  1.00  0.00     0.043 A 
HETATM   27  H   UNL     1      44.187 -18.565   7.015  1.00  0.00     0.165 HD
HETATM   28  C   UNL     1      43.759 -16.967   5.697  1.00  0.00     0.106 A 
HETATM   29  F   UNL     1      43.200 -18.257   1.510  1.00  0.00    -0.205 F 
ENDBRANCH   2  19
TORSDOF 3
ENDMDL
MODEL 5
REMARK VINA RESULT:      -8.3      2.360      6.801
REMARK  3 active torsions:
REMARK  status: ('A' for Active; 'I' for Inactive)
REMARK    1  A    between atoms: C_12  and  C_13 
REMARK    2  A    between atoms: C_13  and  N_14 
REMARK       I    between atoms: N_14  and  C_15 
REMARK    3  A    between atoms: C_15  and  C_16 
ROOT
HETATM    1  N   UNL     1      41.458 -13.367   3.156  1.00  0.00    -0.352 N 
HETATM    2  C   UNL     1      40.408 -12.890   2.416  1.00  0.00     0.254 C 
HETATM    3  O   UNL     1      39.240 -13.043   2.766  1.00  0.00    -0.268 OA
HETATM    4  H   UNL     1      42.396 -13.250   2.800  1.00  0.00     0.163 HD
ENDROOT
BRANCH   1   5
HETATM    5  C   UNL     1      41.286 -14.157   4.351  1.00  0.00     0.165 C 
BRANCH   5   6
HETATM    6  C   UNL     1      41.991 -15.477   4.240  1.00  0.00     0.008 C 
HETATM    7  C   UNL     1      43.197 -15.761   5.144  1.00  0.00     0.043 C 
HETATM    8  C   UNL     1      43.492 -14.805   6.282  1.00  0.00     0.071 C 
HETATM    9  N   UNL     1      44.003 -16.782   5.051  1.00  0.00    -0.234 NA
HETATM   10  C   UNL     1      43.681 -17.648   4.047  1.00  0.00     0.154 C 
HETATM   11  C   UNL     1      44.457 -18.672   3.669  1.00  0.00     0.128 C 
HETATM   12  N   UNL     1      42.544 -17.565   3.267  1.00  0.00    -0.239 N 
HETATM   13  C   UNL     1      43.725 -19.300   2.552  1.00  0.00     0.263 C 
HETATM   14  N   UNL     1      42.634 -18.499   2.259  1.00  0.00    -0.258 N 
HETATM   15  O   UNL     1      44.022 -20.359   2.027  1.00  0.00    -0.267 OA
HETATM   16  H   UNL     1      41.804 -18.912   1.857  1.00  0.00     0.191 HD
HETATM   17  C   UNL     1      41.736 -16.440   3.314  1.00  0.00     0.042 C 
HETATM   18  C   UNL     1      40.617 -16.372   2.304  1.00  0.00     0.071 C 
ENDBRANCH   5   6
ENDBRANCH   1   5
BRANCH   2  19
HETATM   19  C   UNL     1      40.757 -12.190   1.174  1.00  0.00     0.062 A 
HETATM   20  C   UNL     1      40.633 -12.560  -0.216  1.00  0.00     0.046 A 
HETATM   21  C   UNL     1      41.113 -11.489  -0.980  1.00  0.00     0.046 A 
HETATM   22  C   UNL     1      40.158 -13.683  -0.930  1.00  0.00     0.130 A 
HETATM   23  C   UNL     1      41.137 -11.497  -2.383  1.00  0.00     0.030 A 
HETATM   24  N   UNL     1      41.517 -10.510  -0.105  1.00  0.00    -0.364 N 
HETATM   25  C   UNL     1      40.657 -12.630  -3.043  1.00  0.00     0.005 A 
HETATM   26  C   UNL     1      40.172 -13.717  -2.325  1.00  0.00     0.043 A 
HETATM   27  H   UNL     1      41.908  -9.618  -0.377  1.00  0.00     0.165 HD
HETATM   28  C   UNL     1      41.304 -10.916   1.180  1.00  0.00     0.106 A 
HETATM   29  F   UNL     1      39.678 -14.754  -0.279  1.00  0.00    -0.205 F 
ENDBRANCH   2  19
TORSDOF 3
ENDMDL
MODEL 6
REMARK VINA RESULT:      -8.3      3.230      5.447
REMARK  3 active torsions:
REMARK  status: ('A' for Active; 'I' for Inactive)
REMARK    1  A    between atoms: C_12  and  C_13 
REMARK    2  A    between atoms: C_13  and  N_14 
REMARK       I    between atoms: N_14  and  C_15 
REMARK    3  A    between atoms: C_15  and  C_16 
ROOT
HETATM    1  N   UNL     1      42.165 -14.326   4.336  1.00  0.00    -0.352 N 
HETATM    2  C   UNL     1      43.016 -15.124   3.614  1.00  0.00     0.254 C 
HETATM    3  O   UNL     1      43.421 -14.805   2.499  1.00  0.00    -0.268 OA
HETATM    4  H   UNL     1      41.831 -14.658   5.229  1.00  0.00     0.163 HD
ENDROOT
BRANCH   1   5
HETATM    5  C   UNL     1      41.610 -13.099   3.822  1.00  0.00     0.165 C 
BRANCH   5   6
HETATM    6  C   UNL     1      41.732 -11.983   4.819  1.00  0.00     0.008 C 
HETATM    7  C   UNL     1      43.091 -11.301   5.017  1.00  0.00     0.043 C 
HETATM    8  C   UNL     1      44.206 -11.607   4.038  1.00  0.00     0.071 C 
HETATM    9  N   UNL     1      43.389 -10.441   5.951  1.00  0.00    -0.234 NA
HETATM   10  C   UNL     1      42.351 -10.152   6.786  1.00  0.00     0.154 C 
HETATM   11  C   UNL     1      42.474  -9.424   7.903  1.00  0.00     0.128 C 
HETATM   12  N   UNL     1      41.054 -10.599   6.617  1.00  0.00    -0.239 N 
HETATM   13  C   UNL     1      41.115  -9.400   8.482  1.00  0.00     0.263 C 
HETATM   14  N   UNL     1      40.321 -10.250   7.730  1.00  0.00    -0.258 N 
HETATM   15  O   UNL     1      40.769  -8.713   9.426  1.00  0.00    -0.267 OA
HETATM   16  H   UNL     1      39.328 -10.079   7.665  1.00  0.00     0.191 HD
HETATM   17  C   UNL     1      40.759 -11.572   5.676  1.00  0.00     0.042 C 
HETATM   18  C   UNL     1      39.352 -12.114   5.686  1.00  0.00     0.071 C 
ENDBRANCH   5   6
ENDBRANCH   1   5
BRANCH   2  19
HETATM   19  C   UNL     1      43.410 -16.389   4.247  1.00  0.00     0.062 A 
HETATM   20  C   UNL     1      43.496 -17.739   3.745  1.00  0.00     0.046 A 
HETATM   21  C   UNL     1      43.951 -18.549   4.792  1.00  0.00     0.046 A 
HETATM   22  C   UNL     1      43.248 -18.381   2.510  1.00  0.00     0.130 A 
HETATM   23  C   UNL     1      44.160 -19.930   4.660  1.00  0.00     0.030 A 
HETATM   24  N   UNL     1      44.131 -17.739   5.887  1.00  0.00    -0.364 N 
HETATM   25  C   UNL     1      43.901 -20.519   3.421  1.00  0.00     0.005 A 
HETATM   26  C   UNL     1      43.448 -19.754   2.353  1.00  0.00     0.043 A 
HETATM   27  H   UNL     1      44.456 -18.055   6.791  1.00  0.00     0.165 HD
HETATM   28  C   UNL     1      43.817 -16.450   5.571  1.00  0.00     0.106 A 
HETATM   29  F   UNL     1      42.812 -17.683   1.451  1.00  0.00    -0.205 F 
ENDBRANCH   2  19
TORSDOF 3
ENDMDL
MODEL 7
REMARK VINA RESULT:      -8.1      4.005      7.150
REMARK  3 active torsions:
REMARK  status: ('A' for Active; 'I' for Inactive)
REMARK    1  A    between atoms: C_12  and  C_13 
REMARK    2  A    between atoms: C_13  and  N_14 
REMARK       I    between atoms: N_14  and  C_15 
REMARK    3  A    between atoms: C_15  and  C_16 
ROOT
HETATM    1  N   UNL     1      40.950 -12.772   6.584  1.00  0.00    -0.352 N 
HETATM    2  C   UNL     1      41.181 -11.557   5.991  1.00  0.00     0.254 C 
HETATM    3  O   UNL     1      40.731 -11.276   4.883  1.00  0.00    -0.268 OA
HETATM    4  H   UNL     1      41.379 -12.964   7.478  1.00  0.00     0.163 HD
ENDROOT
BRANCH   1   5
HETATM    5  C   UNL     1      40.242 -13.845   5.932  1.00  0.00     0.165 C 
BRANCH   5   6
HETATM    6  C   UNL     1      41.187 -14.776   5.228  1.00  0.00     0.008 C 
HETATM    7  C   UNL     1      41.078 -14.946   3.709  1.00  0.00     0.043 C 
HETATM    8  C   UNL     1      40.186 -13.997   2.934  1.00  0.00     0.071 C 
HETATM    9  N   UNL     1      41.711 -15.830   2.988  1.00  0.00    -0.234 NA
HETATM   10  C   UNL     1      42.541 -16.636   3.710  1.00  0.00     0.154 C 
HETATM   11  C   UNL     1      43.162 -17.709   3.203  1.00  0.00     0.128 C 
HETATM   12  N   UNL     1      42.821 -16.482   5.054  1.00  0.00    -0.239 N 
HETATM   13  C   UNL     1      43.917 -18.272   4.341  1.00  0.00     0.263 C 
HETATM   14  N   UNL     1      43.560 -17.564   5.476  1.00  0.00    -0.258 N 
HETATM   15  O   UNL     1      44.737 -19.170   4.261  1.00  0.00    -0.267 OA
HETATM   16  H   UNL     1      44.216 -17.480   6.239  1.00  0.00     0.191 HD
HETATM   17  C   UNL     1      42.089 -15.597   5.830  1.00  0.00     0.042 C 
HETATM   18  C   UNL     1      42.355 -15.625   7.314  1.00  0.00     0.071 C 
ENDBRANCH   5   6
ENDBRANCH   1   5
BRANCH   2  19
HETATM   19  C   UNL     1      42.004 -10.611   6.754  1.00  0.00     0.062 A 
HETATM   20  C   UNL     1      43.406 -10.600   7.095  1.00  0.00     0.046 A 
HETATM   21  C   UNL     1      43.652  -9.433   7.829  1.00  0.00     0.046 A 
HETATM   22  C   UNL     1      44.515 -11.445   6.860  1.00  0.00     0.130 A 
HETATM   23  C   UNL     1      44.920  -9.089   8.322  1.00  0.00     0.030 A 
HETATM   24  N   UNL     1      42.459  -8.760   7.939  1.00  0.00    -0.364 N 
HETATM   25  C   UNL     1      45.984  -9.956   8.065  1.00  0.00     0.005 A 
HETATM   26  C   UNL     1      45.786 -11.126   7.341  1.00  0.00     0.043 A 
HETATM   27  H   UNL     1      42.336  -7.879   8.420  1.00  0.00     0.165 HD
HETATM   28  C   UNL     1      41.473  -9.451   7.298  1.00  0.00     0.106 A 
HETATM   29  F   UNL     1      44.373 -12.583   6.164  1.00  0.00    -0.205 F 
ENDBRANCH   2  19
TORSDOF 3
ENDMDL
MODEL 8
REMARK VINA RESULT:      -8.1      4.213      5.075
REMARK  3 active torsions:
REMARK  status: ('A' for Active; 'I' for Inactive)
REMARK    1  A    between atoms: C_12  and  C_13 
REMARK    2  A    between atoms: C_13  and  N_14 
REMARK       I    between atoms: N_14  and  C_15 
REMARK    3  A    between atoms: C_15  and  C_16 
ROOT
HETATM    1  N   UNL     1      43.191 -14.829   5.361  1.00  0.00    -0.352 N 
HETATM    2  C   UNL     1      43.562 -16.141   5.506  1.00  0.00     0.254 C 
HETATM    3  O   UNL     1      43.910 -16.605   6.590  1.00  0.00    -0.268 OA
HETATM    4  H   UNL     1      42.955 -14.492   4.438  1.00  0.00     0.163 HD
ENDROOT
BRANCH   1   5
HETATM    5  C   UNL     1      43.257 -13.868   6.434  1.00  0.00     0.165 C 
BRANCH   5   6
HETATM    6  C   UNL     1      42.416 -12.660   6.138  1.00  0.00     0.008 C 
HETATM    7  C   UNL     1      43.083 -11.281   6.070  1.00  0.00     0.043 C 
HETATM    8  C   UNL     1      44.596 -11.206   6.065  1.00  0.00     0.071 C 
HETATM    9  N   UNL     1      42.468 -10.134   5.987  1.00  0.00    -0.234 NA
HETATM   10  C   UNL     1      41.109 -10.240   5.946  1.00  0.00     0.154 C 
HETATM   11  C   UNL     1      40.278  -9.193   6.023  1.00  0.00     0.128 C 
HETATM   12  N   UNL     1      40.411 -11.430   5.861  1.00  0.00    -0.239 N 
HETATM   13  C   UNL     1      38.926  -9.786   5.964  1.00  0.00     0.263 C 
HETATM   14  N   UNL     1      39.068 -11.163   6.007  1.00  0.00    -0.258 N 
HETATM   15  O   UNL     1      37.890  -9.156   5.852  1.00  0.00    -0.267 OA
HETATM   16  H   UNL     1      38.371 -11.751   5.573  1.00  0.00     0.191 HD
HETATM   17  C   UNL     1      41.061 -12.642   6.030  1.00  0.00     0.042 C 
HETATM   18  C   UNL     1      40.187 -13.871   6.089  1.00  0.00     0.071 C 
ENDBRANCH   5   6
ENDBRANCH   1   5
BRANCH   2  19
HETATM   19  C   UNL     1      43.529 -16.962   4.289  1.00  0.00     0.062 A 
HETATM   20  C   UNL     1      43.683 -18.380   4.071  1.00  0.00     0.046 A 
HETATM   21  C   UNL     1      43.540 -18.613   2.698  1.00  0.00     0.046 A 
HETATM   22  C   UNL     1      43.921 -19.513   4.883  1.00  0.00     0.130 A 
HETATM   23  C   UNL     1      43.623 -19.889   2.122  1.00  0.00     0.030 A 
HETATM   24  N   UNL     1      43.314 -17.397   2.098  1.00  0.00    -0.364 N 
HETATM   25  C   UNL     1      43.860 -20.977   2.965  1.00  0.00     0.005 A 
HETATM   26  C   UNL     1      44.009 -20.793   4.335  1.00  0.00     0.043 A 
HETATM   27  H   UNL     1      43.172 -17.260   1.106  1.00  0.00     0.165 HD
HETATM   28  C   UNL     1      43.301 -16.409   3.038  1.00  0.00     0.106 A 
HETATM   29  F   UNL     1      44.069 -19.385   6.210  1.00  0.00    -0.205 F 
ENDBRANCH   2  19
TORSDOF 3
ENDMDL
MODEL 9
REMARK VINA RESULT:      -8.0      2.754      7.499
REMARK  3 active torsions:
REMARK  status: ('A' for Active; 'I' for Inactive)
REMARK    1  A    between atoms: C_12  and  C_13 
REMARK    2  A    between atoms: C_13  and  N_14 
REMARK       I    between atoms: N_14  and  C_15 
REMARK    3  A    between atoms: C_15  and  C_16 
ROOT
HETATM    1  N   UNL     1      41.967 -13.432   1.543  1.00  0.00    -0.352 N 
HETATM    2  C   UNL     1      40.614 -13.217   1.603  1.00  0.00     0.254 C 
HETATM    3  O   UNL     1      40.063 -12.802   2.620  1.00  0.00    -0.268 OA
HETATM    4  H   UNL     1      42.360 -13.814   0.696  1.00  0.00     0.163 HD
ENDROOT
BRANCH   1   5
HETATM    5  C   UNL     1      42.841 -13.273   2.680  1.00  0.00     0.165 C 
BRANCH   5   6
HETATM    6  C   UNL     1      42.923 -14.537   3.487  1.00  0.00     0.008 C 
HETATM    7  C   UNL     1      42.801 -14.461   5.013  1.00  0.00     0.043 C 
HETATM    8  C   UNL     1      42.364 -13.153   5.642  1.00  0.00     0.071 C 
HETATM    9  N   UNL     1      43.014 -15.438   5.850  1.00  0.00    -0.234 NA
HETATM   10  C   UNL     1      43.359 -16.612   5.248  1.00  0.00     0.154 C 
HETATM   11  C   UNL     1      43.776 -17.696   5.916  1.00  0.00     0.128 C 
HETATM   12  N   UNL     1      43.363 -16.830   3.884  1.00  0.00    -0.239 N 
HETATM   13  C   UNL     1      44.054 -18.695   4.864  1.00  0.00     0.263 C 
HETATM   14  N   UNL     1      43.918 -18.066   3.638  1.00  0.00    -0.258 N 
HETATM   15  O   UNL     1      44.311 -19.869   5.064  1.00  0.00    -0.267 OA
HETATM   16  H   UNL     1      43.649 -18.604   2.827  1.00  0.00     0.191 HD
HETATM   17  C   UNL     1      43.215 -15.773   3.000  1.00  0.00     0.042 C 
HETATM   18  C   UNL     1      43.403 -16.087   1.537  1.00  0.00     0.071 C 
ENDBRANCH   5   6
ENDBRANCH   1   5
BRANCH   2  19
HETATM   19  C   UNL     1      39.856 -13.521   0.383  1.00  0.00     0.062 A 
HETATM   20  C   UNL     1      39.045 -12.701  -0.484  1.00  0.00     0.046 A 
HETATM   21  C   UNL     1      38.574 -13.520  -1.518  1.00  0.00     0.046 A 
HETATM   22  C   UNL     1      38.654 -11.343  -0.526  1.00  0.00     0.130 A 
HETATM   23  C   UNL     1      37.754 -13.052  -2.556  1.00  0.00     0.030 A 
HETATM   24  N   UNL     1      39.066 -14.784  -1.296  1.00  0.00    -0.364 N 
HETATM   25  C   UNL     1      37.394 -11.703  -2.553  1.00  0.00     0.005 A 
HETATM   26  C   UNL     1      37.838 -10.853  -1.547  1.00  0.00     0.043 A 
HETATM   27  H   UNL     1      38.888 -15.585  -1.886  1.00  0.00     0.165 HD
HETATM   28  C   UNL     1      39.835 -14.793  -0.169  1.00  0.00     0.106 A 
HETATM   29  F   UNL     1      39.060 -10.485   0.422  1.00  0.00    -0.205 F 
ENDBRANCH   2  19
TORSDOF 3
ENDMDL
MODEL 10
REMARK VINA RESULT:      -8.0      4.669      7.360
REMARK  3 active torsions:
REMARK  status: ('A' for Active; 'I' for Inactive)
REMARK    1  A    between atoms: C_12  and  C_13 
REMARK    2  A    between atoms: C_13  and  N_14 
REMARK       I    between atoms: N_14  and  C_15 
REMARK    3  A    between atoms: C_15  and  C_16 
ROOT
HETATM    1  N   UNL     1      43.052 -12.683   5.385  1.00  0.00    -0.352 N 
HETATM    2  C   UNL     1      43.885 -11.633   5.098  1.00  0.00     0.254 C 
HETATM    3  O   UNL     1      43.936 -11.126   3.979  1.00  0.00    -0.268 OA
HETATM    4  H   UNL     1      43.082 -13.087   6.309  1.00  0.00     0.163 HD
ENDROOT
BRANCH   1   5
HETATM    5  C   UNL     1      42.234 -13.335   4.391  1.00  0.00     0.165 C 
BRANCH   5   6
HETATM    6  C   UNL     1      42.501 -14.812   4.347  1.00  0.00     0.008 C 
HETATM    7  C   UNL     1      42.672 -15.581   5.662  1.00  0.00     0.043 C 
HETATM    8  C   UNL     1      42.332 -14.881   6.962  1.00  0.00     0.071 C 
HETATM    9  N   UNL     1      43.066 -16.819   5.781  1.00  0.00    -0.234 NA
HETATM   10  C   UNL     1      43.317 -17.434   4.590  1.00  0.00     0.154 C 
HETATM   11  C   UNL     1      43.881 -18.644   4.482  1.00  0.00     0.128 C 
HETATM   12  N   UNL     1      43.065 -16.884   3.348  1.00  0.00    -0.239 N 
HETATM   13  C   UNL     1      43.976 -18.879   3.027  1.00  0.00     0.263 C 
HETATM   14  N   UNL     1      43.592 -17.714   2.385  1.00  0.00    -0.258 N 
HETATM   15  O   UNL     1      44.295 -19.934   2.508  1.00  0.00    -0.267 OA
HETATM   16  H   UNL     1      43.186 -17.763   1.461  1.00  0.00     0.191 HD
HETATM   17  C   UNL     1      42.724 -15.546   3.225  1.00  0.00     0.042 C 
HETATM   18  C   UNL     1      42.636 -15.001   1.821  1.00  0.00     0.071 C 
ENDBRANCH   5   6
ENDBRANCH   1   5
BRANCH   2  19
HETATM   19  C   UNL     1      44.722 -11.150   6.203  1.00  0.00     0.062 A 
HETATM   20  C   UNL     1      44.402 -10.502   7.452  1.00  0.00     0.046 A 
HETATM   21  C   UNL     1      45.606 -10.281   8.132  1.00  0.00     0.046 A 
HETATM   22  C   UNL     1      43.221 -10.077   8.102  1.00  0.00     0.130 A 
HETATM   23  C   UNL     1      45.674  -9.673   9.394  1.00  0.00     0.030 A 
HETATM   24  N   UNL     1      46.619 -10.765   7.339  1.00  0.00    -0.364 N 
HETATM   25  C   UNL     1      44.480  -9.269   9.996  1.00  0.00     0.005 A 
HETATM   26  C   UNL     1      43.262  -9.468   9.357  1.00  0.00     0.043 A 
HETATM   27  H   UNL     1      47.601 -10.740   7.579  1.00  0.00     0.165 HD
HETATM   28  C   UNL     1      46.102 -11.289   6.191  1.00  0.00     0.106 A 
HETATM   29  F   UNL     1      42.022 -10.250   7.525  1.00  0.00    -0.205 F 
ENDBRANCH   2  19
TORSDOF 3
ENDMDL
