MODEL 1
REMARK VINA RESULT:      -8.9      0.000      0.000
REMARK  8 active torsions:
REMARK  status: ('A' for Active; 'I' for Inactive)
REMARK    1  A    between atoms: C_2  and  O_3 
REMARK    2  A    between atoms: O_3  and  C_4 
REMARK    3  A    between atoms: C_4  and  C_5 
REMARK    4  A    between atoms: C_6  and  C_8 
REMARK    5  A    between atoms: C_6  and  O_7 
REMARK    6  A    between atoms: C_16  and  C_17 
REMARK    7  A    between atoms: C_18  and  C_19 
REMARK    8  A    between atoms: N_26  and  C_27 
ROOT
HETATM    1  C   UNL     1      41.809 -12.983   5.689  1.00  0.00     0.177 C 
HETATM    2  C   UNL     1      41.953 -11.463   5.860  1.00  0.00     0.250 C 
HETATM    3  N   UNL     1      43.380 -11.168   5.942  1.00  0.00    -0.303 N 
HETATM    4  C   UNL     1      44.210 -11.581   4.952  1.00  0.00     0.319 C 
HETATM    5  O   UNL     1      45.285 -11.036   4.748  1.00  0.00    -0.247 OA
HETATM    6  N   UNL     1      43.765 -12.609   4.195  1.00  0.00    -0.333 N 
HETATM    7  C   UNL     1      42.682 -13.513   4.545  1.00  0.00     0.142 C 
HETATM    8  H   UNL     1      43.654 -10.267   6.319  1.00  0.00     0.167 HD
HETATM    9  H   UNL     1      44.413 -12.887   3.467  1.00  0.00     0.165 HD
ENDROOT
BRANCH   7  10
HETATM   10  C   UNL     1      42.029 -13.937   3.258  1.00  0.00     0.015 A 
HETATM   11  C   UNL     1      42.103 -15.218   2.615  1.00  0.00     0.097 A 
HETATM   12  N   UNL     1      41.365 -15.245   1.498  1.00  0.00    -0.167 NA
HETATM   13  N   UNL     1      40.813 -14.020   1.385  1.00  0.00    -0.244 N 
HETATM   14  C   UNL     1      41.200 -13.207   2.426  1.00  0.00     0.130 A 
BRANCH  11  15
HETATM   15  C   UNL     1      42.830 -16.426   3.016  1.00  0.00    -0.005 A 
HETATM   16  C   UNL     1      43.515 -16.446   4.241  1.00  0.00     0.014 A 
HETATM   17  C   UNL     1      44.203 -17.587   4.657  1.00  0.00     0.001 A 
HETATM   18  C   UNL     1      44.215 -18.724   3.852  1.00  0.00     0.000 A 
HETATM   19  C   UNL     1      43.528 -18.724   2.639  1.00  0.00     0.001 A 
HETATM   20  C   UNL     1      42.831 -17.584   2.227  1.00  0.00     0.014 A 
ENDBRANCH  11  15
BRANCH  13  21
HETATM   21  C   UNL     1      39.948 -13.704   0.299  1.00  0.00     0.058 A 
HETATM   22  C   UNL     1      39.280 -12.469   0.289  1.00  0.00     0.031 A 
HETATM   23  C   UNL     1      38.430 -12.136  -0.768  1.00  0.00     0.002 A 
HETATM   24  C   UNL     1      38.239 -13.029  -1.819  1.00  0.00     0.000 A 
HETATM   25  C   UNL     1      38.896 -14.259  -1.816  1.00  0.00     0.002 A 
HETATM   26  C   UNL     1      39.750 -14.599  -0.762  1.00  0.00     0.031 A 
ENDBRANCH  13  21
ENDBRANCH   7  10
BRANCH   1  27
HETATM   27  C   UNL     1      40.422 -13.585   5.717  1.00  0.00     0.270 C 
HETATM   28  O   UNL     1      39.410 -12.910   5.855  1.00  0.00    -0.265 OA
BRANCH  27  29
HETATM   29  O   UNL     1      40.419 -14.912   5.454  1.00  0.00    -0.321 OA
BRANCH  29  30
HETATM   30  C   UNL     1      40.330 -15.789   6.588  1.00  0.00     0.174 C 
HETATM   31  C   UNL     1      41.716 -16.130   7.104  1.00  0.00     0.034 C 
ENDBRANCH  29  30
ENDBRANCH  27  29
ENDBRANCH   1  27
BRANCH   2  32
HETATM   32  C   UNL     1      41.251 -10.580   4.760  1.00  0.00     0.439 C 
HETATM   33  F   UNL     1      40.317 -11.238   4.044  1.00  0.00    -0.166 F 
HETATM   34  F   UNL     1      40.638  -9.510   5.331  1.00  0.00    -0.166 F 
HETATM   35  F   UNL     1      42.132 -10.068   3.870  1.00  0.00    -0.166 F 
ENDBRANCH   2  32
BRANCH   2  36
HETATM   36  O   UNL     1      41.510 -11.100   7.175  1.00  0.00    -0.363 OA
HETATM   37  H   UNL     1      41.453 -10.130   7.179  1.00  0.00     0.213 HD
ENDBRANCH   2  36
TORSDOF 8
ENDMDL
MODEL 2
REMARK VINA RESULT:      -8.8      2.023      5.827
REMARK  8 active torsions:
REMARK  status: ('A' for Active; 'I' for Inactive)
REMARK    1  A    between atoms: C_2  and  O_3 
REMARK    2  A    between atoms: O_3  and  C_4 
REMARK    3  A    between atoms: C_4  and  C_5 
REMARK    4  A    between atoms: C_6  and  C_8 
REMARK    5  A    between atoms: C_6  and  O_7 
REMARK    6  A    between atoms: C_16  and  C_17 
REMARK    7  A    between atoms: C_18  and  C_19 
REMARK    8  A    between atoms: N_26  and  C_27 
ROOT
HETATM    1  C   UNL     1      41.291 -11.162   3.627  1.00  0.00     0.177 C 
HETATM    2  C   UNL     1      41.544 -10.821   5.103  1.00  0.00     0.250 C 
HETATM    3  N   UNL     1      40.242 -10.682   5.746  1.00  0.00    -0.303 N 
HETATM    4  C   UNL     1      39.345 -11.698   5.676  1.00  0.00     0.319 C 
HETATM    5  O   UNL     1      38.451 -11.822   6.500  1.00  0.00    -0.247 OA
HETATM    6  N   UNL     1      39.519 -12.572   4.659  1.00  0.00    -0.333 N 
HETATM    7  C   UNL     1      40.325 -12.343   3.472  1.00  0.00     0.142 C 
HETATM    8  H   UNL     1      40.206 -10.204   6.640  1.00  0.00     0.167 HD
HETATM    9  H   UNL     1      38.829 -13.315   4.641  1.00  0.00     0.165 HD
ENDROOT
BRANCH   7  10
HETATM   10  C   UNL     1      40.863 -13.680   3.040  1.00  0.00     0.015 A 
HETATM   11  C   UNL     1      40.688 -14.329   1.771  1.00  0.00     0.097 A 
HETATM   12  N   UNL     1      41.338 -15.499   1.731  1.00  0.00    -0.167 NA
HETATM   13  N   UNL     1      41.930 -15.640   2.934  1.00  0.00    -0.244 N 
HETATM   14  C   UNL     1      41.655 -14.564   3.747  1.00  0.00     0.130 A 
BRANCH  11  15
HETATM   15  C   UNL     1      39.945 -13.886   0.588  1.00  0.00    -0.005 A 
HETATM   16  C   UNL     1      39.881 -14.721  -0.539  1.00  0.00     0.014 A 
HETATM   17  C   UNL     1      39.169 -14.333  -1.676  1.00  0.00     0.001 A 
HETATM   18  C   UNL     1      38.512 -13.105  -1.699  1.00  0.00     0.000 A 
HETATM   19  C   UNL     1      38.555 -12.272  -0.583  1.00  0.00     0.001 A 
HETATM   20  C   UNL     1      39.260 -12.664   0.559  1.00  0.00     0.014 A 
ENDBRANCH  11  15
BRANCH  13  21
HETATM   21  C   UNL     1      42.723 -16.785   3.230  1.00  0.00     0.058 A 
HETATM   22  C   UNL     1      43.442 -16.830   4.435  1.00  0.00     0.031 A 
HETATM   23  C   UNL     1      44.223 -17.946   4.748  1.00  0.00     0.002 A 
HETATM   24  C   UNL     1      44.294 -19.019   3.865  1.00  0.00     0.000 A 
HETATM   25  C   UNL     1      43.585 -18.982   2.665  1.00  0.00     0.002 A 
HETATM   26  C   UNL     1      42.799 -17.870   2.344  1.00  0.00     0.031 A 
ENDBRANCH  13  21
ENDBRANCH   7  10
BRANCH   1  27
HETATM   27  C   UNL     1      42.474 -11.225   2.688  1.00  0.00     0.270 C 
HETATM   28  O   UNL     1      43.608 -11.492   3.067  1.00  0.00    -0.265 OA
BRANCH  27  29
HETATM   29  O   UNL     1      42.124 -11.075   1.389  1.00  0.00    -0.321 OA
BRANCH  29  30
HETATM   30  C   UNL     1      41.502  -9.831   1.033  1.00  0.00     0.174 C 
HETATM   31  C   UNL     1      41.368  -9.717  -0.474  1.00  0.00     0.034 C 
ENDBRANCH  29  30
ENDBRANCH  27  29
ENDBRANCH   1  27
BRANCH   2  32
HETATM   32  C   UNL     1      42.465 -11.828   5.892  1.00  0.00     0.439 C 
HETATM   33  F   UNL     1      43.444 -12.375   5.144  1.00  0.00    -0.166 F 
HETATM   34  F   UNL     1      43.063 -11.202   6.939  1.00  0.00    -0.166 F 
HETATM   35  F   UNL     1      41.766 -12.855   6.428  1.00  0.00    -0.166 F 
ENDBRANCH   2  32
BRANCH   2  36
HETATM   36  O   UNL     1      42.050  -9.481   5.190  1.00  0.00    -0.363 OA
HETATM   37  H   UNL     1      42.978  -9.528   4.903  1.00  0.00     0.213 HD
ENDBRANCH   2  36
TORSDOF 8
ENDMDL
MODEL 3
REMARK VINA RESULT:      -8.3      2.890      6.364
REMARK  8 active torsions:
REMARK  status: ('A' for Active; 'I' for Inactive)
REMARK    1  A    between atoms: C_2  and  O_3 
REMARK    2  A    between atoms: O_3  and  C_4 
REMARK    3  A    between atoms: C_4  and  C_5 
REMARK    4  A    between atoms: C_6  and  C_8 
REMARK    5  A    between atoms: C_6  and  O_7 
REMARK    6  A    between atoms: C_16  and  C_17 
REMARK    7  A    between atoms: C_18  and  C_19 
REMARK    8  A    between atoms: N_26  and  C_27 
ROOT
HETATM    1  C   UNL     1      40.583 -10.813   4.827  1.00  0.00     0.177 C 
HETATM    2  C   UNL     1      39.743 -11.090   3.571  1.00  0.00     0.250 C 
HETATM    3  N   UNL     1      40.359 -10.362   2.467  1.00  0.00    -0.303 N 
HETATM    4  C   UNL     1      41.669 -10.564   2.174  1.00  0.00     0.319 C 
HETATM    5  O   UNL     1      42.121 -10.328   1.064  1.00  0.00    -0.247 OA
HETATM    6  N   UNL     1      42.428 -11.065   3.175  1.00  0.00    -0.333 N 
HETATM    7  C   UNL     1      42.075 -11.077   4.584  1.00  0.00     0.142 C 
HETATM    8  H   UNL     1      39.802 -10.210   1.633  1.00  0.00     0.167 HD
HETATM    9  H   UNL     1      43.399 -11.202   2.917  1.00  0.00     0.165 HD
ENDROOT
BRANCH   7  10
HETATM   10  C   UNL     1      42.714 -12.297   5.189  1.00  0.00     0.015 A 
HETATM   11  C   UNL     1      43.643 -12.352   6.281  1.00  0.00     0.097 A 
HETATM   12  N   UNL     1      43.976 -13.616   6.572  1.00  0.00    -0.167 NA
HETATM   13  N   UNL     1      43.298 -14.392   5.703  1.00  0.00    -0.244 N 
HETATM   14  C   UNL     1      42.534 -13.625   4.851  1.00  0.00     0.130 A 
BRANCH  11  15
HETATM   15  C   UNL     1      44.223 -11.264   7.074  1.00  0.00    -0.005 A 
HETATM   16  C   UNL     1      45.615 -11.085   7.087  1.00  0.00     0.014 A 
HETATM   17  C   UNL     1      46.195 -10.047   7.821  1.00  0.00     0.001 A 
HETATM   18  C   UNL     1      45.388  -9.177   8.551  1.00  0.00     0.000 A 
HETATM   19  C   UNL     1      44.004  -9.335   8.536  1.00  0.00     0.001 A 
HETATM   20  C   UNL     1      43.422 -10.367   7.793  1.00  0.00     0.014 A 
ENDBRANCH  11  15
BRANCH  13  21
HETATM   21  C   UNL     1      43.414 -15.810   5.741  1.00  0.00     0.058 A 
HETATM   22  C   UNL     1      43.645 -16.514   4.549  1.00  0.00     0.031 A 
HETATM   23  C   UNL     1      43.767 -17.905   4.563  1.00  0.00     0.002 A 
HETATM   24  C   UNL     1      43.658 -18.603   5.763  1.00  0.00     0.000 A 
HETATM   25  C   UNL     1      43.425 -17.913   6.952  1.00  0.00     0.002 A 
HETATM   26  C   UNL     1      43.304 -16.520   6.946  1.00  0.00     0.031 A 
ENDBRANCH  13  21
ENDBRANCH   7  10
BRANCH   1  27
HETATM   27  C   UNL     1      40.088 -11.336   6.156  1.00  0.00     0.270 C 
HETATM   28  O   UNL     1      39.746 -12.500   6.325  1.00  0.00    -0.265 OA
BRANCH  27  29
HETATM   29  O   UNL     1      40.181 -10.421   7.149  1.00  0.00    -0.321 OA
BRANCH  29  30
HETATM   30  C   UNL     1      39.807  -9.075   6.816  1.00  0.00     0.174 C 
HETATM   31  C   UNL     1      40.345  -8.104   7.850  1.00  0.00     0.034 C 
ENDBRANCH  29  30
ENDBRANCH  27  29
ENDBRANCH   1  27
BRANCH   2  32
HETATM   32  C   UNL     1      39.535 -12.609   3.206  1.00  0.00     0.439 C 
HETATM   33  F   UNL     1      39.546 -13.434   4.272  1.00  0.00    -0.166 F 
HETATM   34  F   UNL     1      38.345 -12.786   2.574  1.00  0.00    -0.166 F 
HETATM   35  F   UNL     1      40.478 -13.068   2.351  1.00  0.00    -0.166 F 
ENDBRANCH   2  32
BRANCH   2  36
HETATM   36  O   UNL     1      38.486 -10.411   3.695  1.00  0.00    -0.363 OA
HETATM   37  H   UNL     1      38.647  -9.497   3.406  1.00  0.00     0.213 HD
ENDBRANCH   2  36
TORSDOF 8
ENDMDL
MODEL 4
REMARK VINA RESULT:      -8.2      2.834      5.696
REMARK  8 active torsions:
REMARK  status: ('A' for Active; 'I' for Inactive)
REMARK    1  A    between atoms: C_2  and  O_3 
REMARK    2  A    between atoms: O_3  and  C_4 
REMARK    3  A    between atoms: C_4  and  C_5 
REMARK    4  A    between atoms: C_6  and  C_8 
REMARK    5  A    between atoms: C_6  and  O_7 
REMARK    6  A    between atoms: C_16  and  C_17 
REMARK    7  A    between atoms: C_18  and  C_19 
REMARK    8  A    between atoms: N_26  and  C_27 
ROOT
HETATM    1  C   UNL     1      42.402 -14.168   4.041  1.00  0.00     0.177 C 
HETATM    2  C   UNL     1      42.657 -15.682   4.064  1.00  0.00     0.250 C 
HETATM    3  N   UNL     1      41.851 -16.243   5.142  1.00  0.00    -0.303 N 
HETATM    4  C   UNL     1      40.512 -16.022   5.167  1.00  0.00     0.319 C 
HETATM    5  O   UNL     1      39.751 -16.768   5.764  1.00  0.00    -0.247 OA
HETATM    6  N   UNL     1      40.077 -14.947   4.473  1.00  0.00    -0.333 N 
HETATM    7  C   UNL     1      40.903 -13.843   4.012  1.00  0.00     0.142 C 
HETATM    8  H   UNL     1      42.090 -17.171   5.476  1.00  0.00     0.167 HD
HETATM    9  H   UNL     1      39.073 -14.816   4.517  1.00  0.00     0.165 HD
ENDROOT
BRANCH   7  10
HETATM   10  C   UNL     1      40.286 -13.333   2.738  1.00  0.00     0.015 A 
HETATM   11  C   UNL     1      39.893 -11.988   2.430  1.00  0.00     0.097 A 
HETATM   12  N   UNL     1      39.409 -11.897   1.185  1.00  0.00    -0.167 NA
HETATM   13  N   UNL     1      39.467 -13.141   0.668  1.00  0.00    -0.244 N 
HETATM   14  C   UNL     1      39.984 -14.030   1.583  1.00  0.00     0.130 A 
BRANCH  11  15
HETATM   15  C   UNL     1      39.968 -10.778   3.254  1.00  0.00    -0.005 A 
HETATM   16  C   UNL     1      40.716  -9.679   2.802  1.00  0.00     0.014 A 
HETATM   17  C   UNL     1      40.793  -8.508   3.558  1.00  0.00     0.001 A 
HETATM   18  C   UNL     1      40.123  -8.421   4.776  1.00  0.00     0.000 A 
HETATM   19  C   UNL     1      39.365  -9.499   5.231  1.00  0.00     0.001 A 
HETATM   20  C   UNL     1      39.279 -10.668   4.470  1.00  0.00     0.014 A 
ENDBRANCH  11  15
BRANCH  13  21
HETATM   21  C   UNL     1      39.034 -13.402  -0.663  1.00  0.00     0.058 A 
HETATM   22  C   UNL     1      39.442 -14.586  -1.298  1.00  0.00     0.031 A 
HETATM   23  C   UNL     1      39.026 -14.866  -2.602  1.00  0.00     0.002 A 
HETATM   24  C   UNL     1      38.204 -13.970  -3.280  1.00  0.00     0.000 A 
HETATM   25  C   UNL     1      37.796 -12.791  -2.658  1.00  0.00     0.002 A 
HETATM   26  C   UNL     1      38.207 -12.504  -1.352  1.00  0.00     0.031 A 
ENDBRANCH  13  21
ENDBRANCH   7  10
BRANCH   1  27
HETATM   27  C   UNL     1      43.222 -13.311   3.104  1.00  0.00     0.270 C 
HETATM   28  O   UNL     1      43.657 -13.726   2.037  1.00  0.00    -0.265 OA
BRANCH  27  29
HETATM   29  O   UNL     1      43.313 -12.024   3.511  1.00  0.00    -0.321 OA
BRANCH  29  30
HETATM   30  C   UNL     1      43.820 -11.807   4.837  1.00  0.00     0.174 C 
HETATM   31  C   UNL     1      42.964 -10.792   5.572  1.00  0.00     0.034 C 
ENDBRANCH  29  30
ENDBRANCH  27  29
ENDBRANCH   1  27
BRANCH   2  32
HETATM   32  C   UNL     1      42.400 -16.441   2.706  1.00  0.00     0.439 C 
HETATM   33  F   UNL     1      41.508 -15.832   1.899  1.00  0.00    -0.166 F 
HETATM   34  F   UNL     1      43.558 -16.562   2.004  1.00  0.00    -0.166 F 
HETATM   35  F   UNL     1      41.952 -17.704   2.897  1.00  0.00    -0.166 F 
ENDBRANCH   2  32
BRANCH   2  36
HETATM   36  O   UNL     1      43.987 -15.921   4.546  1.00  0.00    -0.363 OA
HETATM   37  H   UNL     1      44.169 -16.860   4.370  1.00  0.00     0.213 HD
ENDBRANCH   2  36
TORSDOF 8
ENDMDL
MODEL 5
REMARK VINA RESULT:      -8.1      2.620      5.696
REMARK  8 active torsions:
REMARK  status: ('A' for Active; 'I' for Inactive)
REMARK    1  A    between atoms: C_2  and  O_3 
REMARK    2  A    between atoms: O_3  and  C_4 
REMARK    3  A    between atoms: C_4  and  C_5 
REMARK    4  A    between atoms: C_6  and  C_8 
REMARK    5  A    between atoms: C_6  and  O_7 
REMARK    6  A    between atoms: C_16  and  C_17 
REMARK    7  A    between atoms: C_18  and  C_19 
REMARK    8  A    between atoms: N_26  and  C_27 
ROOT
HETATM    1  C   UNL     1      40.280 -10.993   3.774  1.00  0.00     0.177 C 
HETATM    2  C   UNL     1      39.540 -11.003   2.427  1.00  0.00     0.250 C 
HETATM    3  N   UNL     1      40.207 -10.041   1.557  1.00  0.00    -0.303 N 
HETATM    4  C   UNL     1      41.540 -10.151   1.329  1.00  0.00     0.319 C 
HETATM    5  O   UNL     1      42.061  -9.670   0.334  1.00  0.00    -0.247 OA
HETATM    6  N   UNL     1      42.244 -10.845   2.251  1.00  0.00    -0.333 N 
HETATM    7  C   UNL     1      41.793 -11.171   3.594  1.00  0.00     0.142 C 
HETATM    8  H   UNL     1      39.705  -9.721   0.736  1.00  0.00     0.167 HD
HETATM    9  H   UNL     1      43.235 -10.905   2.045  1.00  0.00     0.165 HD
ENDROOT
BRANCH   7  10
HETATM   10  C   UNL     1      42.429 -12.482   3.967  1.00  0.00     0.015 A 
HETATM   11  C   UNL     1      43.246 -12.768   5.112  1.00  0.00     0.097 A 
HETATM   12  N   UNL     1      43.611 -14.056   5.138  1.00  0.00    -0.167 NA
HETATM   13  N   UNL     1      43.064 -14.623   4.044  1.00  0.00    -0.244 N 
HETATM   14  C   UNL     1      42.352 -13.698   3.314  1.00  0.00     0.130 A 
BRANCH  11  15
HETATM   15  C   UNL     1      43.687 -11.882   6.193  1.00  0.00    -0.005 A 
HETATM   16  C   UNL     1      45.039 -11.870   6.567  1.00  0.00     0.014 A 
HETATM   17  C   UNL     1      45.492 -11.025   7.584  1.00  0.00     0.001 A 
HETATM   18  C   UNL     1      44.596 -10.183   8.237  1.00  0.00     0.000 A 
HETATM   19  C   UNL     1      43.252 -10.174   7.867  1.00  0.00     0.001 A 
HETATM   20  C   UNL     1      42.801 -11.012   6.843  1.00  0.00     0.014 A 
ENDBRANCH  11  15
BRANCH  13  21
HETATM   21  C   UNL     1      43.247 -16.007   3.767  1.00  0.00     0.058 A 
HETATM   22  C   UNL     1      43.851 -16.828   4.733  1.00  0.00     0.031 A 
HETATM   23  C   UNL     1      44.037 -18.190   4.484  1.00  0.00     0.002 A 
HETATM   24  C   UNL     1      43.624 -18.742   3.274  1.00  0.00     0.000 A 
HETATM   25  C   UNL     1      43.026 -17.934   2.308  1.00  0.00     0.002 A 
HETATM   26  C   UNL     1      42.835 -16.569   2.550  1.00  0.00     0.031 A 
ENDBRANCH  13  21
ENDBRANCH   7  10
BRANCH   1  27
HETATM   27  C   UNL     1      39.711 -11.802   4.917  1.00  0.00     0.270 C 
HETATM   28  O   UNL     1      40.123 -12.918   5.209  1.00  0.00    -0.265 OA
BRANCH  27  29
HETATM   29  O   UNL     1      38.796 -11.118   5.642  1.00  0.00    -0.321 OA
BRANCH  29  30
HETATM   30  C   UNL     1      39.235  -9.877   6.217  1.00  0.00     0.174 C 
HETATM   31  C   UNL     1      39.375 -10.011   7.722  1.00  0.00     0.034 C 
ENDBRANCH  29  30
ENDBRANCH  27  29
ENDBRANCH   1  27
BRANCH   2  32
HETATM   32  C   UNL     1      39.410 -12.410   1.727  1.00  0.00     0.439 C 
HETATM   33  F   UNL     1      39.087 -13.412   2.569  1.00  0.00    -0.166 F 
HETATM   34  F   UNL     1      38.453 -12.372   0.763  1.00  0.00    -0.166 F 
HETATM   35  F   UNL     1      40.550 -12.782   1.100  1.00  0.00    -0.166 F 
ENDBRANCH   2  32
BRANCH   2  36
HETATM   36  O   UNL     1      38.255 -10.391   2.600  1.00  0.00    -0.363 OA
HETATM   37  H   UNL     1      37.741 -11.002   3.155  1.00  0.00     0.213 HD
ENDBRANCH   2  36
TORSDOF 8
ENDMDL
MODEL 6
REMARK VINA RESULT:      -8.0      7.621     10.735
REMARK  8 active torsions:
REMARK  status: ('A' for Active; 'I' for Inactive)
REMARK    1  A    between atoms: C_2  and  O_3 
REMARK    2  A    between atoms: O_3  and  C_4 
REMARK    3  A    between atoms: C_4  and  C_5 
REMARK    4  A    between atoms: C_6  and  C_8 
REMARK    5  A    between atoms: C_6  and  O_7 
REMARK    6  A    between atoms: C_16  and  C_17 
REMARK    7  A    between atoms: C_18  and  C_19 
REMARK    8  A    between atoms: N_26  and  C_27 
ROOT
HETATM    1  C   UNL     1      40.487  -7.376  12.318  1.00  0.00     0.177 C 
HETATM    2  C   UNL     1      40.979  -7.977  13.643  1.00  0.00     0.250 C 
HETATM    3  N   UNL     1      40.083  -9.078  13.981  1.00  0.00    -0.303 N 
HETATM    4  C   UNL     1      39.883 -10.081  13.089  1.00  0.00     0.319 C 
HETATM    5  O   UNL     1      39.505 -11.187  13.444  1.00  0.00    -0.247 OA
HETATM    6  N   UNL     1      40.153  -9.787  11.797  1.00  0.00    -0.333 N 
HETATM    7  C   UNL     1      40.293  -8.452  11.242  1.00  0.00     0.142 C 
HETATM    8  H   UNL     1      40.090  -9.414  14.938  1.00  0.00     0.167 HD
HETATM    9  H   UNL     1      39.991 -10.562  11.163  1.00  0.00     0.165 HD
ENDROOT
BRANCH   7  10
HETATM   10  C   UNL     1      41.278  -8.545  10.110  1.00  0.00     0.015 A 
HETATM   11  C   UNL     1      41.256  -7.832   8.864  1.00  0.00     0.097 A 
HETATM   12  N   UNL     1      42.316  -8.144   8.107  1.00  0.00    -0.167 NA
HETATM   13  N   UNL     1      43.030  -9.043   8.815  1.00  0.00    -0.244 N 
HETATM   14  C   UNL     1      42.426  -9.311  10.022  1.00  0.00     0.130 A 
BRANCH  11  15
HETATM   15  C   UNL     1      40.285  -6.857   8.360  1.00  0.00    -0.005 A 
HETATM   16  C   UNL     1      40.713  -5.559   8.041  1.00  0.00     0.014 A 
HETATM   17  C   UNL     1      39.814  -4.612   7.545  1.00  0.00     0.001 A 
HETATM   18  C   UNL     1      38.476  -4.953   7.363  1.00  0.00     0.000 A 
HETATM   19  C   UNL     1      38.040  -6.242   7.663  1.00  0.00     0.001 A 
HETATM   20  C   UNL     1      38.941  -7.193   8.150  1.00  0.00     0.014 A 
ENDBRANCH  11  15
BRANCH  13  21
HETATM   21  C   UNL     1      44.243  -9.583   8.300  1.00  0.00     0.058 A 
HETATM   22  C   UNL     1      44.225 -10.841   7.676  1.00  0.00     0.031 A 
HETATM   23  C   UNL     1      45.402 -11.388   7.160  1.00  0.00     0.002 A 
HETATM   24  C   UNL     1      46.601 -10.690   7.264  1.00  0.00     0.000 A 
HETATM   25  C   UNL     1      46.629  -9.442   7.885  1.00  0.00     0.002 A 
HETATM   26  C   UNL     1      45.455  -8.886   8.403  1.00  0.00     0.031 A 
ENDBRANCH  13  21
ENDBRANCH   7  10
BRANCH   1  27
HETATM   27  C   UNL     1      41.155  -6.122  11.802  1.00  0.00     0.270 C 
HETATM   28  O   UNL     1      42.371  -6.012  11.702  1.00  0.00    -0.265 OA
BRANCH  27  29
HETATM   29  O   UNL     1      40.271  -5.200  11.356  1.00  0.00    -0.321 OA
BRANCH  29  30
HETATM   30  C   UNL     1      39.074  -5.032  12.133  1.00  0.00     0.174 C 
HETATM   31  C   UNL     1      37.875  -4.840  11.224  1.00  0.00     0.034 C 
ENDBRANCH  29  30
ENDBRANCH  27  29
ENDBRANCH   1  27
BRANCH   2  32
HETATM   32  C   UNL     1      42.486  -8.441  13.668  1.00  0.00     0.439 C 
HETATM   33  F   UNL     1      43.027  -8.609  12.445  1.00  0.00    -0.166 F 
HETATM   34  F   UNL     1      43.251  -7.528  14.323  1.00  0.00    -0.166 F 
HETATM   35  F   UNL     1      42.656  -9.608  14.332  1.00  0.00    -0.166 F 
ENDBRANCH   2  32
BRANCH   2  36
HETATM   36  O   UNL     1      40.706  -7.050  14.703  1.00  0.00    -0.363 OA
HETATM   37  H   UNL     1      41.376  -7.222  15.386  1.00  0.00     0.213 HD
ENDBRANCH   2  36
TORSDOF 8
ENDMDL
MODEL 7
REMARK VINA RESULT:      -8.0      2.592      5.626
REMARK  8 active torsions:
REMARK  status: ('A' for Active; 'I' for Inactive)
REMARK    1  A    between atoms: C_2  and  O_3 
REMARK    2  A    between atoms: O_3  and  C_4 
REMARK    3  A    between atoms: C_4  and  C_5 
REMARK    4  A    between atoms: C_6  and  C_8 
REMARK    5  A    between atoms: C_6  and  O_7 
REMARK    6  A    between atoms: C_16  and  C_17 
REMARK    7  A    between atoms: C_18  and  C_19 
REMARK    8  A    between atoms: N_26  and  C_27 
ROOT
HETATM    1  C   UNL     1      42.360 -13.360   5.700  1.00  0.00     0.177 C 
HETATM    2  C   UNL     1      42.780 -14.836   5.787  1.00  0.00     0.250 C 
HETATM    3  N   UNL     1      41.877 -15.489   6.728  1.00  0.00    -0.303 N 
HETATM    4  C   UNL     1      40.536 -15.424   6.530  1.00  0.00     0.319 C 
HETATM    5  O   UNL     1      39.777 -16.255   7.005  1.00  0.00    -0.247 OA
HETATM    6  N   UNL     1      40.101 -14.403   5.757  1.00  0.00    -0.333 N 
HETATM    7  C   UNL     1      40.860 -13.211   5.420  1.00  0.00     0.142 C 
HETATM    8  H   UNL     1      42.162 -16.384   7.110  1.00  0.00     0.167 HD
HETATM    9  H   UNL     1      39.094 -14.389   5.633  1.00  0.00     0.165 HD
ENDROOT
BRANCH   7  10
HETATM   10  C   UNL     1      40.407 -12.770   4.055  1.00  0.00     0.015 A 
HETATM   11  C   UNL     1      40.138 -11.434   3.607  1.00  0.00     0.097 A 
HETATM   12  N   UNL     1      39.785 -11.416   2.315  1.00  0.00    -0.167 NA
HETATM   13  N   UNL     1      39.809 -12.700   1.903  1.00  0.00    -0.244 N 
HETATM   14  C   UNL     1      40.172 -13.540   2.931  1.00  0.00     0.130 A 
BRANCH  11  15
HETATM   15  C   UNL     1      40.213 -10.167   4.341  1.00  0.00    -0.005 A 
HETATM   16  C   UNL     1      39.209  -9.845   5.267  1.00  0.00     0.014 A 
HETATM   17  C   UNL     1      39.261  -8.652   5.992  1.00  0.00     0.001 A 
HETATM   18  C   UNL     1      40.320  -7.768   5.798  1.00  0.00     0.000 A 
HETATM   19  C   UNL     1      41.331  -8.081   4.892  1.00  0.00     0.001 A 
HETATM   20  C   UNL     1      41.284  -9.279   4.173  1.00  0.00     0.014 A 
ENDBRANCH  11  15
BRANCH  13  21
HETATM   21  C   UNL     1      39.492 -13.043   0.558  1.00  0.00     0.058 A 
HETATM   22  C   UNL     1      39.916 -14.280   0.046  1.00  0.00     0.031 A 
HETATM   23  C   UNL     1      39.613 -14.640  -1.269  1.00  0.00     0.002 A 
HETATM   24  C   UNL     1      38.888 -13.772  -2.081  1.00  0.00     0.000 A 
HETATM   25  C   UNL     1      38.465 -12.541  -1.582  1.00  0.00     0.002 A 
HETATM   26  C   UNL     1      38.764 -12.173  -0.266  1.00  0.00     0.031 A 
ENDBRANCH  13  21
ENDBRANCH   7  10
BRANCH   1  27
HETATM   27  C   UNL     1      43.220 -12.411   4.896  1.00  0.00     0.270 C 
HETATM   28  O   UNL     1      43.386 -12.529   3.688  1.00  0.00    -0.265 OA
BRANCH  27  29
HETATM   29  O   UNL     1      43.677 -11.368   5.626  1.00  0.00    -0.321 OA
BRANCH  29  30
HETATM   30  C   UNL     1      45.026 -11.466   6.108  1.00  0.00     0.174 C 
HETATM   31  C   UNL     1      45.090 -11.102   7.580  1.00  0.00     0.034 C 
ENDBRANCH  29  30
ENDBRANCH  27  29
ENDBRANCH   1  27
BRANCH   2  32
HETATM   32  C   UNL     1      42.838 -15.614   4.418  1.00  0.00     0.439 C 
HETATM   33  F   UNL     1      42.900 -14.813   3.335  1.00  0.00    -0.166 F 
HETATM   34  F   UNL     1      43.930 -16.424   4.380  1.00  0.00    -0.166 F 
HETATM   35  F   UNL     1      41.771 -16.426   4.240  1.00  0.00    -0.166 F 
ENDBRANCH   2  32
BRANCH   2  36
HETATM   36  O   UNL     1      44.031 -14.921   6.484  1.00  0.00    -0.363 OA
HETATM   37  H   UNL     1      44.107 -15.843   6.783  1.00  0.00     0.213 HD
ENDBRANCH   2  36
TORSDOF 8
ENDMDL
MODEL 8
REMARK VINA RESULT:      -7.9      1.745      5.015
REMARK  8 active torsions:
REMARK  status: ('A' for Active; 'I' for Inactive)
REMARK    1  A    between atoms: C_2  and  O_3 
REMARK    2  A    between atoms: O_3  and  C_4 
REMARK    3  A    between atoms: C_4  and  C_5 
REMARK    4  A    between atoms: C_6  and  C_8 
REMARK    5  A    between atoms: C_6  and  O_7 
REMARK    6  A    between atoms: C_16  and  C_17 
REMARK    7  A    between atoms: C_18  and  C_19 
REMARK    8  A    between atoms: N_26  and  C_27 
ROOT
HETATM    1  C   UNL     1      42.854 -12.547   5.413  1.00  0.00     0.177 C 
HETATM    2  C   UNL     1      41.593 -11.699   5.641  1.00  0.00     0.250 C 
HETATM    3  N   UNL     1      41.670 -10.554   4.740  1.00  0.00    -0.303 N 
HETATM    4  C   UNL     1      41.830 -10.757   3.407  1.00  0.00     0.319 C 
HETATM    5  O   UNL     1      41.495  -9.915   2.587  1.00  0.00    -0.247 OA
HETATM    6  N   UNL     1      42.356 -11.950   3.049  1.00  0.00    -0.333 N 
HETATM    7  C   UNL     1      43.067 -12.862   3.927  1.00  0.00     0.142 C 
HETATM    8  H   UNL     1      41.072  -9.759   4.935  1.00  0.00     0.167 HD
HETATM    9  H   UNL     1      42.459 -12.062   2.046  1.00  0.00     0.165 HD
ENDROOT
BRANCH   7  10
HETATM   10  C   UNL     1      42.800 -14.255   3.426  1.00  0.00     0.015 A 
HETATM   11  C   UNL     1      41.882 -14.659   2.400  1.00  0.00     0.097 A 
HETATM   12  N   UNL     1      41.935 -15.982   2.194  1.00  0.00    -0.167 NA
HETATM   13  N   UNL     1      42.854 -16.459   3.057  1.00  0.00    -0.244 N 
HETATM   14  C   UNL     1      43.388 -15.444   3.819  1.00  0.00     0.130 A 
BRANCH  11  15
HETATM   15  C   UNL     1      40.966 -13.850   1.591  1.00  0.00    -0.005 A 
HETATM   16  C   UNL     1      41.353 -13.448   0.303  1.00  0.00     0.014 A 
HETATM   17  C   UNL     1      40.495 -12.690  -0.497  1.00  0.00     0.001 A 
HETATM   18  C   UNL     1      39.240 -12.323  -0.017  1.00  0.00     0.000 A 
HETATM   19  C   UNL     1      38.838 -12.726   1.255  1.00  0.00     0.001 A 
HETATM   20  C   UNL     1      39.692 -13.494   2.052  1.00  0.00     0.014 A 
ENDBRANCH  11  15
BRANCH  13  21
HETATM   21  C   UNL     1      43.171 -17.846   3.097  1.00  0.00     0.058 A 
HETATM   22  C   UNL     1      43.833 -18.368   4.220  1.00  0.00     0.031 A 
HETATM   23  C   UNL     1      44.150 -19.727   4.283  1.00  0.00     0.002 A 
HETATM   24  C   UNL     1      43.811 -20.573   3.230  1.00  0.00     0.000 A 
HETATM   25  C   UNL     1      43.155 -20.063   2.111  1.00  0.00     0.002 A 
HETATM   26  C   UNL     1      42.833 -18.703   2.040  1.00  0.00     0.031 A 
ENDBRANCH  13  21
ENDBRANCH   7  10
BRANCH   1  27
HETATM   27  C   UNL     1      43.103 -13.729   6.321  1.00  0.00     0.270 C 
HETATM   28  O   UNL     1      44.227 -14.092   6.643  1.00  0.00    -0.265 OA
BRANCH  27  29
HETATM   29  O   UNL     1      41.963 -14.255   6.826  1.00  0.00    -0.321 OA
BRANCH  29  30
HETATM   30  C   UNL     1      41.975 -15.664   7.102  1.00  0.00     0.174 C 
HETATM   31  C   UNL     1      40.895 -16.370   6.302  1.00  0.00     0.034 C 
ENDBRANCH  29  30
ENDBRANCH  27  29
ENDBRANCH   1  27
BRANCH   2  32
HETATM   32  C   UNL     1      40.220 -12.456   5.485  1.00  0.00     0.439 C 
HETATM   33  F   UNL     1      40.325 -13.662   4.891  1.00  0.00    -0.166 F 
HETATM   34  F   UNL     1      39.648 -12.657   6.702  1.00  0.00    -0.166 F 
HETATM   35  F   UNL     1      39.318 -11.747   4.767  1.00  0.00    -0.166 F 
ENDBRANCH   2  32
BRANCH   2  36
HETATM   36  O   UNL     1      41.689 -11.061   6.923  1.00  0.00    -0.363 OA
HETATM   37  H   UNL     1      41.973 -10.148   6.745  1.00  0.00     0.213 HD
ENDBRANCH   2  36
TORSDOF 8
ENDMDL
MODEL 9
REMARK VINA RESULT:      -7.7     16.394     18.260
REMARK  8 active torsions:
REMARK  status: ('A' for Active; 'I' for Inactive)
REMARK    1  A    between atoms: C_2  and  O_3 
REMARK    2  A    between atoms: O_3  and  C_4 
REMARK    3  A    between atoms: C_4  and  C_5 
REMARK    4  A    between atoms: C_6  and  C_8 
REMARK    5  A    between atoms: C_6  and  O_7 
REMARK    6  A    between atoms: C_16  and  C_17 
REMARK    7  A    between atoms: C_18  and  C_19 
REMARK    8  A    between atoms: N_26  and  C_27 
ROOT
HETATM    1  C   UNL     1      47.836 -30.244   0.389  1.00  0.00     0.177 C 
HETATM    2  C   UNL     1      48.695 -30.776   1.546  1.00  0.00     0.250 C 
HETATM    3  N   UNL     1      49.239 -29.620   2.250  1.00  0.00    -0.303 N 
HETATM    4  C   UNL     1      48.400 -28.666   2.727  1.00  0.00     0.319 C 
HETATM    5  O   UNL     1      48.726 -27.928   3.645  1.00  0.00    -0.247 OA
HETATM    6  N   UNL     1      47.183 -28.603   2.143  1.00  0.00    -0.333 N 
HETATM    7  C   UNL     1      46.821 -29.197   0.867  1.00  0.00     0.142 C 
HETATM    8  H   UNL     1      50.031 -29.773   2.865  1.00  0.00     0.167 HD
HETATM    9  H   UNL     1      46.586 -27.878   2.527  1.00  0.00     0.165 HD
ENDROOT
BRANCH   7  10
HETATM   10  C   UNL     1      45.366 -29.568   0.949  1.00  0.00     0.015 A 
HETATM   11  C   UNL     1      44.401 -29.580  -0.113  1.00  0.00     0.097 A 
HETATM   12  N   UNL     1      43.205 -29.997   0.322  1.00  0.00    -0.167 NA
HETATM   13  N   UNL     1      43.354 -30.254   1.637  1.00  0.00    -0.244 N 
HETATM   14  C   UNL     1      44.643 -29.998   2.047  1.00  0.00     0.130 A 
BRANCH  11  15
HETATM   15  C   UNL     1      44.560 -29.229  -1.527  1.00  0.00    -0.005 A 
HETATM   16  C   UNL     1      43.960 -30.032  -2.510  1.00  0.00     0.014 A 
HETATM   17  C   UNL     1      44.082 -29.715  -3.864  1.00  0.00     0.001 A 
HETATM   18  C   UNL     1      44.806 -28.589  -4.252  1.00  0.00     0.000 A 
HETATM   19  C   UNL     1      45.395 -27.775  -3.286  1.00  0.00     0.001 A 
HETATM   20  C   UNL     1      45.266 -28.087  -1.930  1.00  0.00     0.014 A 
ENDBRANCH  11  15
BRANCH  13  21
HETATM   21  C   UNL     1      42.264 -30.733   2.418  1.00  0.00     0.058 A 
HETATM   22  C   UNL     1      42.200 -30.407   3.782  1.00  0.00     0.031 A 
HETATM   23  C   UNL     1      41.137 -30.862   4.567  1.00  0.00     0.002 A 
HETATM   24  C   UNL     1      40.135 -31.645   3.999  1.00  0.00     0.000 A 
HETATM   25  C   UNL     1      40.192 -31.975   2.646  1.00  0.00     0.002 A 
HETATM   26  C   UNL     1      41.252 -31.522   1.853  1.00  0.00     0.031 A 
ENDBRANCH  13  21
ENDBRANCH   7  10
BRANCH   1  27
HETATM   27  C   UNL     1      47.259 -31.234  -0.597  1.00  0.00     0.270 C 
HETATM   28  O   UNL     1      46.542 -32.167  -0.257  1.00  0.00    -0.265 OA
BRANCH  27  29
HETATM   29  O   UNL     1      47.518 -30.908  -1.884  1.00  0.00    -0.321 OA
BRANCH  29  30
HETATM   30  C   UNL     1      47.756 -32.000  -2.786  1.00  0.00     0.174 C 
HETATM   31  C   UNL     1      46.900 -31.856  -4.030  1.00  0.00     0.034 C 
ENDBRANCH  29  30
ENDBRANCH  27  29
ENDBRANCH   1  27
BRANCH   2  32
HETATM   32  C   UNL     1      47.972 -31.761   2.541  1.00  0.00     0.439 C 
HETATM   33  F   UNL     1      46.638 -31.575   2.622  1.00  0.00    -0.166 F 
HETATM   34  F   UNL     1      48.174 -33.051   2.162  1.00  0.00    -0.166 F 
HETATM   35  F   UNL     1      48.454 -31.668   3.802  1.00  0.00    -0.166 F 
ENDBRANCH   2  32
BRANCH   2  36
HETATM   36  O   UNL     1      49.885 -31.368   1.005  1.00  0.00    -0.363 OA
HETATM   37  H   UNL     1      49.650 -31.666   0.110  1.00  0.00     0.213 HD
ENDBRANCH   2  36
TORSDOF 8
ENDMDL
MODEL 10
REMARK VINA RESULT:      -7.6      2.868      5.732
REMARK  8 active torsions:
REMARK  status: ('A' for Active; 'I' for Inactive)
REMARK    1  A    between atoms: C_2  and  O_3 
REMARK    2  A    between atoms: O_3  and  C_4 
REMARK    3  A    between atoms: C_4  and  C_5 
REMARK    4  A    between atoms: C_6  and  C_8 
REMARK    5  A    between atoms: C_6  and  O_7 
REMARK    6  A    between atoms: C_16  and  C_17 
REMARK    7  A    between atoms: C_18  and  C_19 
REMARK    8  A    between atoms: N_26  and  C_27 
ROOT
HETATM    1  C   UNL     1      39.874  -9.885   5.186  1.00  0.00     0.177 C 
HETATM    2  C   UNL     1      38.894  -9.638   4.029  1.00  0.00     0.250 C 
HETATM    3  N   UNL     1      39.340  -8.438   3.330  1.00  0.00    -0.303 N 
HETATM    4  C   UNL     1      40.610  -8.367   2.856  1.00  0.00     0.319 C 
HETATM    5  O   UNL     1      40.911  -7.614   1.941  1.00  0.00    -0.247 OA
HETATM    6  N   UNL     1      41.506  -9.195   3.438  1.00  0.00    -0.333 N 
HETATM    7  C   UNL     1      41.332  -9.874   4.710  1.00  0.00     0.142 C 
HETATM    8  H   UNL     1      38.678  -7.976   2.716  1.00  0.00     0.167 HD
HETATM    9  H   UNL     1      42.442  -9.112   3.056  1.00  0.00     0.165 HD
ENDROOT
BRANCH   7  10
HETATM   10  C   UNL     1      42.086 -11.173   4.624  1.00  0.00     0.015 A 
HETATM   11  C   UNL     1      43.150 -11.629   5.472  1.00  0.00     0.097 A 
HETATM   12  N   UNL     1      43.563 -12.853   5.119  1.00  0.00    -0.167 NA
HETATM   13  N   UNL     1      42.806 -13.212   4.062  1.00  0.00    -0.244 N 
HETATM   14  C   UNL     1      41.912 -12.217   3.735  1.00  0.00     0.130 A 
BRANCH  11  15
HETATM   15  C   UNL     1      43.788 -10.966   6.614  1.00  0.00    -0.005 A 
HETATM   16  C   UNL     1      42.994 -10.273   7.541  1.00  0.00     0.014 A 
HETATM   17  C   UNL     1      43.571  -9.645   8.647  1.00  0.00     0.001 A 
HETATM   18  C   UNL     1      44.950  -9.702   8.838  1.00  0.00     0.000 A 
HETATM   19  C   UNL     1      45.749 -10.398   7.932  1.00  0.00     0.001 A 
HETATM   20  C   UNL     1      45.171 -11.036   6.831  1.00  0.00     0.014 A 
ENDBRANCH  11  15
BRANCH  13  21
HETATM   21  C   UNL     1      42.976 -14.480   3.436  1.00  0.00     0.058 A 
HETATM   22  C   UNL     1      42.934 -15.645   4.219  1.00  0.00     0.031 A 
HETATM   23  C   UNL     1      43.094 -16.899   3.625  1.00  0.00     0.002 A 
HETATM   24  C   UNL     1      43.299 -17.001   2.252  1.00  0.00     0.000 A 
HETATM   25  C   UNL     1      43.345 -15.849   1.467  1.00  0.00     0.002 A 
HETATM   26  C   UNL     1      43.183 -14.590   2.054  1.00  0.00     0.031 A 
ENDBRANCH  13  21
ENDBRANCH   7  10
BRANCH   1  27
HETATM   27  C   UNL     1      39.568 -10.994   6.167  1.00  0.00     0.270 C 
HETATM   28  O   UNL     1      40.030 -12.123   6.055  1.00  0.00    -0.265 OA
BRANCH  27  29
HETATM   29  O   UNL     1      38.841 -10.574   7.227  1.00  0.00    -0.321 OA
BRANCH  29  30
HETATM   30  C   UNL     1      39.364  -9.454   7.958  1.00  0.00     0.174 C 
HETATM   31  C   UNL     1      39.202  -9.673   9.451  1.00  0.00     0.034 C 
ENDBRANCH  29  30
ENDBRANCH  27  29
ENDBRANCH   1  27
BRANCH   2  32
HETATM   32  C   UNL     1      38.699 -10.840   3.028  1.00  0.00     0.439 C 
HETATM   33  F   UNL     1      37.536 -10.802   2.346  1.00  0.00    -0.166 F 
HETATM   34  F   UNL     1      39.701 -10.860   2.110  1.00  0.00    -0.166 F 
HETATM   35  F   UNL     1      38.745 -12.042   3.649  1.00  0.00    -0.166 F 
ENDBRANCH   2  32
BRANCH   2  36
HETATM   36  O   UNL     1      37.638  -9.206   4.569  1.00  0.00    -0.363 OA
HETATM   37  H   UNL     1      37.608  -9.546   5.479  1.00  0.00     0.213 HD
ENDBRANCH   2  36
TORSDOF 8
ENDMDL
