MODEL 1
REMARK VINA RESULT:      -7.7      0.000      0.000
REMARK  8 active torsions:
REMARK  status: ('A' for Active; 'I' for Inactive)
REMARK    1  A    between atoms: C_2  and  C_3 
REMARK    2  A    between atoms: C_7  and  C_8 
REMARK       I    between atoms: C_8  and  N_9 
REMARK    3  A    between atoms: N_9  and  C_10 
REMARK    4  A    between atoms: C_10  and  C_11 
REMARK    5  A    between atoms: C_11  and  O_12 
REMARK    6  A    between atoms: C_11  and  C_13 
REMARK    7  A    between atoms: C_13  and  O_14 
REMARK    8  A    between atoms: O_14  and  C_15 
ROOT
HETATM    1  C   UNL     1      40.729 -13.727   1.642  1.00  0.00     0.269 C 
HETATM    2  N   UNL     1      39.646 -13.723   2.480  1.00  0.00    -0.353 N 
HETATM    3  O   UNL     1      40.965 -12.808   0.864  1.00  0.00    -0.266 OA
HETATM    4  H   UNL     1      39.385 -14.565   2.973  1.00  0.00     0.162 HD
ENDROOT
BRANCH   1   5
HETATM    5  C   UNL     1      41.595 -14.869   1.774  1.00  0.00     0.120 A 
HETATM    6  N   UNL     1      42.802 -14.940   1.136  1.00  0.00    -0.272 N 
HETATM    7  N   UNL     1      43.535 -16.017   1.460  1.00  0.00    -0.174 NA
HETATM    8  H   UNL     1      43.192 -14.256   0.496  1.00  0.00     0.189 HD
HETATM    9  C   UNL     1      42.774 -16.695   2.333  1.00  0.00     0.089 A 
HETATM   10  C   UNL     1      41.534 -16.024   2.531  1.00  0.00     0.071 A 
BRANCH   9  11
HETATM   11  C   UNL     1      43.249 -17.917   2.989  1.00  0.00    -0.005 A 
HETATM   12  C   UNL     1      43.662 -17.884   4.332  1.00  0.00     0.017 A 
HETATM   13  C   UNL     1      44.072 -19.052   4.982  1.00  0.00     0.043 A 
HETATM   14  C   UNL     1      44.077 -20.254   4.287  1.00  0.00     0.116 A 
HETATM   15  C   UNL     1      43.685 -20.311   2.955  1.00  0.00     0.043 A 
HETATM   16  F   UNL     1      44.463 -21.376   4.908  1.00  0.00    -0.206 F 
HETATM   17  C   UNL     1      43.270 -19.144   2.305  1.00  0.00     0.017 A 
ENDBRANCH   9  11
ENDBRANCH   1   5
BRANCH   2  18
HETATM   18  C   UNL     1      38.808 -12.561   2.699  1.00  0.00     0.156 C 
BRANCH  18  19
HETATM   19  C   UNL     1      39.285 -11.655   3.835  1.00  0.00     0.159 C 
BRANCH  19  20
HETATM   20  O   UNL     1      40.377 -10.834   3.389  1.00  0.00    -0.392 OA
HETATM   21  H   UNL     1      40.267 -10.787   2.417  1.00  0.00     0.210 HD
ENDBRANCH  19  20
BRANCH  19  22
HETATM   22  C   UNL     1      39.681 -12.414   5.105  1.00  0.00     0.201 C 
BRANCH  22  23
HETATM   23  O   UNL     1      41.119 -12.412   5.139  1.00  0.00    -0.383 OA
BRANCH  23  24
HETATM   24  C   UNL     1      41.696 -13.699   5.377  1.00  0.00     0.121 C 
HETATM   25  C   UNL     1      40.585 -14.591   5.941  1.00  0.00     0.032 C 
HETATM   26  C   UNL     1      41.101 -15.978   6.308  1.00  0.00     0.002 C 
HETATM   27  C   UNL     1      42.280 -15.896   7.272  1.00  0.00     0.000 C 
HETATM   28  C   UNL     1      43.391 -15.001   6.730  1.00  0.00     0.002 C 
HETATM   29  C   UNL     1      42.872 -13.614   6.353  1.00  0.00     0.032 C 
ENDBRANCH  23  24
ENDBRANCH  22  23
ENDBRANCH  19  22
ENDBRANCH  18  19
ENDBRANCH   2  18
TORSDOF 8
ENDMDL
MODEL 2
REMARK VINA RESULT:      -7.4      2.392      4.045
REMARK  8 active torsions:
REMARK  status: ('A' for Active; 'I' for Inactive)
REMARK    1  A    between atoms: C_2  and  C_3 
REMARK    2  A    between atoms: C_7  and  C_8 
REMARK       I    between atoms: C_8  and  N_9 
REMARK    3  A    between atoms: N_9  and  C_10 
REMARK    4  A    between atoms: C_10  and  C_11 
REMARK    5  A    between atoms: C_11  and  O_12 
REMARK    6  A    between atoms: C_11  and  C_13 
REMARK    7  A    between atoms: C_13  and  O_14 
REMARK    8  A    between atoms: O_14  and  C_15 
ROOT
HETATM    1  C   UNL     1      43.309 -13.437   6.786  1.00  0.00     0.269 C 
HETATM    2  N   UNL     1      42.338 -12.889   5.990  1.00  0.00    -0.353 N 
HETATM    3  O   UNL     1      43.950 -12.775   7.596  1.00  0.00    -0.266 OA
HETATM    4  H   UNL     1      41.959 -13.418   5.217  1.00  0.00     0.162 HD
ENDROOT
BRANCH   1   5
HETATM    5  C   UNL     1      43.490 -14.857   6.632  1.00  0.00     0.120 A 
HETATM    6  N   UNL     1      43.356 -15.721   7.682  1.00  0.00    -0.272 N 
HETATM    7  N   UNL     1      43.440 -17.018   7.344  1.00  0.00    -0.174 NA
HETATM    8  H   UNL     1      43.165 -15.478   8.649  1.00  0.00     0.189 HD
HETATM    9  C   UNL     1      43.659 -17.009   6.020  1.00  0.00     0.089 A 
HETATM   10  C   UNL     1      43.730 -15.671   5.541  1.00  0.00     0.071 A 
BRANCH   9  11
HETATM   11  C   UNL     1      43.743 -18.248   5.241  1.00  0.00    -0.005 A 
HETATM   12  C   UNL     1      43.840 -18.197   3.839  1.00  0.00     0.017 A 
HETATM   13  C   UNL     1      43.969 -19.370   3.090  1.00  0.00     0.043 A 
HETATM   14  C   UNL     1      43.993 -20.597   3.740  1.00  0.00     0.116 A 
HETATM   15  C   UNL     1      43.886 -20.675   5.123  1.00  0.00     0.043 A 
HETATM   16  F   UNL     1      44.123 -21.722   3.025  1.00  0.00    -0.206 F 
HETATM   17  C   UNL     1      43.762 -19.502   5.875  1.00  0.00     0.017 A 
ENDBRANCH   9  11
ENDBRANCH   1   5
BRANCH   2  18
HETATM   18  C   UNL     1      41.814 -11.550   6.175  1.00  0.00     0.156 C 
BRANCH  18  19
HETATM   19  C   UNL     1      40.324 -11.416   5.863  1.00  0.00     0.159 C 
BRANCH  19  20
HETATM   20  O   UNL     1      39.547 -12.110   6.853  1.00  0.00    -0.392 OA
HETATM   21  H   UNL     1      38.885 -11.453   7.151  1.00  0.00     0.210 HD
ENDBRANCH  19  20
BRANCH  19  22
HETATM   22  C   UNL     1      39.940 -11.897   4.460  1.00  0.00     0.201 C 
BRANCH  22  23
HETATM   23  O   UNL     1      39.880 -13.332   4.533  1.00  0.00    -0.383 OA
BRANCH  23  24
HETATM   24  C   UNL     1      40.233 -13.992   3.314  1.00  0.00     0.121 C 
HETATM   25  C   UNL     1      40.616 -15.430   3.678  1.00  0.00     0.032 C 
HETATM   26  C   UNL     1      41.087 -16.218   2.461  1.00  0.00     0.002 C 
HETATM   27  C   UNL     1      42.235 -15.509   1.750  1.00  0.00     0.000 C 
HETATM   28  C   UNL     1      41.875 -14.070   1.392  1.00  0.00     0.002 C 
HETATM   29  C   UNL     1      41.393 -13.284   2.609  1.00  0.00     0.032 C 
ENDBRANCH  23  24
ENDBRANCH  22  23
ENDBRANCH  19  22
ENDBRANCH  18  19
ENDBRANCH   2  18
TORSDOF 8
ENDMDL
MODEL 3
REMARK VINA RESULT:      -7.3      4.740      5.924
REMARK  8 active torsions:
REMARK  status: ('A' for Active; 'I' for Inactive)
REMARK    1  A    between atoms: C_2  and  C_3 
REMARK    2  A    between atoms: C_7  and  C_8 
REMARK       I    between atoms: C_8  and  N_9 
REMARK    3  A    between atoms: N_9  and  C_10 
REMARK    4  A    between atoms: C_10  and  C_11 
REMARK    5  A    between atoms: C_11  and  O_12 
REMARK    6  A    between atoms: C_11  and  C_13 
REMARK    7  A    between atoms: C_13  and  O_14 
REMARK    8  A    between atoms: O_14  and  C_15 
ROOT
HETATM    1  C   UNL     1      42.859 -12.671   6.312  1.00  0.00     0.269 C 
HETATM    2  N   UNL     1      43.542 -12.165   7.386  1.00  0.00    -0.353 N 
HETATM    3  O   UNL     1      42.060 -12.003   5.664  1.00  0.00    -0.266 OA
HETATM    4  H   UNL     1      44.052 -12.785   7.999  1.00  0.00     0.162 HD
ENDROOT
BRANCH   1   5
HETATM    5  C   UNL     1      43.183 -14.032   5.973  1.00  0.00     0.120 A 
HETATM    6  N   UNL     1      43.540 -14.948   6.922  1.00  0.00    -0.272 N 
HETATM    7  N   UNL     1      43.693 -16.197   6.453  1.00  0.00    -0.174 NA
HETATM    8  H   UNL     1      43.654 -14.781   7.916  1.00  0.00     0.189 HD
HETATM    9  C   UNL     1      43.447 -16.097   5.138  1.00  0.00     0.089 A 
HETATM   10  C   UNL     1      43.155 -14.749   4.792  1.00  0.00     0.071 A 
BRANCH   9  11
HETATM   11  C   UNL     1      43.443 -17.272   4.260  1.00  0.00    -0.005 A 
HETATM   12  C   UNL     1      42.808 -17.216   3.007  1.00  0.00     0.017 A 
HETATM   13  C   UNL     1      42.839 -18.313   2.141  1.00  0.00     0.043 A 
HETATM   14  C   UNL     1      43.497 -19.472   2.531  1.00  0.00     0.116 A 
HETATM   15  C   UNL     1      44.122 -19.557   3.769  1.00  0.00     0.043 A 
HETATM   16  F   UNL     1      43.534 -20.523   1.702  1.00  0.00    -0.206 F 
HETATM   17  C   UNL     1      44.096 -18.458   4.634  1.00  0.00     0.017 A 
ENDBRANCH   9  11
ENDBRANCH   1   5
BRANCH   2  18
HETATM   18  C   UNL     1      43.569 -10.756   7.725  1.00  0.00     0.156 C 
BRANCH  18  19
HETATM   19  C   UNL     1      44.957 -10.230   8.093  1.00  0.00     0.159 C 
BRANCH  19  20
HETATM   20  O   UNL     1      45.972 -11.054   7.498  1.00  0.00    -0.392 OA
HETATM   21  H   UNL     1      45.478 -11.684   6.935  1.00  0.00     0.210 HD
ENDBRANCH  19  20
BRANCH  19  22
HETATM   22  C   UNL     1      45.191 -10.110   9.602  1.00  0.00     0.201 C 
BRANCH  22  23
HETATM   23  O   UNL     1      44.135 -10.858  10.230  1.00  0.00    -0.383 OA
BRANCH  23  24
HETATM   24  C   UNL     1      43.242 -10.059  11.011  1.00  0.00     0.121 C 
HETATM   25  C   UNL     1      43.865  -8.663  11.115  1.00  0.00     0.032 C 
HETATM   26  C   UNL     1      43.035  -7.735  11.995  1.00  0.00     0.002 C 
HETATM   27  C   UNL     1      42.806  -8.336  13.377  1.00  0.00     0.000 C 
HETATM   28  C   UNL     1      42.197  -9.733  13.291  1.00  0.00     0.002 C 
HETATM   29  C   UNL     1      43.023 -10.660  12.402  1.00  0.00     0.032 C 
ENDBRANCH  23  24
ENDBRANCH  22  23
ENDBRANCH  19  22
ENDBRANCH  18  19
ENDBRANCH   2  18
TORSDOF 8
ENDMDL
MODEL 4
REMARK VINA RESULT:      -7.3      2.603      4.163
REMARK  8 active torsions:
REMARK  status: ('A' for Active; 'I' for Inactive)
REMARK    1  A    between atoms: C_2  and  C_3 
REMARK    2  A    between atoms: C_7  and  C_8 
REMARK       I    between atoms: C_8  and  N_9 
REMARK    3  A    between atoms: N_9  and  C_10 
REMARK    4  A    between atoms: C_10  and  C_11 
REMARK    5  A    between atoms: C_11  and  O_12 
REMARK    6  A    between atoms: C_11  and  C_13 
REMARK    7  A    between atoms: C_13  and  O_14 
REMARK    8  A    between atoms: O_14  and  C_15 
ROOT
HETATM    1  C   UNL     1      43.639 -13.184   6.830  1.00  0.00     0.269 C 
HETATM    2  N   UNL     1      43.336 -12.505   5.680  1.00  0.00    -0.353 N 
HETATM    3  O   UNL     1      43.914 -12.613   7.880  1.00  0.00    -0.266 OA
HETATM    4  H   UNL     1      43.290 -12.997   4.799  1.00  0.00     0.162 HD
ENDROOT
BRANCH   1   5
HETATM    5  C   UNL     1      43.567 -14.618   6.725  1.00  0.00     0.120 A 
HETATM    6  N   UNL     1      42.778 -15.365   7.554  1.00  0.00    -0.272 N 
HETATM    7  N   UNL     1      42.735 -16.671   7.246  1.00  0.00    -0.174 NA
HETATM    8  H   UNL     1      42.213 -15.025   8.324  1.00  0.00     0.189 HD
HETATM    9  C   UNL     1      43.545 -16.795   6.182  1.00  0.00     0.089 A 
HETATM   10  C   UNL     1      44.113 -15.534   5.845  1.00  0.00     0.071 A 
BRANCH   9  11
HETATM   11  C   UNL     1      43.721 -18.074   5.488  1.00  0.00    -0.005 A 
HETATM   12  C   UNL     1      43.602 -19.284   6.194  1.00  0.00     0.017 A 
HETATM   13  C   UNL     1      43.721 -20.510   5.533  1.00  0.00     0.043 A 
HETATM   14  C   UNL     1      43.968 -20.529   4.167  1.00  0.00     0.116 A 
HETATM   15  C   UNL     1      44.102 -19.347   3.449  1.00  0.00     0.043 A 
HETATM   16  F   UNL     1      44.076 -21.702   3.530  1.00  0.00    -0.206 F 
HETATM   17  C   UNL     1      43.979 -18.120   4.108  1.00  0.00     0.017 A 
ENDBRANCH   9  11
ENDBRANCH   1   5
BRANCH   2  18
HETATM   18  C   UNL     1      43.087 -11.078   5.636  1.00  0.00     0.156 C 
BRANCH  18  19
HETATM   19  C   UNL     1      42.585 -10.574   4.282  1.00  0.00     0.159 C 
BRANCH  19  20
HETATM   20  O   UNL     1      41.164 -10.373   4.324  1.00  0.00    -0.392 OA
HETATM   21  H   UNL     1      41.045  -9.417   4.152  1.00  0.00     0.210 HD
ENDBRANCH  19  20
BRANCH  19  22
HETATM   22  C   UNL     1      42.955 -11.487   3.108  1.00  0.00     0.201 C 
BRANCH  22  23
HETATM   23  O   UNL     1      41.799 -12.307   2.863  1.00  0.00    -0.383 OA
BRANCH  23  24
HETATM   24  C   UNL     1      42.036 -13.709   3.024  1.00  0.00     0.121 C 
HETATM   25  C   UNL     1      42.400 -14.263   1.642  1.00  0.00     0.032 C 
HETATM   26  C   UNL     1      42.603 -15.774   1.672  1.00  0.00     0.002 C 
HETATM   27  C   UNL     1      41.383 -16.488   2.243  1.00  0.00     0.000 C 
HETATM   28  C   UNL     1      40.998 -15.939   3.614  1.00  0.00     0.002 C 
HETATM   29  C   UNL     1      40.805 -14.424   3.587  1.00  0.00     0.032 C 
ENDBRANCH  23  24
ENDBRANCH  22  23
ENDBRANCH  19  22
ENDBRANCH  18  19
ENDBRANCH   2  18
TORSDOF 8
ENDMDL
MODEL 5
REMARK VINA RESULT:      -7.2      3.430      6.609
REMARK  8 active torsions:
REMARK  status: ('A' for Active; 'I' for Inactive)
REMARK    1  A    between atoms: C_2  and  C_3 
REMARK    2  A    between atoms: C_7  and  C_8 
REMARK       I    between atoms: C_8  and  N_9 
REMARK    3  A    between atoms: N_9  and  C_10 
REMARK    4  A    between atoms: C_10  and  C_11 
REMARK    5  A    between atoms: C_11  and  O_12 
REMARK    6  A    between atoms: C_11  and  C_13 
REMARK    7  A    between atoms: C_13  and  O_14 
REMARK    8  A    between atoms: O_14  and  C_15 
ROOT
HETATM    1  C   UNL     1      40.721 -14.022   5.503  1.00  0.00     0.269 C 
HETATM    2  N   UNL     1      42.021 -14.442   5.611  1.00  0.00    -0.353 N 
HETATM    3  O   UNL     1      39.992 -13.876   6.479  1.00  0.00    -0.266 OA
HETATM    4  H   UNL     1      42.533 -14.719   4.786  1.00  0.00     0.162 HD
ENDROOT
BRANCH   1   5
HETATM    5  C   UNL     1      40.290 -13.721   4.163  1.00  0.00     0.120 A 
HETATM    6  N   UNL     1      39.125 -13.053   3.911  1.00  0.00    -0.272 N 
HETATM    7  N   UNL     1      38.931 -12.750   2.618  1.00  0.00    -0.174 NA
HETATM    8  H   UNL     1      38.442 -12.744   4.595  1.00  0.00     0.189 HD
HETATM    9  C   UNL     1      40.003 -13.255   1.987  1.00  0.00     0.089 A 
HETATM   10  C   UNL     1      40.863 -13.902   2.918  1.00  0.00     0.071 A 
BRANCH   9  11
HETATM   11  C   UNL     1      40.211 -13.074   0.547  1.00  0.00    -0.005 A 
HETATM   12  C   UNL     1      40.815 -11.901   0.062  1.00  0.00     0.017 A 
HETATM   13  C   UNL     1      41.061 -11.738  -1.304  1.00  0.00     0.043 A 
HETATM   14  C   UNL     1      40.697 -12.744  -2.189  1.00  0.00     0.116 A 
HETATM   15  C   UNL     1      40.087 -13.908  -1.736  1.00  0.00     0.043 A 
HETATM   16  F   UNL     1      40.938 -12.593  -3.498  1.00  0.00    -0.206 F 
HETATM   17  C   UNL     1      39.844 -14.074  -0.369  1.00  0.00     0.017 A 
ENDBRANCH   9  11
ENDBRANCH   1   5
BRANCH   2  18
HETATM   18  C   UNL     1      42.728 -14.536   6.873  1.00  0.00     0.156 C 
BRANCH  18  19
HETATM   19  C   UNL     1      43.066 -15.967   7.293  1.00  0.00     0.159 C 
BRANCH  19  20
HETATM   20  O   UNL     1      43.279 -16.029   8.712  1.00  0.00    -0.392 OA
HETATM   21  H   UNL     1      43.632 -16.929   8.868  1.00  0.00     0.210 HD
ENDBRANCH  19  20
BRANCH  19  22
HETATM   22  C   UNL     1      44.269 -16.560   6.552  1.00  0.00     0.201 C 
BRANCH  22  23
HETATM   23  O   UNL     1      44.015 -16.354   5.151  1.00  0.00    -0.383 OA
BRANCH  23  24
HETATM   24  C   UNL     1      43.462 -17.494   4.487  1.00  0.00     0.121 C 
HETATM   25  C   UNL     1      44.412 -18.668   4.746  1.00  0.00     0.032 C 
HETATM   26  C   UNL     1      43.965 -19.932   4.020  1.00  0.00     0.002 C 
HETATM   27  C   UNL     1      43.797 -19.684   2.525  1.00  0.00     0.000 C 
HETATM   28  C   UNL     1      42.863 -18.509   2.249  1.00  0.00     0.002 C 
HETATM   29  C   UNL     1      43.305 -17.245   2.984  1.00  0.00     0.032 C 
ENDBRANCH  23  24
ENDBRANCH  22  23
ENDBRANCH  19  22
ENDBRANCH  18  19
ENDBRANCH   2  18
TORSDOF 8
ENDMDL
MODEL 6
REMARK VINA RESULT:      -7.2      4.067      6.296
REMARK  8 active torsions:
REMARK  status: ('A' for Active; 'I' for Inactive)
REMARK    1  A    between atoms: C_2  and  C_3 
REMARK    2  A    between atoms: C_7  and  C_8 
REMARK       I    between atoms: C_8  and  N_9 
REMARK    3  A    between atoms: N_9  and  C_10 
REMARK    4  A    between atoms: C_10  and  C_11 
REMARK    5  A    between atoms: C_11  and  O_12 
REMARK    6  A    between atoms: C_11  and  C_13 
REMARK    7  A    between atoms: C_13  and  O_14 
REMARK    8  A    between atoms: O_14  and  C_15 
ROOT
HETATM    1  C   UNL     1      40.684 -14.429   0.705  1.00  0.00     0.269 C 
HETATM    2  N   UNL     1      40.888 -14.041  -0.592  1.00  0.00    -0.353 N 
HETATM    3  O   UNL     1      39.719 -14.050   1.363  1.00  0.00    -0.266 OA
HETATM    4  H   UNL     1      41.774 -14.225  -1.042  1.00  0.00     0.162 HD
ENDROOT
BRANCH   1   5
HETATM    5  C   UNL     1      41.660 -15.350   1.224  1.00  0.00     0.120 A 
HETATM    6  N   UNL     1      43.002 -15.116   1.122  1.00  0.00    -0.272 N 
HETATM    7  N   UNL     1      43.770 -16.013   1.761  1.00  0.00    -0.174 NA
HETATM    8  H   UNL     1      43.448 -14.330   0.659  1.00  0.00     0.189 HD
HETATM    9  C   UNL     1      42.899 -16.887   2.289  1.00  0.00     0.089 A 
HETATM   10  C   UNL     1      41.567 -16.525   1.947  1.00  0.00     0.071 A 
BRANCH   9  11
HETATM   11  C   UNL     1      43.338 -18.001   3.136  1.00  0.00    -0.005 A 
HETATM   12  C   UNL     1      43.574 -17.797   4.507  1.00  0.00     0.017 A 
HETATM   13  C   UNL     1      43.947 -18.861   5.333  1.00  0.00     0.043 A 
HETATM   14  C   UNL     1      44.093 -20.130   4.789  1.00  0.00     0.116 A 
HETATM   15  C   UNL     1      43.878 -20.355   3.435  1.00  0.00     0.043 A 
HETATM   16  F   UNL     1      44.444 -21.153   5.579  1.00  0.00    -0.206 F 
HETATM   17  C   UNL     1      43.501 -19.293   2.608  1.00  0.00     0.017 A 
ENDBRANCH   9  11
ENDBRANCH   1   5
BRANCH   2  18
HETATM   18  C   UNL     1      39.895 -13.343  -1.385  1.00  0.00     0.156 C 
BRANCH  18  19
HETATM   19  C   UNL     1      40.474 -12.565  -2.566  1.00  0.00     0.159 C 
BRANCH  19  20
HETATM   20  O   UNL     1      41.321 -13.418  -3.353  1.00  0.00    -0.392 OA
HETATM   21  H   UNL     1      40.710 -14.068  -3.754  1.00  0.00     0.210 HD
ENDBRANCH  19  20
BRANCH  19  22
HETATM   22  C   UNL     1      41.234 -11.298  -2.158  1.00  0.00     0.201 C 
BRANCH  22  23
HETATM   23  O   UNL     1      40.599 -10.211  -2.855  1.00  0.00    -0.383 OA
BRANCH  23  24
HETATM   24  C   UNL     1      41.091  -8.919  -2.488  1.00  0.00     0.121 C 
HETATM   25  C   UNL     1      41.639  -8.270  -3.763  1.00  0.00     0.032 C 
HETATM   26  C   UNL     1      42.265  -6.908  -3.484  1.00  0.00     0.002 C 
HETATM   27  C   UNL     1      43.344  -7.002  -2.411  1.00  0.00     0.000 C 
HETATM   28  C   UNL     1      42.819  -7.659  -1.138  1.00  0.00     0.002 C 
HETATM   29  C   UNL     1      42.183  -9.018  -1.419  1.00  0.00     0.032 C 
ENDBRANCH  23  24
ENDBRANCH  22  23
ENDBRANCH  19  22
ENDBRANCH  18  19
ENDBRANCH   2  18
TORSDOF 8
ENDMDL
MODEL 7
REMARK VINA RESULT:      -7.2      1.527      2.315
REMARK  8 active torsions:
REMARK  status: ('A' for Active; 'I' for Inactive)
REMARK    1  A    between atoms: C_2  and  C_3 
REMARK    2  A    between atoms: C_7  and  C_8 
REMARK       I    between atoms: C_8  and  N_9 
REMARK    3  A    between atoms: N_9  and  C_10 
REMARK    4  A    between atoms: C_10  and  C_11 
REMARK    5  A    between atoms: C_11  and  O_12 
REMARK    6  A    between atoms: C_11  and  C_13 
REMARK    7  A    between atoms: C_13  and  O_14 
REMARK    8  A    between atoms: O_14  and  C_15 
ROOT
HETATM    1  C   UNL     1      40.717 -13.843   1.523  1.00  0.00     0.269 C 
HETATM    2  N   UNL     1      41.345 -12.750   0.987  1.00  0.00    -0.353 N 
HETATM    3  O   UNL     1      39.516 -13.856   1.775  1.00  0.00    -0.266 OA
HETATM    4  H   UNL     1      42.354 -12.710   0.958  1.00  0.00     0.162 HD
ENDROOT
BRANCH   1   5
HETATM    5  C   UNL     1      41.562 -14.990   1.725  1.00  0.00     0.120 A 
HETATM    6  N   UNL     1      42.735 -15.154   1.043  1.00  0.00    -0.272 N 
HETATM    7  N   UNL     1      43.458 -16.215   1.435  1.00  0.00    -0.174 NA
HETATM    8  H   UNL     1      43.110 -14.544   0.324  1.00  0.00     0.189 HD
HETATM    9  C   UNL     1      42.723 -16.787   2.402  1.00  0.00     0.089 A 
HETATM   10  C   UNL     1      41.510 -16.067   2.591  1.00  0.00     0.071 A 
BRANCH   9  11
HETATM   11  C   UNL     1      43.201 -17.954   3.150  1.00  0.00    -0.005 A 
HETATM   12  C   UNL     1      43.360 -19.192   2.503  1.00  0.00     0.017 A 
HETATM   13  C   UNL     1      43.860 -20.299   3.194  1.00  0.00     0.043 A 
HETATM   14  C   UNL     1      44.193 -20.173   4.536  1.00  0.00     0.116 A 
HETATM   15  C   UNL     1      44.034 -18.964   5.201  1.00  0.00     0.043 A 
HETATM   16  F   UNL     1      44.679 -21.231   5.199  1.00  0.00    -0.206 F 
HETATM   17  C   UNL     1      43.539 -17.854   4.510  1.00  0.00     0.017 A 
ENDBRANCH   9  11
ENDBRANCH   1   5
BRANCH   2  18
HETATM   18  C   UNL     1      40.638 -11.600   0.459  1.00  0.00     0.156 C 
BRANCH  18  19
HETATM   19  C   UNL     1      40.917 -10.298   1.210  1.00  0.00     0.159 C 
BRANCH  19  20
HETATM   20  O   UNL     1      42.223  -9.802   0.873  1.00  0.00    -0.392 OA
HETATM   21  H   UNL     1      42.182  -9.638  -0.091  1.00  0.00     0.210 HD
ENDBRANCH  19  20
BRANCH  19  22
HETATM   22  C   UNL     1      40.776 -10.420   2.731  1.00  0.00     0.201 C 
BRANCH  22  23
HETATM   23  O   UNL     1      42.080 -10.771   3.225  1.00  0.00    -0.383 OA
BRANCH  23  24
HETATM   24  C   UNL     1      42.057 -11.571   4.411  1.00  0.00     0.121 C 
HETATM   25  C   UNL     1      43.042 -12.724   4.192  1.00  0.00     0.032 C 
HETATM   26  C   UNL     1      43.049 -13.696   5.367  1.00  0.00     0.002 C 
HETATM   27  C   UNL     1      41.648 -14.222   5.662  1.00  0.00     0.000 C 
HETATM   28  C   UNL     1      40.651 -13.085   5.870  1.00  0.00     0.002 C 
HETATM   29  C   UNL     1      40.651 -12.106   4.698  1.00  0.00     0.032 C 
ENDBRANCH  23  24
ENDBRANCH  22  23
ENDBRANCH  19  22
ENDBRANCH  18  19
ENDBRANCH   2  18
TORSDOF 8
ENDMDL
MODEL 8
REMARK VINA RESULT:      -7.1      5.267      6.406
REMARK  8 active torsions:
REMARK  status: ('A' for Active; 'I' for Inactive)
REMARK    1  A    between atoms: C_2  and  C_3 
REMARK    2  A    between atoms: C_7  and  C_8 
REMARK       I    between atoms: C_8  and  N_9 
REMARK    3  A    between atoms: N_9  and  C_10 
REMARK    4  A    between atoms: C_10  and  C_11 
REMARK    5  A    between atoms: C_11  and  O_12 
REMARK    6  A    between atoms: C_11  and  C_13 
REMARK    7  A    between atoms: C_13  and  O_14 
REMARK    8  A    between atoms: O_14  and  C_15 
ROOT
HETATM    1  C   UNL     1      42.754 -11.857   6.529  1.00  0.00     0.269 C 
HETATM    2  N   UNL     1      43.228 -11.464   7.753  1.00  0.00    -0.353 N 
HETATM    3  O   UNL     1      42.234 -11.073   5.741  1.00  0.00    -0.266 OA
HETATM    4  H   UNL     1      43.486 -12.157   8.441  1.00  0.00     0.162 HD
ENDROOT
BRANCH   1   5
HETATM    5  C   UNL     1      42.954 -13.248   6.218  1.00  0.00     0.120 A 
HETATM    6  N   UNL     1      42.747 -14.233   7.143  1.00  0.00    -0.272 N 
HETATM    7  N   UNL     1      42.863 -15.479   6.657  1.00  0.00    -0.174 NA
HETATM    8  H   UNL     1      42.484 -14.108   8.115  1.00  0.00     0.189 HD
HETATM    9  C   UNL     1      43.179 -15.310   5.364  1.00  0.00     0.089 A 
HETATM   10  C   UNL     1      43.278 -13.924   5.057  1.00  0.00     0.071 A 
BRANCH   9  11
HETATM   11  C   UNL     1      43.328 -16.446   4.449  1.00  0.00    -0.005 A 
HETATM   12  C   UNL     1      43.974 -17.619   4.876  1.00  0.00     0.017 A 
HETATM   13  C   UNL     1      44.080 -18.725   4.029  1.00  0.00     0.043 A 
HETATM   14  C   UNL     1      43.547 -18.658   2.748  1.00  0.00     0.116 A 
HETATM   15  C   UNL     1      42.913 -17.506   2.297  1.00  0.00     0.043 A 
HETATM   16  F   UNL     1      43.641 -19.718   1.936  1.00  0.00    -0.206 F 
HETATM   17  C   UNL     1      42.803 -16.400   3.146  1.00  0.00     0.017 A 
ENDBRANCH   9  11
ENDBRANCH   1   5
BRANCH   2  18
HETATM   18  C   UNL     1      43.372 -10.077   8.148  1.00  0.00     0.156 C 
BRANCH  18  19
HETATM   19  C   UNL     1      44.670  -9.774   8.898  1.00  0.00     0.159 C 
BRANCH  19  20
HETATM   20  O   UNL     1      45.557 -10.901   8.827  1.00  0.00    -0.392 OA
HETATM   21  H   UNL     1      45.881 -10.901   7.904  1.00  0.00     0.210 HD
ENDBRANCH  19  20
BRANCH  19  22
HETATM   22  C   UNL     1      44.456  -9.362  10.358  1.00  0.00     0.201 C 
BRANCH  22  23
HETATM   23  O   UNL     1      43.190  -9.923  10.749  1.00  0.00    -0.383 OA
BRANCH  23  24
HETATM   24  C   UNL     1      42.486  -9.146  11.723  1.00  0.00     0.121 C 
HETATM   25  C   UNL     1      43.530  -8.304  12.464  1.00  0.00     0.032 C 
HETATM   26  C   UNL     1      42.905  -7.483  13.586  1.00  0.00     0.002 C 
HETATM   27  C   UNL     1      42.128  -8.368  14.555  1.00  0.00     0.000 C 
HETATM   28  C   UNL     1      41.092  -9.224  13.832  1.00  0.00     0.002 C 
HETATM   29  C   UNL     1      41.716 -10.038  12.701  1.00  0.00     0.032 C 
ENDBRANCH  23  24
ENDBRANCH  22  23
ENDBRANCH  19  22
ENDBRANCH  18  19
ENDBRANCH   2  18
TORSDOF 8
ENDMDL
MODEL 9
REMARK VINA RESULT:      -7.0      2.591      4.987
REMARK  8 active torsions:
REMARK  status: ('A' for Active; 'I' for Inactive)
REMARK    1  A    between atoms: C_2  and  C_3 
REMARK    2  A    between atoms: C_7  and  C_8 
REMARK       I    between atoms: C_8  and  N_9 
REMARK    3  A    between atoms: N_9  and  C_10 
REMARK    4  A    between atoms: C_10  and  C_11 
REMARK    5  A    between atoms: C_11  and  O_12 
REMARK    6  A    between atoms: C_11  and  C_13 
REMARK    7  A    between atoms: C_13  and  O_14 
REMARK    8  A    between atoms: O_14  and  C_15 
ROOT
HETATM    1  C   UNL     1      41.834 -13.045   2.944  1.00  0.00     0.269 C 
HETATM    2  N   UNL     1      41.094 -12.463   1.950  1.00  0.00    -0.353 N 
HETATM    3  O   UNL     1      42.037 -12.496   4.023  1.00  0.00    -0.266 OA
HETATM    4  H   UNL     1      41.095 -12.859   1.020  1.00  0.00     0.162 HD
ENDROOT
BRANCH   1   5
HETATM    5  C   UNL     1      42.317 -14.368   2.647  1.00  0.00     0.120 A 
HETATM    6  N   UNL     1      43.113 -14.621   1.565  1.00  0.00    -0.272 N 
HETATM    7  N   UNL     1      43.572 -15.881   1.500  1.00  0.00    -0.174 NA
HETATM    8  H   UNL     1      43.410 -13.954   0.860  1.00  0.00     0.189 HD
HETATM    9  C   UNL     1      43.039 -16.491   2.570  1.00  0.00     0.089 A 
HETATM   10  C   UNL     1      42.219 -15.583   3.297  1.00  0.00     0.071 A 
BRANCH   9  11
HETATM   11  C   UNL     1      43.355 -17.883   2.905  1.00  0.00    -0.005 A 
HETATM   12  C   UNL     1      43.958 -18.195   4.136  1.00  0.00     0.017 A 
HETATM   13  C   UNL     1      44.220 -19.523   4.486  1.00  0.00     0.043 A 
HETATM   14  C   UNL     1      43.888 -20.541   3.602  1.00  0.00     0.116 A 
HETATM   15  C   UNL     1      43.301 -20.257   2.374  1.00  0.00     0.043 A 
HETATM   16  F   UNL     1      44.131 -21.814   3.937  1.00  0.00    -0.206 F 
HETATM   17  C   UNL     1      43.034 -18.930   2.025  1.00  0.00     0.017 A 
ENDBRANCH   9  11
ENDBRANCH   1   5
BRANCH   2  18
HETATM   18  C   UNL     1      40.298 -11.266   2.141  1.00  0.00     0.156 C 
BRANCH  18  19
HETATM   19  C   UNL     1      38.789 -11.504   2.075  1.00  0.00     0.159 C 
BRANCH  19  20
HETATM   20  O   UNL     1      38.489 -12.871   2.401  1.00  0.00    -0.392 OA
HETATM   21  H   UNL     1      38.161 -12.837   3.323  1.00  0.00     0.210 HD
ENDBRANCH  19  20
BRANCH  19  22
HETATM   22  C   UNL     1      38.165 -11.135   0.725  1.00  0.00     0.201 C 
BRANCH  22  23
HETATM   23  O   UNL     1      39.018 -11.710  -0.280  1.00  0.00    -0.383 OA
BRANCH  23  24
HETATM   24  C   UNL     1      38.440 -12.825  -0.965  1.00  0.00     0.121 C 
HETATM   25  C   UNL     1      39.580 -13.801  -1.273  1.00  0.00     0.032 C 
HETATM   26  C   UNL     1      39.097 -15.004  -2.075  1.00  0.00     0.002 C 
HETATM   27  C   UNL     1      38.388 -14.571  -3.354  1.00  0.00     0.000 C 
HETATM   28  C   UNL     1      37.257 -13.587  -3.067  1.00  0.00     0.002 C 
HETATM   29  C   UNL     1      37.739 -12.387  -2.254  1.00  0.00     0.032 C 
ENDBRANCH  23  24
ENDBRANCH  22  23
ENDBRANCH  19  22
ENDBRANCH  18  19
ENDBRANCH   2  18
TORSDOF 8
ENDMDL
MODEL 10
REMARK VINA RESULT:      -7.0      4.163      5.070
REMARK  8 active torsions:
REMARK  status: ('A' for Active; 'I' for Inactive)
REMARK    1  A    between atoms: C_2  and  C_3 
REMARK    2  A    between atoms: C_7  and  C_8 
REMARK       I    between atoms: C_8  and  N_9 
REMARK    3  A    between atoms: N_9  and  C_10 
REMARK    4  A    between atoms: C_10  and  C_11 
REMARK    5  A    between atoms: C_11  and  O_12 
REMARK    6  A    between atoms: C_11  and  C_13 
REMARK    7  A    between atoms: C_13  and  O_14 
REMARK    8  A    between atoms: O_14  and  C_15 
ROOT
HETATM    1  C   UNL     1      42.722 -12.652   4.707  1.00  0.00     0.269 C 
HETATM    2  N   UNL     1      43.644 -12.406   5.690  1.00  0.00    -0.353 N 
HETATM    3  O   UNL     1      41.866 -11.834   4.385  1.00  0.00    -0.266 OA
HETATM    4  H   UNL     1      44.214 -13.159   6.049  1.00  0.00     0.162 HD
ENDROOT
BRANCH   1   5
HETATM    5  C   UNL     1      42.862 -13.925   4.049  1.00  0.00     0.120 A 
HETATM    6  N   UNL     1      43.092 -14.023   2.705  1.00  0.00    -0.272 N 
HETATM    7  N   UNL     1      43.315 -15.274   2.273  1.00  0.00    -0.174 NA
HETATM    8  H   UNL     1      43.147 -13.258   2.041  1.00  0.00     0.189 HD
HETATM    9  C   UNL     1      43.208 -16.036   3.373  1.00  0.00     0.089 A 
HETATM   10  C   UNL     1      42.892 -15.230   4.502  1.00  0.00     0.071 A 
BRANCH   9  11
HETATM   11  C   UNL     1      43.454 -17.481   3.341  1.00  0.00    -0.005 A 
HETATM   12  C   UNL     1      44.032 -18.125   4.448  1.00  0.00     0.017 A 
HETATM   13  C   UNL     1      44.228 -19.509   4.447  1.00  0.00     0.043 A 
HETATM   14  C   UNL     1      43.853 -20.251   3.335  1.00  0.00     0.116 A 
HETATM   15  C   UNL     1      43.290 -19.637   2.223  1.00  0.00     0.043 A 
HETATM   16  F   UNL     1      44.033 -21.578   3.334  1.00  0.00    -0.206 F 
HETATM   17  C   UNL     1      43.090 -18.253   2.224  1.00  0.00     0.017 A 
ENDBRANCH   9  11
ENDBRANCH   1   5
BRANCH   2  18
HETATM   18  C   UNL     1      43.851 -11.100   6.284  1.00  0.00     0.156 C 
BRANCH  18  19
HETATM   19  C   UNL     1      44.156 -11.138   7.782  1.00  0.00     0.159 C 
BRANCH  19  20
HETATM   20  O   UNL     1      43.733 -12.391   8.342  1.00  0.00    -0.392 OA
HETATM   21  H   UNL     1      43.281 -12.849   7.605  1.00  0.00     0.210 HD
ENDBRANCH  19  20
BRANCH  19  22
HETATM   22  C   UNL     1      43.540  -9.975   8.566  1.00  0.00     0.201 C 
BRANCH  22  23
HETATM   23  O   UNL     1      44.588  -9.461   9.407  1.00  0.00    -0.383 OA
BRANCH  23  24
HETATM   24  C   UNL     1      44.192  -9.244  10.764  1.00  0.00     0.121 C 
HETATM   25  C   UNL     1      43.410 -10.486  11.206  1.00  0.00     0.032 C 
HETATM   26  C   UNL     1      42.866 -10.341  12.623  1.00  0.00     0.002 C 
HETATM   27  C   UNL     1      42.018  -9.081  12.766  1.00  0.00     0.000 C 
HETATM   28  C   UNL     1      42.777  -7.836  12.317  1.00  0.00     0.002 C 
HETATM   29  C   UNL     1      43.331  -7.986  10.902  1.00  0.00     0.032 C 
ENDBRANCH  23  24
ENDBRANCH  22  23
ENDBRANCH  19  22
ENDBRANCH  18  19
ENDBRANCH   2  18
TORSDOF 8
ENDMDL
