MODEL 1
REMARK VINA RESULT:      -6.7      0.000      0.000
REMARK  6 active torsions:
REMARK  status: ('A' for Active; 'I' for Inactive)
REMARK    1  A    between atoms: C_2  and  C_3 
REMARK    2  A    between atoms: C_5  and  N_6 
REMARK       I    between atoms: N_6  and  C_7 
REMARK       I    between atoms: C_7  and  N_8 
REMARK    3  A    between atoms: N_8  and  C_9 
REMARK    4  A    between atoms: C_9  and  C_10 
REMARK    5  A    between atoms: C_10  and  N_11 
REMARK    6  A    between atoms: C_18  and  O_19 
ROOT
HETATM    1  N   UNL     1      41.229 -13.602   5.127  1.00  0.00    -0.306 N 
HETATM    2  C   UNL     1      40.276 -13.444   6.089  1.00  0.00     0.320 C 
HETATM    3  N   UNL     1      39.975 -12.149   6.407  1.00  0.00    -0.341 N 
HETATM    4  O   UNL     1      39.691 -14.335   6.697  1.00  0.00    -0.247 OA
HETATM    5  H   UNL     1      41.891 -12.843   5.014  1.00  0.00     0.171 HD
HETATM    6  H   UNL     1      39.245 -12.140   7.109  1.00  0.00     0.164 HD
ENDROOT
BRANCH   1   7
HETATM    7  C   UNL     1      41.616 -14.797   4.483  1.00  0.00     0.070 A 
HETATM    8  C   UNL     1      42.571 -15.670   5.015  1.00  0.00     0.040 A 
HETATM    9  C   UNL     1      42.912 -16.879   4.373  1.00  0.00    -0.048 A 
HETATM   10  C   UNL     1      42.256 -17.173   3.169  1.00  0.00     0.011 A 
HETATM   11  C   UNL     1      41.294 -16.309   2.628  1.00  0.00     0.039 A 
HETATM   12  C   UNL     1      40.964 -15.123   3.282  1.00  0.00     0.095 A 
BRANCH   9  13
HETATM   13  C   UNL     1      43.948 -17.821   5.012  1.00  0.00    -0.024 C 
HETATM   14  C   UNL     1      45.067 -16.981   5.666  1.00  0.00     0.019 C 
HETATM   15  C   UNL     1      44.565 -18.739   3.934  1.00  0.00     0.019 C 
HETATM   16  C   UNL     1      43.363 -18.737   6.110  1.00  0.00     0.019 C 
ENDBRANCH   9  13
BRANCH  12  17
HETATM   17  O   UNL     1      40.031 -14.211   2.844  1.00  0.00    -0.354 OA
HETATM   18  C   UNL     1      40.207 -13.688   1.533  1.00  0.00     0.210 C 
ENDBRANCH  12  17
ENDBRANCH   1   7
BRANCH   3  19
HETATM   19  C   UNL     1      39.999 -11.015   5.488  1.00  0.00     0.146 C 
BRANCH  19  20
HETATM   20  C   UNL     1      40.941  -9.915   5.962  1.00  0.00     0.170 C 
BRANCH  20  21
HETATM   21  N   UNL     1      42.289 -10.410   6.166  1.00  0.00    -0.278 N 
HETATM   22  N   UNL     1      42.896 -11.121   5.193  1.00  0.00    -0.184 NA
HETATM   23  C   UNL     1      44.107 -11.374   5.704  1.00  0.00     0.164 A 
HETATM   24  C   UNL     1      44.264 -10.840   6.994  1.00  0.00     0.070 A 
HETATM   25 CL   UNL     1      45.638 -10.946   7.972  1.00  0.00    -0.081 Cl
HETATM   26  C   UNL     1      43.069 -10.223   7.271  1.00  0.00     0.137 A 
ENDBRANCH  20  21
ENDBRANCH  19  20
ENDBRANCH   3  19
TORSDOF 6
ENDMDL
MODEL 2
REMARK VINA RESULT:      -6.7      2.172      2.349
REMARK  6 active torsions:
REMARK  status: ('A' for Active; 'I' for Inactive)
REMARK    1  A    between atoms: C_2  and  C_3 
REMARK    2  A    between atoms: C_5  and  N_6 
REMARK       I    between atoms: N_6  and  C_7 
REMARK       I    between atoms: C_7  and  N_8 
REMARK    3  A    between atoms: N_8  and  C_9 
REMARK    4  A    between atoms: C_9  and  C_10 
REMARK    5  A    between atoms: C_10  and  N_11 
REMARK    6  A    between atoms: C_18  and  O_19 
ROOT
HETATM    1  N   UNL     1      42.277 -12.538   3.635  1.00  0.00    -0.306 N 
HETATM    2  C   UNL     1      43.126 -11.473   3.694  1.00  0.00     0.320 C 
HETATM    3  N   UNL     1      42.570 -10.307   4.142  1.00  0.00    -0.341 N 
HETATM    4  O   UNL     1      44.310 -11.457   3.371  1.00  0.00    -0.247 OA
HETATM    5  H   UNL     1      41.291 -12.329   3.535  1.00  0.00     0.171 HD
HETATM    6  H   UNL     1      43.284  -9.588   4.170  1.00  0.00     0.164 HD
ENDROOT
BRANCH   1   7
HETATM    7  C   UNL     1      42.603 -13.888   3.379  1.00  0.00     0.070 A 
HETATM    8  C   UNL     1      43.047 -14.763   4.378  1.00  0.00     0.040 A 
HETATM    9  C   UNL     1      43.327 -16.118   4.106  1.00  0.00    -0.048 A 
HETATM   10  C   UNL     1      43.149 -16.559   2.787  1.00  0.00     0.011 A 
HETATM   11  C   UNL     1      42.701 -15.693   1.779  1.00  0.00     0.039 A 
HETATM   12  C   UNL     1      42.419 -14.359   2.068  1.00  0.00     0.095 A 
BRANCH   9  13
HETATM   13  C   UNL     1      43.786 -17.049   5.244  1.00  0.00    -0.024 C 
HETATM   14  C   UNL     1      44.866 -16.333   6.085  1.00  0.00     0.019 C 
HETATM   15  C   UNL     1      44.377 -18.350   4.657  1.00  0.00     0.019 C 
HETATM   16  C   UNL     1      42.652 -17.458   6.209  1.00  0.00     0.019 C 
ENDBRANCH   9  13
BRANCH  12  17
HETATM   17  O   UNL     1      41.967 -13.431   1.159  1.00  0.00    -0.354 OA
HETATM   18  C   UNL     1      40.754 -13.730   0.481  1.00  0.00     0.210 C 
ENDBRANCH  12  17
ENDBRANCH   1   7
BRANCH   3  19
HETATM   19  C   UNL     1      41.501 -10.193   5.129  1.00  0.00     0.146 C 
BRANCH  19  20
HETATM   20  C   UNL     1      41.838  -9.184   6.221  1.00  0.00     0.170 C 
BRANCH  20  21
HETATM   21  N   UNL     1      42.819  -9.705   7.153  1.00  0.00    -0.278 N 
HETATM   22  N   UNL     1      43.155 -11.010   7.113  1.00  0.00    -0.184 NA
HETATM   23  C   UNL     1      44.087 -11.121   8.067  1.00  0.00     0.164 A 
HETATM   24  C   UNL     1      44.332  -9.899   8.716  1.00  0.00     0.070 A 
HETATM   25 CL   UNL     1      45.429  -9.623   9.972  1.00  0.00    -0.081 Cl
HETATM   26  C   UNL     1      43.494  -8.997   8.106  1.00  0.00     0.137 A 
ENDBRANCH  20  21
ENDBRANCH  19  20
ENDBRANCH   3  19
TORSDOF 6
ENDMDL
MODEL 3
REMARK VINA RESULT:      -6.5      2.687      4.346
REMARK  6 active torsions:
REMARK  status: ('A' for Active; 'I' for Inactive)
REMARK    1  A    between atoms: C_2  and  C_3 
REMARK    2  A    between atoms: C_5  and  N_6 
REMARK       I    between atoms: N_6  and  C_7 
REMARK       I    between atoms: C_7  and  N_8 
REMARK    3  A    between atoms: N_8  and  C_9 
REMARK    4  A    between atoms: C_9  and  C_10 
REMARK    5  A    between atoms: C_10  and  N_11 
REMARK    6  A    between atoms: C_18  and  O_19 
ROOT
HETATM    1  N   UNL     1      41.462 -12.854   5.592  1.00  0.00    -0.306 N 
HETATM    2  C   UNL     1      40.186 -12.799   6.068  1.00  0.00     0.320 C 
HETATM    3  N   UNL     1      39.601 -11.563   6.030  1.00  0.00    -0.341 N 
HETATM    4  O   UNL     1      39.534 -13.728   6.534  1.00  0.00    -0.247 OA
HETATM    5  H   UNL     1      41.997 -11.994   5.626  1.00  0.00     0.171 HD
HETATM    6  H   UNL     1      38.653 -11.634   6.381  1.00  0.00     0.164 HD
ENDROOT
BRANCH   1   7
HETATM    7  C   UNL     1      42.244 -14.004   5.352  1.00  0.00     0.070 A 
HETATM    8  C   UNL     1      42.103 -14.790   4.201  1.00  0.00     0.040 A 
HETATM    9  C   UNL     1      42.924 -15.912   3.964  1.00  0.00    -0.048 A 
HETATM   10  C   UNL     1      43.891 -16.217   4.933  1.00  0.00     0.011 A 
HETATM   11  C   UNL     1      44.045 -15.435   6.086  1.00  0.00     0.039 A 
HETATM   12  C   UNL     1      43.230 -14.324   6.300  1.00  0.00     0.095 A 
BRANCH   9  13
HETATM   13  C   UNL     1      42.749 -16.729   2.670  1.00  0.00    -0.024 C 
HETATM   14  C   UNL     1      43.411 -15.973   1.497  1.00  0.00     0.019 C 
HETATM   15  C   UNL     1      41.248 -16.926   2.367  1.00  0.00     0.019 C 
HETATM   16  C   UNL     1      43.390 -18.133   2.730  1.00  0.00     0.019 C 
ENDBRANCH   9  13
BRANCH  12  17
HETATM   17  O   UNL     1      43.303 -13.488   7.389  1.00  0.00    -0.354 OA
HETATM   18  C   UNL     1      44.155 -12.354   7.276  1.00  0.00     0.210 C 
ENDBRANCH  12  17
ENDBRANCH   1   7
BRANCH   3  19
HETATM   19  C   UNL     1      39.840 -10.534   5.023  1.00  0.00     0.146 C 
BRANCH  19  20
HETATM   20  C   UNL     1      39.030 -10.776   3.755  1.00  0.00     0.170 C 
BRANCH  20  21
HETATM   21  N   UNL     1      39.760 -11.578   2.793  1.00  0.00    -0.278 N 
HETATM   22  N   UNL     1      41.084 -11.383   2.624  1.00  0.00    -0.184 NA
HETATM   23  C   UNL     1      41.419 -12.299   1.708  1.00  0.00     0.164 A 
HETATM   24  C   UNL     1      40.316 -13.062   1.289  1.00  0.00     0.070 A 
HETATM   25 CL   UNL     1      40.324 -14.311   0.151  1.00  0.00    -0.081 Cl
HETATM   26  C   UNL     1      39.252 -12.573   2.006  1.00  0.00     0.137 A 
ENDBRANCH  20  21
ENDBRANCH  19  20
ENDBRANCH   3  19
TORSDOF 6
ENDMDL
MODEL 4
REMARK VINA RESULT:      -6.5      3.649      5.414
REMARK  6 active torsions:
REMARK  status: ('A' for Active; 'I' for Inactive)
REMARK    1  A    between atoms: C_2  and  C_3 
REMARK    2  A    between atoms: C_5  and  N_6 
REMARK       I    between atoms: N_6  and  C_7 
REMARK       I    between atoms: C_7  and  N_8 
REMARK    3  A    between atoms: N_8  and  C_9 
REMARK    4  A    between atoms: C_9  and  C_10 
REMARK    5  A    between atoms: C_10  and  N_11 
REMARK    6  A    between atoms: C_18  and  O_19 
ROOT
HETATM    1  N   UNL     1      41.881 -12.935   3.325  1.00  0.00    -0.306 N 
HETATM    2  C   UNL     1      42.622 -11.792   3.355  1.00  0.00     0.320 C 
HETATM    3  N   UNL     1      42.411 -10.931   2.315  1.00  0.00    -0.341 N 
HETATM    4  O   UNL     1      43.457 -11.479   4.199  1.00  0.00    -0.247 OA
HETATM    5  H   UNL     1      41.560 -13.245   2.416  1.00  0.00     0.171 HD
HETATM    6  H   UNL     1      42.988 -10.108   2.443  1.00  0.00     0.164 HD
ENDROOT
BRANCH   1   7
HETATM    7  C   UNL     1      41.761 -13.914   4.336  1.00  0.00     0.070 A 
HETATM    8  C   UNL     1      42.722 -14.910   4.544  1.00  0.00     0.040 A 
HETATM    9  C   UNL     1      42.601 -15.853   5.586  1.00  0.00    -0.048 A 
HETATM   10  C   UNL     1      41.470 -15.757   6.410  1.00  0.00     0.011 A 
HETATM   11  C   UNL     1      40.503 -14.761   6.215  1.00  0.00     0.039 A 
HETATM   12  C   UNL     1      40.645 -13.832   5.185  1.00  0.00     0.095 A 
BRANCH   9  13
HETATM   13  C   UNL     1      43.698 -16.913   5.792  1.00  0.00    -0.024 C 
HETATM   14  C   UNL     1      44.031 -17.574   4.436  1.00  0.00     0.019 C 
HETATM   15  C   UNL     1      43.209 -17.996   6.780  1.00  0.00     0.019 C 
HETATM   16  C   UNL     1      45.017 -16.342   6.359  1.00  0.00     0.019 C 
ENDBRANCH   9  13
BRANCH  12  17
HETATM   17  O   UNL     1      39.763 -12.812   4.912  1.00  0.00    -0.354 OA
HETATM   18  C   UNL     1      39.420 -11.950   5.991  1.00  0.00     0.210 C 
ENDBRANCH  12  17
ENDBRANCH   1   7
BRANCH   3  19
HETATM   19  C   UNL     1      41.146 -10.728   1.616  1.00  0.00     0.146 C 
BRANCH  19  20
HETATM   20  C   UNL     1      41.271 -10.992   0.120  1.00  0.00     0.170 C 
BRANCH  20  21
HETATM   21  N   UNL     1      40.772 -12.304  -0.240  1.00  0.00    -0.278 N 
HETATM   22  N   UNL     1      40.960 -13.346   0.596  1.00  0.00    -0.184 NA
HETATM   23  C   UNL     1      40.352 -14.361  -0.030  1.00  0.00     0.164 A 
HETATM   24  C   UNL     1      39.793 -13.971  -1.259  1.00  0.00     0.070 A 
HETATM   25 CL   UNL     1      38.949 -14.955  -2.343  1.00  0.00    -0.081 Cl
HETATM   26  C   UNL     1      40.082 -12.633  -1.372  1.00  0.00     0.137 A 
ENDBRANCH  20  21
ENDBRANCH  19  20
ENDBRANCH   3  19
TORSDOF 6
ENDMDL
MODEL 5
REMARK VINA RESULT:      -6.4      2.406      4.407
REMARK  6 active torsions:
REMARK  status: ('A' for Active; 'I' for Inactive)
REMARK    1  A    between atoms: C_2  and  C_3 
REMARK    2  A    between atoms: C_5  and  N_6 
REMARK       I    between atoms: N_6  and  C_7 
REMARK       I    between atoms: C_7  and  N_8 
REMARK    3  A    between atoms: N_8  and  C_9 
REMARK    4  A    between atoms: C_9  and  C_10 
REMARK    5  A    between atoms: C_10  and  N_11 
REMARK    6  A    between atoms: C_18  and  O_19 
ROOT
HETATM    1  N   UNL     1      43.334 -14.383   5.378  1.00  0.00    -0.306 N 
HETATM    2  C   UNL     1      42.660 -14.078   6.523  1.00  0.00     0.320 C 
HETATM    3  N   UNL     1      43.358 -13.329   7.430  1.00  0.00    -0.341 N 
HETATM    4  O   UNL     1      41.520 -14.421   6.819  1.00  0.00    -0.247 OA
HETATM    5  H   UNL     1      44.345 -14.396   5.435  1.00  0.00     0.171 HD
HETATM    6  H   UNL     1      42.765 -13.137   8.229  1.00  0.00     0.164 HD
ENDROOT
BRANCH   1   7
HETATM    7  C   UNL     1      42.820 -14.986   4.209  1.00  0.00     0.070 A 
HETATM    8  C   UNL     1      41.922 -14.338   3.353  1.00  0.00     0.040 A 
HETATM    9  C   UNL     1      41.454 -14.947   2.170  1.00  0.00    -0.048 A 
HETATM   10  C   UNL     1      41.921 -16.238   1.883  1.00  0.00     0.011 A 
HETATM   11  C   UNL     1      42.825 -16.895   2.731  1.00  0.00     0.039 A 
HETATM   12  C   UNL     1      43.284 -16.274   3.891  1.00  0.00     0.095 A 
BRANCH   9  13
HETATM   13  C   UNL     1      40.489 -14.183   1.245  1.00  0.00    -0.024 C 
HETATM   14  C   UNL     1      39.870 -15.167   0.229  1.00  0.00     0.019 C 
HETATM   15  C   UNL     1      41.250 -13.076   0.483  1.00  0.00     0.019 C 
HETATM   16  C   UNL     1      39.321 -13.501   1.992  1.00  0.00     0.019 C 
ENDBRANCH   9  13
BRANCH  12  17
HETATM   17  O   UNL     1      44.174 -16.824   4.784  1.00  0.00    -0.354 OA
HETATM   18  C   UNL     1      43.796 -18.050   5.399  1.00  0.00     0.210 C 
ENDBRANCH  12  17
ENDBRANCH   1   7
BRANCH   3  19
HETATM   19  C   UNL     1      44.357 -12.314   7.111  1.00  0.00     0.146 C 
BRANCH  19  20
HETATM   20  C   UNL     1      43.721 -10.961   6.810  1.00  0.00     0.170 C 
BRANCH  20  21
HETATM   21  N   UNL     1      43.228 -10.888   5.448  1.00  0.00    -0.278 N 
HETATM   22  N   UNL     1      43.991 -11.342   4.433  1.00  0.00    -0.184 NA
HETATM   23  C   UNL     1      43.221 -11.152   3.356  1.00  0.00     0.164 A 
HETATM   24  C   UNL     1      41.983 -10.571   3.681  1.00  0.00     0.070 A 
HETATM   25 CL   UNL     1      40.739 -10.174   2.608  1.00  0.00    -0.081 Cl
HETATM   26  C   UNL     1      42.015 -10.408   5.045  1.00  0.00     0.137 A 
ENDBRANCH  20  21
ENDBRANCH  19  20
ENDBRANCH   3  19
TORSDOF 6
ENDMDL
MODEL 6
REMARK VINA RESULT:      -6.4     16.274     17.789
REMARK  6 active torsions:
REMARK  status: ('A' for Active; 'I' for Inactive)
REMARK    1  A    between atoms: C_2  and  C_3 
REMARK    2  A    between atoms: C_5  and  N_6 
REMARK       I    between atoms: N_6  and  C_7 
REMARK       I    between atoms: C_7  and  N_8 
REMARK    3  A    between atoms: N_8  and  C_9 
REMARK    4  A    between atoms: C_9  and  C_10 
REMARK    5  A    between atoms: C_10  and  N_11 
REMARK    6  A    between atoms: C_18  and  O_19 
ROOT
HETATM    1  N   UNL     1      44.464 -29.190   1.741  1.00  0.00    -0.306 N 
HETATM    2  C   UNL     1      44.508 -30.317   2.506  1.00  0.00     0.320 C 
HETATM    3  N   UNL     1      43.498 -30.445   3.418  1.00  0.00    -0.341 N 
HETATM    4  O   UNL     1      45.361 -31.199   2.468  1.00  0.00    -0.247 OA
HETATM    5  H   UNL     1      43.979 -28.393   2.134  1.00  0.00     0.171 HD
HETATM    6  H   UNL     1      43.608 -31.321   3.915  1.00  0.00     0.164 HD
ENDROOT
BRANCH   1   7
HETATM    7  C   UNL     1      45.262 -28.877   0.619  1.00  0.00     0.070 A 
HETATM    8  C   UNL     1      44.845 -29.110  -0.697  1.00  0.00     0.040 A 
HETATM    9  C   UNL     1      45.644 -28.751  -1.803  1.00  0.00    -0.048 A 
HETATM   10  C   UNL     1      46.883 -28.151  -1.533  1.00  0.00     0.011 A 
HETATM   11  C   UNL     1      47.309 -27.908  -0.220  1.00  0.00     0.039 A 
HETATM   12  C   UNL     1      46.502 -28.262   0.861  1.00  0.00     0.095 A 
BRANCH   9  13
HETATM   13  C   UNL     1      45.130 -29.002  -3.232  1.00  0.00    -0.024 C 
HETATM   14  C   UNL     1      46.000 -30.087  -3.904  1.00  0.00     0.019 C 
HETATM   15  C   UNL     1      45.211 -27.700  -4.060  1.00  0.00     0.019 C 
HETATM   16  C   UNL     1      43.665 -29.488  -3.291  1.00  0.00     0.019 C 
ENDBRANCH   9  13
BRANCH  12  17
HETATM   17  O   UNL     1      46.819 -28.061   2.184  1.00  0.00    -0.354 OA
HETATM   18  C   UNL     1      47.969 -28.736   2.681  1.00  0.00     0.210 C 
ENDBRANCH  12  17
ENDBRANCH   1   7
BRANCH   3  19
HETATM   19  C   UNL     1      42.129 -29.967   3.250  1.00  0.00     0.146 C 
BRANCH  19  20
HETATM   20  C   UNL     1      41.213 -31.045   2.681  1.00  0.00     0.170 C 
BRANCH  20  21
HETATM   21  N   UNL     1      40.442 -31.700   3.720  1.00  0.00    -0.278 N 
HETATM   22  N   UNL     1      40.640 -31.370   5.012  1.00  0.00    -0.184 NA
HETATM   23  C   UNL     1      39.755 -32.130   5.667  1.00  0.00     0.164 A 
HETATM   24  C   UNL     1      39.009 -32.946   4.800  1.00  0.00     0.070 A 
HETATM   25 CL   UNL     1      37.799 -34.043   5.234  1.00  0.00    -0.081 Cl
HETATM   26  C   UNL     1      39.477 -32.650   3.543  1.00  0.00     0.137 A 
ENDBRANCH  20  21
ENDBRANCH  19  20
ENDBRANCH   3  19
TORSDOF 6
ENDMDL
MODEL 7
REMARK VINA RESULT:      -6.3      3.669      7.939
REMARK  6 active torsions:
REMARK  status: ('A' for Active; 'I' for Inactive)
REMARK    1  A    between atoms: C_2  and  C_3 
REMARK    2  A    between atoms: C_5  and  N_6 
REMARK       I    between atoms: N_6  and  C_7 
REMARK       I    between atoms: C_7  and  N_8 
REMARK    3  A    between atoms: N_8  and  C_9 
REMARK    4  A    between atoms: C_9  and  C_10 
REMARK    5  A    between atoms: C_10  and  N_11 
REMARK    6  A    between atoms: C_18  and  O_19 
ROOT
HETATM    1  N   UNL     1      42.541 -10.709   7.606  1.00  0.00    -0.306 N 
HETATM    2  C   UNL     1      41.956 -10.035   6.576  1.00  0.00     0.320 C 
HETATM    3  N   UNL     1      41.244 -10.808   5.701  1.00  0.00    -0.341 N 
HETATM    4  O   UNL     1      42.023  -8.830   6.353  1.00  0.00    -0.247 OA
HETATM    5  H   UNL     1      42.746 -11.689   7.450  1.00  0.00     0.171 HD
HETATM    6  H   UNL     1      40.833 -10.213   4.991  1.00  0.00     0.164 HD
ENDROOT
BRANCH   1   7
HETATM    7  C   UNL     1      43.183 -10.165   8.740  1.00  0.00     0.070 A 
HETATM    8  C   UNL     1      42.536  -9.311   9.641  1.00  0.00     0.040 A 
HETATM    9  C   UNL     1      43.187  -8.812  10.788  1.00  0.00    -0.048 A 
HETATM   10  C   UNL     1      44.518  -9.201  10.992  1.00  0.00     0.011 A 
HETATM   11  C   UNL     1      45.175 -10.059  10.099  1.00  0.00     0.039 A 
HETATM   12  C   UNL     1      44.513 -10.551   8.975  1.00  0.00     0.095 A 
BRANCH   9  13
HETATM   13  C   UNL     1      42.424  -7.898  11.765  1.00  0.00    -0.024 C 
HETATM   14  C   UNL     1      42.368  -6.467  11.188  1.00  0.00     0.019 C 
HETATM   15  C   UNL     1      43.143  -7.867  13.132  1.00  0.00     0.019 C 
HETATM   16  C   UNL     1      40.968  -8.344  12.027  1.00  0.00     0.019 C 
ENDBRANCH   9  13
BRANCH  12  17
HETATM   17  O   UNL     1      45.060 -11.402   8.044  1.00  0.00    -0.354 OA
HETATM   18  C   UNL     1      46.088 -10.875   7.213  1.00  0.00     0.210 C 
ENDBRANCH  12  17
ENDBRANCH   1   7
BRANCH   3  19
HETATM   19  C   UNL     1      40.500 -12.017   6.038  1.00  0.00     0.146 C 
BRANCH  19  20
HETATM   20  C   UNL     1      40.771 -13.148   5.053  1.00  0.00     0.170 C 
BRANCH  20  21
HETATM   21  N   UNL     1      41.917 -13.943   5.446  1.00  0.00    -0.278 N 
HETATM   22  N   UNL     1      42.692 -13.541   6.475  1.00  0.00    -0.184 NA
HETATM   23  C   UNL     1      43.608 -14.512   6.572  1.00  0.00     0.164 A 
HETATM   24  C   UNL     1      43.426 -15.516   5.606  1.00  0.00     0.070 A 
HETATM   25 CL   UNL     1      44.370 -16.902   5.398  1.00  0.00    -0.081 Cl
HETATM   26  C   UNL     1      42.324 -15.121   4.886  1.00  0.00     0.137 A 
ENDBRANCH  20  21
ENDBRANCH  19  20
ENDBRANCH   3  19
TORSDOF 6
ENDMDL
MODEL 8
REMARK VINA RESULT:      -6.2      2.242      2.822
REMARK  6 active torsions:
REMARK  status: ('A' for Active; 'I' for Inactive)
REMARK    1  A    between atoms: C_2  and  C_3 
REMARK    2  A    between atoms: C_5  and  N_6 
REMARK       I    between atoms: N_6  and  C_7 
REMARK       I    between atoms: C_7  and  N_8 
REMARK    3  A    between atoms: N_8  and  C_9 
REMARK    4  A    between atoms: C_9  and  C_10 
REMARK    5  A    between atoms: C_10  and  N_11 
REMARK    6  A    between atoms: C_18  and  O_19 
ROOT
HETATM    1  N   UNL     1      43.350 -14.466   5.362  1.00  0.00    -0.306 N 
HETATM    2  C   UNL     1      42.828 -14.263   6.604  1.00  0.00     0.320 C 
HETATM    3  N   UNL     1      43.300 -13.162   7.264  1.00  0.00    -0.341 N 
HETATM    4  O   UNL     1      42.008 -14.969   7.182  1.00  0.00    -0.247 OA
HETATM    5  H   UNL     1      44.267 -14.074   5.184  1.00  0.00     0.171 HD
HETATM    6  H   UNL     1      42.836 -13.088   8.161  1.00  0.00     0.164 HD
ENDROOT
BRANCH   1   7
HETATM    7  C   UNL     1      42.934 -15.407   4.394  1.00  0.00     0.070 A 
HETATM    8  C   UNL     1      43.533 -16.664   4.254  1.00  0.00     0.040 A 
HETATM    9  C   UNL     1      43.074 -17.603   3.306  1.00  0.00    -0.048 A 
HETATM   10  C   UNL     1      41.990 -17.225   2.501  1.00  0.00     0.011 A 
HETATM   11  C   UNL     1      41.379 -15.970   2.636  1.00  0.00     0.039 A 
HETATM   12  C   UNL     1      41.840 -15.059   3.584  1.00  0.00     0.095 A 
BRANCH   9  13
HETATM   13  C   UNL     1      43.746 -18.984   3.208  1.00  0.00    -0.024 C 
HETATM   14  C   UNL     1      43.782 -19.636   4.608  1.00  0.00     0.019 C 
HETATM   15  C   UNL     1      45.190 -18.834   2.680  1.00  0.00     0.019 C 
HETATM   16  C   UNL     1      43.017 -19.966   2.264  1.00  0.00     0.019 C 
ENDBRANCH   9  13
BRANCH  12  17
HETATM   17  O   UNL     1      41.310 -13.809   3.804  1.00  0.00    -0.354 OA
HETATM   18  C   UNL     1      40.031 -13.543   3.241  1.00  0.00     0.210 C 
ENDBRANCH  12  17
ENDBRANCH   1   7
BRANCH   3  19
HETATM   19  C   UNL     1      43.711 -11.906   6.645  1.00  0.00     0.146 C 
BRANCH  19  20
HETATM   20  C   UNL     1      42.997 -10.707   7.258  1.00  0.00     0.170 C 
BRANCH  20  21
HETATM   21  N   UNL     1      43.559 -10.343   8.544  1.00  0.00    -0.278 N 
HETATM   22  N   UNL     1      44.775 -10.806   8.899  1.00  0.00    -0.184 NA
HETATM   23  C   UNL     1      44.981 -10.253  10.100  1.00  0.00     0.164 A 
HETATM   24  C   UNL     1      43.899  -9.455  10.511  1.00  0.00     0.070 A 
HETATM   25 CL   UNL     1      43.771  -8.593  11.958  1.00  0.00    -0.081 Cl
HETATM   26  C   UNL     1      42.989  -9.534   9.485  1.00  0.00     0.137 A 
ENDBRANCH  20  21
ENDBRANCH  19  20
ENDBRANCH   3  19
TORSDOF 6
ENDMDL
MODEL 9
REMARK VINA RESULT:      -6.2      2.372      3.892
REMARK  6 active torsions:
REMARK  status: ('A' for Active; 'I' for Inactive)
REMARK    1  A    between atoms: C_2  and  C_3 
REMARK    2  A    between atoms: C_5  and  N_6 
REMARK       I    between atoms: N_6  and  C_7 
REMARK       I    between atoms: C_7  and  N_8 
REMARK    3  A    between atoms: N_8  and  C_9 
REMARK    4  A    between atoms: C_9  and  C_10 
REMARK    5  A    between atoms: C_10  and  N_11 
REMARK    6  A    between atoms: C_18  and  O_19 
ROOT
HETATM    1  N   UNL     1      42.020 -12.043   4.938  1.00  0.00    -0.306 N 
HETATM    2  C   UNL     1      42.578 -10.952   4.343  1.00  0.00     0.320 C 
HETATM    3  N   UNL     1      41.975  -9.758   4.626  1.00  0.00    -0.341 N 
HETATM    4  O   UNL     1      43.538 -10.942   3.577  1.00  0.00    -0.247 OA
HETATM    5  H   UNL     1      41.042 -11.972   5.192  1.00  0.00     0.171 HD
HETATM    6  H   UNL     1      42.476  -9.013   4.157  1.00  0.00     0.164 HD
ENDROOT
BRANCH   1   7
HETATM    7  C   UNL     1      42.523 -13.362   4.967  1.00  0.00     0.070 A 
HETATM    8  C   UNL     1      42.350 -14.263   3.910  1.00  0.00     0.040 A 
HETATM    9  C   UNL     1      42.896 -15.563   3.945  1.00  0.00    -0.048 A 
HETATM   10  C   UNL     1      43.620 -15.924   5.091  1.00  0.00     0.011 A 
HETATM   11  C   UNL     1      43.804 -15.030   6.154  1.00  0.00     0.039 A 
HETATM   12  C   UNL     1      43.265 -13.745   6.097  1.00  0.00     0.095 A 
BRANCH   9  13
HETATM   13  C   UNL     1      42.703 -16.508   2.746  1.00  0.00    -0.024 C 
HETATM   14  C   UNL     1      41.195 -16.645   2.440  1.00  0.00     0.019 C 
HETATM   15  C   UNL     1      43.284 -17.902   3.071  1.00  0.00     0.019 C 
HETATM   16  C   UNL     1      43.389 -16.019   1.451  1.00  0.00     0.019 C 
ENDBRANCH   9  13
BRANCH  12  17
HETATM   17  O   UNL     1      43.393 -12.789   7.078  1.00  0.00    -0.354 OA
HETATM   18  C   UNL     1      44.641 -12.113   7.161  1.00  0.00     0.210 C 
ENDBRANCH  12  17
ENDBRANCH   1   7
BRANCH   3  19
HETATM   19  C   UNL     1      41.326  -9.406   5.885  1.00  0.00     0.146 C 
BRANCH  19  20
HETATM   20  C   UNL     1      41.646  -7.978   6.312  1.00  0.00     0.170 C 
BRANCH  20  21
HETATM   21  N   UNL     1      42.523  -7.943   7.466  1.00  0.00    -0.278 N 
HETATM   22  N   UNL     1      42.862  -6.759   8.015  1.00  0.00    -0.184 NA
HETATM   23  C   UNL     1      43.633  -7.106   9.053  1.00  0.00     0.164 A 
HETATM   24  C   UNL     1      43.793  -8.499   9.154  1.00  0.00     0.070 A 
HETATM   25 CL   UNL     1      44.689  -9.331  10.320  1.00  0.00    -0.081 Cl
HETATM   26  C   UNL     1      43.066  -9.018   8.111  1.00  0.00     0.137 A 
ENDBRANCH  20  21
ENDBRANCH  19  20
ENDBRANCH   3  19
TORSDOF 6
ENDMDL
MODEL 10
REMARK VINA RESULT:      -6.2      3.641      4.640
REMARK  6 active torsions:
REMARK  status: ('A' for Active; 'I' for Inactive)
REMARK    1  A    between atoms: C_2  and  C_3 
REMARK    2  A    between atoms: C_5  and  N_6 
REMARK       I    between atoms: N_6  and  C_7 
REMARK       I    between atoms: C_7  and  N_8 
REMARK    3  A    between atoms: N_8  and  C_9 
REMARK    4  A    between atoms: C_9  and  C_10 
REMARK    5  A    between atoms: C_10  and  N_11 
REMARK    6  A    between atoms: C_18  and  O_19 
ROOT
HETATM    1  N   UNL     1      42.124 -12.878   2.866  1.00  0.00    -0.306 N 
HETATM    2  C   UNL     1      42.997 -11.857   3.093  1.00  0.00     0.320 C 
HETATM    3  N   UNL     1      42.479 -10.600   2.946  1.00  0.00    -0.341 N 
HETATM    4  O   UNL     1      44.184 -11.956   3.389  1.00  0.00    -0.247 OA
HETATM    5  H   UNL     1      41.338 -12.678   2.258  1.00  0.00     0.171 HD
HETATM    6  H   UNL     1      43.197  -9.917   3.158  1.00  0.00     0.164 HD
ENDROOT
BRANCH   1   7
HETATM    7  C   UNL     1      42.325 -14.255   3.105  1.00  0.00     0.070 A 
HETATM    8  C   UNL     1      42.740 -14.757   4.344  1.00  0.00     0.040 A 
HETATM    9  C   UNL     1      42.896 -16.141   4.569  1.00  0.00    -0.048 A 
HETATM   10  C   UNL     1      42.622 -17.001   3.496  1.00  0.00     0.011 A 
HETATM   11  C   UNL     1      42.201 -16.511   2.252  1.00  0.00     0.039 A 
HETATM   12  C   UNL     1      42.044 -15.140   2.050  1.00  0.00     0.095 A 
BRANCH   9  13
HETATM   13  C   UNL     1      43.327 -16.647   5.958  1.00  0.00    -0.024 C 
HETATM   14  C   UNL     1      44.719 -16.072   6.301  1.00  0.00     0.019 C 
HETATM   15  C   UNL     1      43.399 -18.190   5.960  1.00  0.00     0.019 C 
HETATM   16  C   UNL     1      42.368 -16.235   7.096  1.00  0.00     0.019 C 
ENDBRANCH   9  13
BRANCH  12  17
HETATM   17  O   UNL     1      41.630 -14.556   0.876  1.00  0.00    -0.354 OA
HETATM   18  C   UNL     1      40.312 -14.860   0.434  1.00  0.00     0.210 C 
ENDBRANCH  12  17
ENDBRANCH   1   7
BRANCH   3  19
HETATM   19  C   UNL     1      41.105 -10.203   3.240  1.00  0.00     0.146 C 
BRANCH  19  20
HETATM   20  C   UNL     1      40.484  -9.409   2.097  1.00  0.00     0.170 C 
BRANCH  20  21
HETATM   21  N   UNL     1      40.833  -9.962   0.803  1.00  0.00    -0.278 N 
HETATM   22  N   UNL     1      41.835  -9.414   0.087  1.00  0.00    -0.184 NA
HETATM   23  C   UNL     1      41.896 -10.184  -1.005  1.00  0.00     0.164 A 
HETATM   24  C   UNL     1      40.932 -11.207  -0.990  1.00  0.00     0.070 A 
HETATM   25 CL   UNL     1      40.684 -12.380  -2.180  1.00  0.00    -0.081 Cl
HETATM   26  C   UNL     1      40.253 -11.038   0.192  1.00  0.00     0.137 A 
ENDBRANCH  20  21
ENDBRANCH  19  20
ENDBRANCH   3  19
TORSDOF 6
ENDMDL
