MODEL 1
REMARK VINA RESULT:      -7.3      0.000      0.000
REMARK  8 active torsions:
REMARK  status: ('A' for Active; 'I' for Inactive)
REMARK    1  A    between atoms: O_2  and  C_3 
REMARK    2  A    between atoms: C_6  and  N_7 
REMARK    3  A    between atoms: N_7  and  C_8 
REMARK    4  A    between atoms: C_8  and  C_9 
REMARK    5  A    between atoms: C_9  and  C_10 
REMARK    6  A    between atoms: C_10  and  C_11 
REMARK       I    between atoms: C_11  and  N_12 
REMARK    7  A    between atoms: N_12  and  N_13 
REMARK    8  A    between atoms: C_14  and  C_15 
ROOT
HETATM    1  C   UNL     1      40.588 -14.831   0.380  1.00  0.00     0.237 C 
HETATM    2  N   UNL     1      41.816 -14.838   1.028  1.00  0.00    -0.247 N 
HETATM    3  O   UNL     1      39.675 -15.624   0.590  1.00  0.00    -0.272 OA
HETATM    4  H   UNL     1      42.527 -14.149   0.814  1.00  0.00     0.192 HD
ENDROOT
BRANCH   1   5
HETATM    5  C   UNL     1      40.484 -13.717  -0.646  1.00  0.00     0.106 C 
BRANCH   5   6
HETATM    6  C   UNL     1      39.296 -12.802  -0.352  1.00  0.00     0.029 C 
BRANCH   6   7
HETATM    7  C   UNL     1      39.727 -11.369  -0.046  1.00  0.00     0.120 C 
BRANCH   7   8
HETATM    8  N   UNL     1      39.474 -11.093   1.363  1.00  0.00    -0.390 N 
HETATM    9  H   UNL     1      38.484 -11.002   1.581  1.00  0.00     0.159 HD
BRANCH   8  10
HETATM   10  C   UNL     1      40.161 -11.787   2.360  1.00  0.00     0.028 A 
HETATM   11  C   UNL     1      41.529 -11.642   2.609  1.00  0.00     0.032 A 
HETATM   12  C   UNL     1      42.150 -12.300   3.682  1.00  0.00     0.039 A 
HETATM   13  C   UNL     1      41.404 -13.101   4.543  1.00  0.00     0.068 A 
HETATM   14  C   UNL     1      40.035 -13.228   4.326  1.00  0.00     0.039 A 
HETATM   15  C   UNL     1      39.420 -12.566   3.259  1.00  0.00     0.032 A 
BRANCH  13  16
HETATM   16  O   UNL     1      41.881 -13.793   5.622  1.00  0.00    -0.356 OA
HETATM   17  C   UNL     1      40.947 -14.596   6.332  1.00  0.00     0.210 C 
ENDBRANCH  13  16
ENDBRANCH   8  10
ENDBRANCH   7   8
ENDBRANCH   6   7
ENDBRANCH   5   6
ENDBRANCH   1   5
BRANCH   2  18
HETATM   18  N   UNL     1      42.067 -15.805   1.958  1.00  0.00    -0.184 NA
HETATM   19  C   UNL     1      43.215 -15.762   2.551  1.00  0.00     0.152 C 
BRANCH  19  20
HETATM   20  C   UNL     1      43.535 -16.776   3.535  1.00  0.00     0.011 A 
HETATM   21  C   UNL     1      43.600 -18.194   3.347  1.00  0.00     0.004 A 
HETATM   22  C   UNL     1      43.939 -18.763   4.578  1.00  0.00     0.043 A 
HETATM   23  C   UNL     1      43.407 -19.055   2.246  1.00  0.00     0.014 A 
HETATM   24  C   UNL     1      44.090 -20.141   4.764  1.00  0.00     0.030 A 
HETATM   25  N   UNL     1      44.075 -17.731   5.478  1.00  0.00    -0.364 N 
HETATM   26  C   UNL     1      43.892 -20.970   3.657  1.00  0.00     0.002 A 
HETATM   27  C   UNL     1      43.556 -20.438   2.415  1.00  0.00     0.001 A 
HETATM   28  H   UNL     1      44.317 -17.846   6.452  1.00  0.00     0.165 HD
HETATM   29  C   UNL     1      43.836 -16.535   4.863  1.00  0.00     0.102 A 
ENDBRANCH  19  20
ENDBRANCH   2  18
TORSDOF 8
ENDMDL
MODEL 2
REMARK VINA RESULT:      -7.2      6.616      8.274
REMARK  8 active torsions:
REMARK  status: ('A' for Active; 'I' for Inactive)
REMARK    1  A    between atoms: O_2  and  C_3 
REMARK    2  A    between atoms: C_6  and  N_7 
REMARK    3  A    between atoms: N_7  and  C_8 
REMARK    4  A    between atoms: C_8  and  C_9 
REMARK    5  A    between atoms: C_9  and  C_10 
REMARK    6  A    between atoms: C_10  and  C_11 
REMARK       I    between atoms: C_11  and  N_12 
REMARK    7  A    between atoms: N_12  and  N_13 
REMARK    8  A    between atoms: C_14  and  C_15 
ROOT
HETATM    1  C   UNL     1      44.685 -11.528   7.043  1.00  0.00     0.237 C 
HETATM    2  N   UNL     1      43.672 -12.472   7.159  1.00  0.00    -0.247 N 
HETATM    3  O   UNL     1      45.224 -11.198   5.991  1.00  0.00    -0.272 OA
HETATM    4  H   UNL     1      43.261 -12.693   8.058  1.00  0.00     0.192 HD
ENDROOT
BRANCH   1   5
HETATM    5  C   UNL     1      45.070 -10.928   8.384  1.00  0.00     0.106 C 
BRANCH   5   6
HETATM    6  C   UNL     1      43.843 -10.413   9.134  1.00  0.00     0.029 C 
BRANCH   6   7
HETATM    7  C   UNL     1      43.967 -10.593  10.645  1.00  0.00     0.120 C 
BRANCH   7   8
HETATM    8  N   UNL     1      42.651 -10.424  11.249  1.00  0.00    -0.390 N 
HETATM    9  H   UNL     1      42.153 -11.304  11.374  1.00  0.00     0.159 HD
BRANCH   8  10
HETATM   10  C   UNL     1      42.470  -9.570  12.338  1.00  0.00     0.028 A 
HETATM   11  C   UNL     1      43.296  -8.477  12.616  1.00  0.00     0.032 A 
HETATM   12  C   UNL     1      43.017  -7.600  13.676  1.00  0.00     0.039 A 
HETATM   13  C   UNL     1      41.885  -7.789  14.466  1.00  0.00     0.068 A 
HETATM   14  C   UNL     1      41.036  -8.856  14.180  1.00  0.00     0.039 A 
HETATM   15  C   UNL     1      41.317  -9.723  13.119  1.00  0.00     0.032 A 
BRANCH  13  16
HETATM   16  O   UNL     1      41.495  -7.014  15.522  1.00  0.00    -0.356 OA
HETATM   17  C   UNL     1      41.358  -7.663  16.779  1.00  0.00     0.210 C 
ENDBRANCH  13  16
ENDBRANCH   8  10
ENDBRANCH   7   8
ENDBRANCH   6   7
ENDBRANCH   5   6
ENDBRANCH   1   5
BRANCH   2  18
HETATM   18  N   UNL     1      43.242 -13.120   6.038  1.00  0.00    -0.184 NA
HETATM   19  C   UNL     1      43.353 -14.408   6.029  1.00  0.00     0.152 C 
BRANCH  19  20
HETATM   20  C   UNL     1      42.924 -15.140   4.856  1.00  0.00     0.011 A 
HETATM   21  C   UNL     1      43.357 -16.434   4.419  1.00  0.00     0.004 A 
HETATM   22  C   UNL     1      42.672 -16.725   3.235  1.00  0.00     0.043 A 
HETATM   23  C   UNL     1      44.266 -17.392   4.916  1.00  0.00     0.014 A 
HETATM   24  C   UNL     1      42.851 -17.918   2.526  1.00  0.00     0.030 A 
HETATM   25  N   UNL     1      41.855 -15.652   2.965  1.00  0.00    -0.364 N 
HETATM   26  C   UNL     1      43.758 -18.848   3.041  1.00  0.00     0.002 A 
HETATM   27  C   UNL     1      44.456 -18.592   4.218  1.00  0.00     0.001 A 
HETATM   28  H   UNL     1      41.240 -15.585   2.165  1.00  0.00     0.165 HD
HETATM   29  C   UNL     1      41.997 -14.697   3.930  1.00  0.00     0.102 A 
ENDBRANCH  19  20
ENDBRANCH   2  18
TORSDOF 8
ENDMDL
MODEL 3
REMARK VINA RESULT:      -7.2      6.472      8.330
REMARK  8 active torsions:
REMARK  status: ('A' for Active; 'I' for Inactive)
REMARK    1  A    between atoms: O_2  and  C_3 
REMARK    2  A    between atoms: C_6  and  N_7 
REMARK    3  A    between atoms: N_7  and  C_8 
REMARK    4  A    between atoms: C_8  and  C_9 
REMARK    5  A    between atoms: C_9  and  C_10 
REMARK    6  A    between atoms: C_10  and  C_11 
REMARK       I    between atoms: C_11  and  N_12 
REMARK    7  A    between atoms: N_12  and  N_13 
REMARK    8  A    between atoms: C_14  and  C_15 
ROOT
HETATM    1  C   UNL     1      44.403 -11.526   7.484  1.00  0.00     0.237 C 
HETATM    2  N   UNL     1      43.514 -12.592   7.519  1.00  0.00    -0.247 N 
HETATM    3  O   UNL     1      45.405 -11.467   6.777  1.00  0.00    -0.272 OA
HETATM    4  H   UNL     1      42.698 -12.575   8.120  1.00  0.00     0.192 HD
ENDROOT
BRANCH   1   5
HETATM    5  C   UNL     1      44.005 -10.410   8.433  1.00  0.00     0.106 C 
BRANCH   5   6
HETATM    6  C   UNL     1      44.961 -10.326   9.621  1.00  0.00     0.029 C 
BRANCH   6   7
HETATM    7  C   UNL     1      44.334 -10.851  10.911  1.00  0.00     0.120 C 
BRANCH   7   8
HETATM    8  N   UNL     1      42.935 -10.445  10.954  1.00  0.00    -0.390 N 
HETATM    9  H   UNL     1      42.292 -11.202  10.726  1.00  0.00     0.159 HD
BRANCH   8  10
HETATM   10  C   UNL     1      42.453  -9.656  11.999  1.00  0.00     0.028 A 
HETATM   11  C   UNL     1      41.330  -9.980  12.765  1.00  0.00     0.032 A 
HETATM   12  C   UNL     1      40.940  -9.194  13.861  1.00  0.00     0.039 A 
HETATM   13  C   UNL     1      41.687  -8.076  14.226  1.00  0.00     0.068 A 
HETATM   14  C   UNL     1      42.827  -7.760  13.490  1.00  0.00     0.039 A 
HETATM   15  C   UNL     1      43.213  -8.550  12.403  1.00  0.00     0.032 A 
BRANCH  13  16
HETATM   16  O   UNL     1      41.423  -7.229  15.266  1.00  0.00    -0.356 OA
HETATM   17  C   UNL     1      41.010  -7.825  16.489  1.00  0.00     0.210 C 
ENDBRANCH  13  16
ENDBRANCH   8  10
ENDBRANCH   7   8
ENDBRANCH   6   7
ENDBRANCH   5   6
ENDBRANCH   1   5
BRANCH   2  18
HETATM   18  N   UNL     1      43.760 -13.684   6.740  1.00  0.00    -0.184 NA
HETATM   19  C   UNL     1      43.141 -14.776   7.052  1.00  0.00     0.152 C 
BRANCH  19  20
HETATM   20  C   UNL     1      43.381 -15.967   6.264  1.00  0.00     0.011 A 
HETATM   21  C   UNL     1      43.252 -16.124   4.846  1.00  0.00     0.004 A 
HETATM   22  C   UNL     1      43.582 -17.448   4.541  1.00  0.00     0.043 A 
HETATM   23  C   UNL     1      42.888 -15.267   3.785  1.00  0.00     0.014 A 
HETATM   24  C   UNL     1      43.563 -17.957   3.238  1.00  0.00     0.030 A 
HETATM   25  N   UNL     1      43.900 -18.071   5.726  1.00  0.00    -0.364 N 
HETATM   26  C   UNL     1      43.199 -17.086   2.208  1.00  0.00     0.002 A 
HETATM   27  C   UNL     1      42.866 -15.761   2.474  1.00  0.00     0.001 A 
HETATM   28  H   UNL     1      44.178 -19.038   5.811  1.00  0.00     0.165 HD
HETATM   29  C   UNL     1      43.784 -17.192   6.765  1.00  0.00     0.102 A 
ENDBRANCH  19  20
ENDBRANCH   2  18
TORSDOF 8
ENDMDL
MODEL 4
REMARK VINA RESULT:      -7.0      5.077      6.520
REMARK  8 active torsions:
REMARK  status: ('A' for Active; 'I' for Inactive)
REMARK    1  A    between atoms: O_2  and  C_3 
REMARK    2  A    between atoms: C_6  and  N_7 
REMARK    3  A    between atoms: N_7  and  C_8 
REMARK    4  A    between atoms: C_8  and  C_9 
REMARK    5  A    between atoms: C_9  and  C_10 
REMARK    6  A    between atoms: C_10  and  C_11 
REMARK       I    between atoms: C_11  and  N_12 
REMARK    7  A    between atoms: N_12  and  N_13 
REMARK    8  A    between atoms: C_14  and  C_15 
ROOT
HETATM    1  C   UNL     1      43.561 -12.616   5.858  1.00  0.00     0.237 C 
HETATM    2  N   UNL     1      43.188 -13.925   6.134  1.00  0.00    -0.247 N 
HETATM    3  O   UNL     1      43.715 -12.148   4.734  1.00  0.00    -0.272 OA
HETATM    4  H   UNL     1      43.069 -14.248   7.087  1.00  0.00     0.192 HD
ENDROOT
BRANCH   1   5
HETATM    5  C   UNL     1      43.768 -11.798   7.120  1.00  0.00     0.106 C 
BRANCH   5   6
HETATM    6  C   UNL     1      45.107 -11.062   7.091  1.00  0.00     0.029 C 
BRANCH   6   7
HETATM    7  C   UNL     1      45.513 -10.538   8.467  1.00  0.00     0.120 C 
BRANCH   7   8
HETATM    8  N   UNL     1      44.753  -9.328   8.752  1.00  0.00    -0.390 N 
HETATM    9  H   UNL     1      44.392  -8.875   7.914  1.00  0.00     0.159 HD
BRANCH   8  10
HETATM   10  C   UNL     1      43.825  -9.298   9.794  1.00  0.00     0.028 A 
HETATM   11  C   UNL     1      44.165  -9.089  11.134  1.00  0.00     0.032 A 
HETATM   12  C   UNL     1      43.182  -8.982  12.130  1.00  0.00     0.039 A 
HETATM   13  C   UNL     1      41.832  -9.059  11.797  1.00  0.00     0.068 A 
HETATM   14  C   UNL     1      41.477  -9.236  10.462  1.00  0.00     0.039 A 
HETATM   15  C   UNL     1      42.461  -9.336   9.473  1.00  0.00     0.032 A 
BRANCH  13  16
HETATM   16  O   UNL     1      40.777  -8.969  12.663  1.00  0.00    -0.356 OA
HETATM   17  C   UNL     1      40.189 -10.192  13.087  1.00  0.00     0.210 C 
ENDBRANCH  13  16
ENDBRANCH   8  10
ENDBRANCH   7   8
ENDBRANCH   6   7
ENDBRANCH   5   6
ENDBRANCH   1   5
BRANCH   2  18
HETATM   18  N   UNL     1      42.997 -14.790   5.096  1.00  0.00    -0.184 NA
HETATM   19  C   UNL     1      43.666 -15.896   5.126  1.00  0.00     0.152 C 
BRANCH  19  20
HETATM   20  C   UNL     1      43.509 -16.840   4.039  1.00  0.00     0.011 A 
HETATM   21  C   UNL     1      43.693 -18.260   4.074  1.00  0.00     0.004 A 
HETATM   22  C   UNL     1      43.435 -18.746   2.789  1.00  0.00     0.043 A 
HETATM   23  C   UNL     1      44.053 -19.186   5.077  1.00  0.00     0.014 A 
HETATM   24  C   UNL     1      43.521 -20.103   2.457  1.00  0.00     0.030 A 
HETATM   25  N   UNL     1      43.106 -17.665   2.005  1.00  0.00    -0.364 N 
HETATM   26  C   UNL     1      43.880 -20.996   3.469  1.00  0.00     0.002 A 
HETATM   27  C   UNL     1      44.142 -20.548   4.761  1.00  0.00     0.001 A 
HETATM   28  H   UNL     1      42.870 -17.717   1.024  1.00  0.00     0.165 HD
HETATM   29  C   UNL     1      43.146 -16.517   2.744  1.00  0.00     0.102 A 
ENDBRANCH  19  20
ENDBRANCH   2  18
TORSDOF 8
ENDMDL
MODEL 5
REMARK VINA RESULT:      -6.8      2.999      4.831
REMARK  8 active torsions:
REMARK  status: ('A' for Active; 'I' for Inactive)
REMARK    1  A    between atoms: O_2  and  C_3 
REMARK    2  A    between atoms: C_6  and  N_7 
REMARK    3  A    between atoms: N_7  and  C_8 
REMARK    4  A    between atoms: C_8  and  C_9 
REMARK    5  A    between atoms: C_9  and  C_10 
REMARK    6  A    between atoms: C_10  and  C_11 
REMARK       I    between atoms: C_11  and  N_12 
REMARK    7  A    between atoms: N_12  and  N_13 
REMARK    8  A    between atoms: C_14  and  C_15 
ROOT
HETATM    1  C   UNL     1      40.226 -14.369   1.163  1.00  0.00     0.237 C 
HETATM    2  N   UNL     1      41.362 -15.133   0.926  1.00  0.00    -0.247 N 
HETATM    3  O   UNL     1      39.537 -14.427   2.177  1.00  0.00    -0.272 OA
HETATM    4  H   UNL     1      41.894 -15.031   0.070  1.00  0.00     0.192 HD
ENDROOT
BRANCH   1   5
HETATM    5  C   UNL     1      39.911 -13.432   0.011  1.00  0.00     0.106 C 
BRANCH   5   6
HETATM    6  C   UNL     1      39.682 -14.206  -1.286  1.00  0.00     0.029 C 
BRANCH   6   7
HETATM    7  C   UNL     1      40.074 -13.399  -2.522  1.00  0.00     0.120 C 
BRANCH   7   8
HETATM    8  N   UNL     1      41.258 -12.608  -2.211  1.00  0.00    -0.390 N 
HETATM    9  H   UNL     1      42.125 -13.051  -2.513  1.00  0.00     0.159 HD
BRANCH   8  10
HETATM   10  C   UNL     1      41.276 -11.231  -2.438  1.00  0.00     0.028 A 
HETATM   11  C   UNL     1      40.833 -10.631  -3.620  1.00  0.00     0.032 A 
HETATM   12  C   UNL     1      40.793  -9.235  -3.761  1.00  0.00     0.039 A 
HETATM   13  C   UNL     1      41.176  -8.410  -2.706  1.00  0.00     0.068 A 
HETATM   14  C   UNL     1      41.589  -8.995  -1.511  1.00  0.00     0.039 A 
HETATM   15  C   UNL     1      41.622 -10.386  -1.375  1.00  0.00     0.032 A 
BRANCH  13  16
HETATM   16  O   UNL     1      41.183  -7.043  -2.708  1.00  0.00    -0.356 OA
HETATM   17  C   UNL     1      42.312  -6.408  -3.295  1.00  0.00     0.210 C 
ENDBRANCH  13  16
ENDBRANCH   8  10
ENDBRANCH   7   8
ENDBRANCH   6   7
ENDBRANCH   5   6
ENDBRANCH   1   5
BRANCH   2  18
HETATM   18  N   UNL     1      41.752 -16.046   1.863  1.00  0.00    -0.184 NA
HETATM   19  C   UNL     1      42.905 -15.859   2.417  1.00  0.00     0.152 C 
BRANCH  19  20
HETATM   20  C   UNL     1      43.370 -16.809   3.406  1.00  0.00     0.011 A 
HETATM   21  C   UNL     1      43.498 -18.229   3.270  1.00  0.00     0.004 A 
HETATM   22  C   UNL     1      43.979 -18.723   4.485  1.00  0.00     0.043 A 
HETATM   23  C   UNL     1      43.253 -19.148   2.227  1.00  0.00     0.014 A 
HETATM   24  C   UNL     1      44.224 -20.082   4.711  1.00  0.00     0.030 A 
HETATM   25  N   UNL     1      44.138 -17.647   5.327  1.00  0.00    -0.364 N 
HETATM   26  C   UNL     1      43.973 -20.969   3.661  1.00  0.00     0.002 A 
HETATM   27  C   UNL     1      43.495 -20.512   2.436  1.00  0.00     0.001 A 
HETATM   28  H   UNL     1      44.474 -17.704   6.278  1.00  0.00     0.165 HD
HETATM   29  C   UNL     1      43.777 -16.494   4.689  1.00  0.00     0.102 A 
ENDBRANCH  19  20
ENDBRANCH   2  18
TORSDOF 8
ENDMDL
MODEL 6
REMARK VINA RESULT:      -6.8      1.510      4.096
REMARK  8 active torsions:
REMARK  status: ('A' for Active; 'I' for Inactive)
REMARK    1  A    between atoms: O_2  and  C_3 
REMARK    2  A    between atoms: C_6  and  N_7 
REMARK    3  A    between atoms: N_7  and  C_8 
REMARK    4  A    between atoms: C_8  and  C_9 
REMARK    5  A    between atoms: C_9  and  C_10 
REMARK    6  A    between atoms: C_10  and  C_11 
REMARK       I    between atoms: C_11  and  N_12 
REMARK    7  A    between atoms: N_12  and  N_13 
REMARK    8  A    between atoms: C_14  and  C_15 
ROOT
HETATM    1  C   UNL     1      41.110 -12.877   4.739  1.00  0.00     0.237 C 
HETATM    2  N   UNL     1      41.888 -13.767   4.010  1.00  0.00    -0.247 N 
HETATM    3  O   UNL     1      40.659 -13.090   5.861  1.00  0.00    -0.272 OA
HETATM    4  H   UNL     1      42.239 -13.527   3.091  1.00  0.00     0.192 HD
ENDROOT
BRANCH   1   5
HETATM    5  C   UNL     1      40.863 -11.580   3.990  1.00  0.00     0.106 C 
BRANCH   5   6
HETATM    6  C   UNL     1      42.036 -11.238   3.073  1.00  0.00     0.029 C 
BRANCH   6   7
HETATM    7  C   UNL     1      41.578 -10.737   1.705  1.00  0.00     0.120 C 
BRANCH   7   8
HETATM    8  N   UNL     1      40.232 -11.234   1.448  1.00  0.00    -0.390 N 
HETATM    9  H   UNL     1      39.544 -10.490   1.343  1.00  0.00     0.159 HD
BRANCH   8  10
HETATM   10  C   UNL     1      40.015 -12.269   0.538  1.00  0.00     0.028 A 
HETATM   11  C   UNL     1      40.549 -13.553   0.676  1.00  0.00     0.032 A 
HETATM   12  C   UNL     1      40.227 -14.580  -0.225  1.00  0.00     0.039 A 
HETATM   13  C   UNL     1      39.341 -14.345  -1.272  1.00  0.00     0.068 A 
HETATM   14  C   UNL     1      38.776 -13.078  -1.404  1.00  0.00     0.039 A 
HETATM   15  C   UNL     1      39.096 -12.061  -0.500  1.00  0.00     0.032 A 
BRANCH  13  16
HETATM   16  O   UNL     1      38.941 -15.251  -2.215  1.00  0.00    -0.356 OA
HETATM   17  C   UNL     1      38.238 -14.739  -3.340  1.00  0.00     0.210 C 
ENDBRANCH  13  16
ENDBRANCH   8  10
ENDBRANCH   7   8
ENDBRANCH   6   7
ENDBRANCH   5   6
ENDBRANCH   1   5
BRANCH   2  18
HETATM   18  N   UNL     1      42.168 -14.991   4.544  1.00  0.00    -0.184 NA
HETATM   19  C   UNL     1      43.072 -15.697   3.947  1.00  0.00     0.152 C 
BRANCH  19  20
HETATM   20  C   UNL     1      43.394 -17.009   4.467  1.00  0.00     0.011 A 
HETATM   21  C   UNL     1      43.495 -18.241   3.743  1.00  0.00     0.004 A 
HETATM   22  C   UNL     1      43.821 -19.241   4.665  1.00  0.00     0.043 A 
HETATM   23  C   UNL     1      43.343 -18.608   2.389  1.00  0.00     0.014 A 
HETATM   24  C   UNL     1      43.999 -20.581   4.304  1.00  0.00     0.030 A 
HETATM   25  N   UNL     1      43.915 -18.640   5.899  1.00  0.00    -0.364 N 
HETATM   26  C   UNL     1      43.842 -20.915   2.956  1.00  0.00     0.002 A 
HETATM   27  C   UNL     1      43.520 -19.945   2.011  1.00  0.00     0.001 A 
HETATM   28  H   UNL     1      44.139 -19.122   6.758  1.00  0.00     0.165 HD
HETATM   29  C   UNL     1      43.662 -17.302   5.791  1.00  0.00     0.102 A 
ENDBRANCH  19  20
ENDBRANCH   2  18
TORSDOF 8
ENDMDL
MODEL 7
REMARK VINA RESULT:      -6.7      4.249      7.091
REMARK  8 active torsions:
REMARK  status: ('A' for Active; 'I' for Inactive)
REMARK    1  A    between atoms: O_2  and  C_3 
REMARK    2  A    between atoms: C_6  and  N_7 
REMARK    3  A    between atoms: N_7  and  C_8 
REMARK    4  A    between atoms: C_8  and  C_9 
REMARK    5  A    between atoms: C_9  and  C_10 
REMARK    6  A    between atoms: C_10  and  C_11 
REMARK       I    between atoms: C_11  and  N_12 
REMARK    7  A    between atoms: N_12  and  N_13 
REMARK    8  A    between atoms: C_14  and  C_15 
ROOT
HETATM    1  C   UNL     1      42.010 -11.997   2.807  1.00  0.00     0.237 C 
HETATM    2  N   UNL     1      42.295 -12.370   4.114  1.00  0.00    -0.247 N 
HETATM    3  O   UNL     1      42.586 -11.109   2.186  1.00  0.00    -0.272 OA
HETATM    4  H   UNL     1      41.787 -13.119   4.569  1.00  0.00     0.192 HD
ENDROOT
BRANCH   1   5
HETATM    5  C   UNL     1      40.880 -12.816   2.207  1.00  0.00     0.106 C 
BRANCH   5   6
HETATM    6  C   UNL     1      41.364 -13.633   1.011  1.00  0.00     0.029 C 
BRANCH   6   7
HETATM    7  C   UNL     1      40.744 -15.029   0.971  1.00  0.00     0.120 C 
BRANCH   7   8
HETATM    8  N   UNL     1      40.588 -15.514   2.336  1.00  0.00    -0.390 N 
HETATM    9  H   UNL     1      39.684 -15.953   2.503  1.00  0.00     0.159 HD
BRANCH   8  10
HETATM   10  C   UNL     1      41.622 -16.204   2.970  1.00  0.00     0.028 A 
HETATM   11  C   UNL     1      42.004 -15.985   4.297  1.00  0.00     0.032 A 
HETATM   12  C   UNL     1      42.994 -16.769   4.911  1.00  0.00     0.039 A 
HETATM   13  C   UNL     1      43.604 -17.807   4.211  1.00  0.00     0.068 A 
HETATM   14  C   UNL     1      43.210 -18.057   2.899  1.00  0.00     0.039 A 
HETATM   15  C   UNL     1      42.220 -17.276   2.294  1.00  0.00     0.032 A 
BRANCH  13  16
HETATM   16  O   UNL     1      44.575 -18.645   4.687  1.00  0.00    -0.356 OA
HETATM   17  C   UNL     1      44.268 -20.033   4.714  1.00  0.00     0.210 C 
ENDBRANCH  13  16
ENDBRANCH   8  10
ENDBRANCH   7   8
ENDBRANCH   6   7
ENDBRANCH   5   6
ENDBRANCH   1   5
BRANCH   2  18
HETATM   18  N   UNL     1      43.268 -11.700   4.795  1.00  0.00    -0.184 NA
HETATM   19  C   UNL     1      43.577 -12.149   5.968  1.00  0.00     0.152 C 
BRANCH  19  20
HETATM   20  C   UNL     1      44.594 -11.463   6.736  1.00  0.00     0.011 A 
HETATM   21  C   UNL     1      44.444 -10.791   7.992  1.00  0.00     0.004 A 
HETATM   22  C   UNL     1      45.695 -10.276   8.342  1.00  0.00     0.043 A 
HETATM   23  C   UNL     1      43.362 -10.570   8.871  1.00  0.00     0.014 A 
HETATM   24  C   UNL     1      45.919  -9.552   9.519  1.00  0.00     0.030 A 
HETATM   25  N   UNL     1      46.572 -10.622   7.340  1.00  0.00    -0.364 N 
HETATM   26  C   UNL     1      44.830  -9.348  10.371  1.00  0.00     0.002 A 
HETATM   27  C   UNL     1      43.570  -9.849  10.055  1.00  0.00     0.001 A 
HETATM   28  H   UNL     1      47.553 -10.382   7.326  1.00  0.00     0.165 HD
HETATM   29  C   UNL     1      45.923 -11.335   6.373  1.00  0.00     0.102 A 
ENDBRANCH  19  20
ENDBRANCH   2  18
TORSDOF 8
ENDMDL
MODEL 8
REMARK VINA RESULT:      -6.7      6.681     10.460
REMARK  8 active torsions:
REMARK  status: ('A' for Active; 'I' for Inactive)
REMARK    1  A    between atoms: O_2  and  C_3 
REMARK    2  A    between atoms: C_6  and  N_7 
REMARK    3  A    between atoms: N_7  and  C_8 
REMARK    4  A    between atoms: C_8  and  C_9 
REMARK    5  A    between atoms: C_9  and  C_10 
REMARK    6  A    between atoms: C_10  and  C_11 
REMARK       I    between atoms: C_11  and  N_12 
REMARK    7  A    between atoms: N_12  and  N_13 
REMARK    8  A    between atoms: C_14  and  C_15 
ROOT
HETATM    1  C   UNL     1      44.773 -11.049   7.438  1.00  0.00     0.237 C 
HETATM    2  N   UNL     1      43.571 -10.858   8.106  1.00  0.00    -0.247 N 
HETATM    3  O   UNL     1      45.699 -10.244   7.407  1.00  0.00    -0.272 OA
HETATM    4  H   UNL     1      42.848 -11.568   8.100  1.00  0.00     0.192 HD
ENDROOT
BRANCH   1   5
HETATM    5  C   UNL     1      44.831 -12.390   6.728  1.00  0.00     0.106 C 
BRANCH   5   6
HETATM    6  C   UNL     1      43.444 -12.832   6.266  1.00  0.00     0.029 C 
BRANCH   6   7
HETATM    7  C   UNL     1      43.331 -14.350   6.134  1.00  0.00     0.120 C 
BRANCH   7   8
HETATM    8  N   UNL     1      43.011 -14.680   4.751  1.00  0.00    -0.390 N 
HETATM    9  H   UNL     1      43.364 -13.995   4.085  1.00  0.00     0.159 HD
BRANCH   8  10
HETATM   10  C   UNL     1      43.158 -15.984   4.276  1.00  0.00     0.028 A 
HETATM   11  C   UNL     1      42.655 -16.428   3.050  1.00  0.00     0.032 A 
HETATM   12  C   UNL     1      42.907 -17.727   2.583  1.00  0.00     0.039 A 
HETATM   13  C   UNL     1      43.693 -18.602   3.329  1.00  0.00     0.068 A 
HETATM   14  C   UNL     1      44.228 -18.163   4.538  1.00  0.00     0.039 A 
HETATM   15  C   UNL     1      43.978 -16.865   4.995  1.00  0.00     0.032 A 
BRANCH  13  16
HETATM   16  O   UNL     1      44.018 -19.887   2.992  1.00  0.00    -0.356 OA
HETATM   17  C   UNL     1      43.488 -20.383   1.770  1.00  0.00     0.210 C 
ENDBRANCH  13  16
ENDBRANCH   8  10
ENDBRANCH   7   8
ENDBRANCH   6   7
ENDBRANCH   5   6
ENDBRANCH   1   5
BRANCH   2  18
HETATM   18  N   UNL     1      43.361  -9.683   8.766  1.00  0.00    -0.184 NA
HETATM   19  C   UNL     1      43.117  -9.759  10.034  1.00  0.00     0.152 C 
BRANCH  19  20
HETATM   20  C   UNL     1      42.873  -8.540  10.776  1.00  0.00     0.011 A 
HETATM   21  C   UNL     1      42.564  -8.404  12.168  1.00  0.00     0.004 A 
HETATM   22  C   UNL     1      42.407  -7.040  12.429  1.00  0.00     0.043 A 
HETATM   23  C   UNL     1      42.402  -9.311  13.237  1.00  0.00     0.014 A 
HETATM   24  C   UNL     1      42.097  -6.539  13.698  1.00  0.00     0.030 A 
HETATM   25  N   UNL     1      42.615  -6.373  11.244  1.00  0.00    -0.364 N 
HETATM   26  C   UNL     1      41.942  -7.459  14.738  1.00  0.00     0.002 A 
HETATM   27  C   UNL     1      42.093  -8.825  14.514  1.00  0.00     0.001 A 
HETATM   28  H   UNL     1      42.565  -5.370  11.132  1.00  0.00     0.165 HD
HETATM   29  C   UNL     1      42.896  -7.263  10.246  1.00  0.00     0.102 A 
ENDBRANCH  19  20
ENDBRANCH   2  18
TORSDOF 8
ENDMDL
MODEL 9
REMARK VINA RESULT:      -6.5      2.026      2.566
REMARK  8 active torsions:
REMARK  status: ('A' for Active; 'I' for Inactive)
REMARK    1  A    between atoms: O_2  and  C_3 
REMARK    2  A    between atoms: C_6  and  N_7 
REMARK    3  A    between atoms: N_7  and  C_8 
REMARK    4  A    between atoms: C_8  and  C_9 
REMARK    5  A    between atoms: C_9  and  C_10 
REMARK    6  A    between atoms: C_10  and  C_11 
REMARK       I    between atoms: C_11  and  N_12 
REMARK    7  A    between atoms: N_12  and  N_13 
REMARK    8  A    between atoms: C_14  and  C_15 
ROOT
HETATM    1  C   UNL     1      39.708 -13.671   2.480  1.00  0.00     0.237 C 
HETATM    2  N   UNL     1      39.988 -13.937   3.814  1.00  0.00    -0.247 N 
HETATM    3  O   UNL     1      40.023 -14.391   1.537  1.00  0.00    -0.272 OA
HETATM    4  H   UNL     1      39.691 -13.305   4.549  1.00  0.00     0.192 HD
ENDROOT
BRANCH   1   5
HETATM    5  C   UNL     1      38.955 -12.365   2.298  1.00  0.00     0.106 C 
BRANCH   5   6
HETATM    6  C   UNL     1      39.685 -11.436   1.329  1.00  0.00     0.029 C 
BRANCH   6   7
HETATM    7  C   UNL     1      40.361 -10.267   2.042  1.00  0.00     0.120 C 
BRANCH   7   8
HETATM    8  N   UNL     1      40.367 -10.530   3.475  1.00  0.00    -0.390 N 
HETATM    9  H   UNL     1      39.534 -11.021   3.795  1.00  0.00     0.159 HD
BRANCH   8  10
HETATM   10  C   UNL     1      41.518 -11.000   4.109  1.00  0.00     0.028 A 
HETATM   11  C   UNL     1      42.750 -11.158   3.469  1.00  0.00     0.032 A 
HETATM   12  C   UNL     1      43.897 -11.552   4.176  1.00  0.00     0.039 A 
HETATM   13  C   UNL     1      43.834 -11.773   5.550  1.00  0.00     0.068 A 
HETATM   14  C   UNL     1      42.620 -11.588   6.207  1.00  0.00     0.039 A 
HETATM   15  C   UNL     1      41.483 -11.190   5.497  1.00  0.00     0.032 A 
BRANCH  13  16
HETATM   16  O   UNL     1      44.869 -12.156   6.357  1.00  0.00    -0.356 OA
HETATM   17  C   UNL     1      45.717 -11.125   6.847  1.00  0.00     0.210 C 
ENDBRANCH  13  16
ENDBRANCH   8  10
ENDBRANCH   7   8
ENDBRANCH   6   7
ENDBRANCH   5   6
ENDBRANCH   1   5
BRANCH   2  18
HETATM   18  N   UNL     1      40.689 -15.064   4.131  1.00  0.00    -0.184 NA
HETATM   19  C   UNL     1      41.929 -14.907   4.462  1.00  0.00     0.152 C 
BRANCH  19  20
HETATM   20  C   UNL     1      42.720 -16.074   4.792  1.00  0.00     0.011 A 
HETATM   21  C   UNL     1      42.993 -17.213   3.968  1.00  0.00     0.004 A 
HETATM   22  C   UNL     1      43.792 -18.085   4.713  1.00  0.00     0.043 A 
HETATM   23  C   UNL     1      42.640 -17.591   2.655  1.00  0.00     0.014 A 
HETATM   24  C   UNL     1      44.252 -19.309   4.216  1.00  0.00     0.030 A 
HETATM   25  N   UNL     1      43.998 -17.498   5.940  1.00  0.00    -0.364 N 
HETATM   26  C   UNL     1      43.886 -19.658   2.913  1.00  0.00     0.002 A 
HETATM   27  C   UNL     1      43.093 -18.813   2.142  1.00  0.00     0.001 A 
HETATM   28  H   UNL     1      44.543 -17.905   6.688  1.00  0.00     0.165 HD
HETATM   29  C   UNL     1      43.361 -16.292   5.998  1.00  0.00     0.102 A 
ENDBRANCH  19  20
ENDBRANCH   2  18
TORSDOF 8
ENDMDL
MODEL 10
REMARK VINA RESULT:      -6.5      2.128      4.595
REMARK  8 active torsions:
REMARK  status: ('A' for Active; 'I' for Inactive)
REMARK    1  A    between atoms: O_2  and  C_3 
REMARK    2  A    between atoms: C_6  and  N_7 
REMARK    3  A    between atoms: N_7  and  C_8 
REMARK    4  A    between atoms: C_8  and  C_9 
REMARK    5  A    between atoms: C_9  and  C_10 
REMARK    6  A    between atoms: C_10  and  C_11 
REMARK       I    between atoms: C_11  and  N_12 
REMARK    7  A    between atoms: N_12  and  N_13 
REMARK    8  A    between atoms: C_14  and  C_15 
ROOT
HETATM    1  C   UNL     1      41.345 -11.796   6.044  1.00  0.00     0.237 C 
HETATM    2  N   UNL     1      40.869 -13.055   6.387  1.00  0.00    -0.247 N 
HETATM    3  O   UNL     1      42.505 -11.541   5.736  1.00  0.00    -0.272 OA
HETATM    4  H   UNL     1      39.895 -13.202   6.623  1.00  0.00     0.192 HD
ENDROOT
BRANCH   1   5
HETATM    5  C   UNL     1      40.259 -10.736   6.092  1.00  0.00     0.106 C 
BRANCH   5   6
HETATM    6  C   UNL     1      39.107 -11.081   5.150  1.00  0.00     0.029 C 
BRANCH   6   7
HETATM    7  C   UNL     1      39.561 -11.208   3.697  1.00  0.00     0.120 C 
BRANCH   7   8
HETATM    8  N   UNL     1      39.522 -12.613   3.313  1.00  0.00    -0.390 N 
HETATM    9  H   UNL     1      38.877 -13.164   3.876  1.00  0.00     0.159 HD
BRANCH   8  10
HETATM   10  C   UNL     1      39.478 -12.983   1.968  1.00  0.00     0.028 A 
HETATM   11  C   UNL     1      39.029 -12.145   0.944  1.00  0.00     0.032 A 
HETATM   12  C   UNL     1      39.088 -12.539  -0.402  1.00  0.00     0.039 A 
HETATM   13  C   UNL     1      39.623 -13.777  -0.750  1.00  0.00     0.068 A 
HETATM   14  C   UNL     1      40.104 -14.609   0.258  1.00  0.00     0.039 A 
HETATM   15  C   UNL     1      40.048 -14.209   1.596  1.00  0.00     0.032 A 
BRANCH  13  16
HETATM   16  O   UNL     1      39.742 -14.281  -2.016  1.00  0.00    -0.356 OA
HETATM   17  C   UNL     1      40.584 -13.570  -2.913  1.00  0.00     0.210 C 
ENDBRANCH  13  16
ENDBRANCH   8  10
ENDBRANCH   7   8
ENDBRANCH   6   7
ENDBRANCH   5   6
ENDBRANCH   1   5
BRANCH   2  18
HETATM   18  N   UNL     1      41.740 -14.105   6.418  1.00  0.00    -0.184 NA
HETATM   19  C   UNL     1      41.434 -15.139   5.705  1.00  0.00     0.152 C 
BRANCH  19  20
HETATM   20  C   UNL     1      42.319 -16.285   5.717  1.00  0.00     0.011 A 
HETATM   21  C   UNL     1      42.785 -17.049   4.598  1.00  0.00     0.004 A 
HETATM   22  C   UNL     1      43.612 -18.059   5.098  1.00  0.00     0.043 A 
HETATM   23  C   UNL     1      42.586 -16.980   3.203  1.00  0.00     0.014 A 
HETATM   24  C   UNL     1      44.244 -19.001   4.278  1.00  0.00     0.030 A 
HETATM   25  N   UNL     1      43.649 -17.915   6.465  1.00  0.00    -0.364 N 
HETATM   26  C   UNL     1      44.029 -18.908   2.900  1.00  0.00     0.002 A 
HETATM   27  C   UNL     1      43.213 -17.914   2.368  1.00  0.00     0.001 A 
HETATM   28  H   UNL     1      44.171 -18.510   7.093  1.00  0.00     0.165 HD
HETATM   29  C   UNL     1      42.878 -16.853   6.847  1.00  0.00     0.102 A 
ENDBRANCH  19  20
ENDBRANCH   2  18
TORSDOF 8
ENDMDL
