MODEL 1
REMARK VINA RESULT:      -8.7      0.000      0.000
REMARK  7 active torsions:
REMARK  status: ('A' for Active; 'I' for Inactive)
REMARK    1  A    between atoms: O_2  and  C_3 
REMARK    2  A    between atoms: C_3  and  C_4 
REMARK    3  A    between atoms: C_8  and  C_9 
REMARK    4  A    between atoms: C_9  and  N_10 
REMARK    5  A    between atoms: C_13  and  C_14 
REMARK    6  A    between atoms: C_14  and  N_15 
REMARK       I    between atoms: N_15  and  C_16 
REMARK       I    between atoms: C_16  and  N_17 
REMARK    7  A    between atoms: N_17  and  C_18 
ROOT
HETATM    1  N   UNL     1      44.431 -10.427   8.571  1.00  0.00    -0.067 N 
HETATM    2  H   UNL     1      44.836 -11.140   9.190  1.00  0.00     0.280 HD
HETATM    3  C   UNL     1      43.297 -11.102   7.825  1.00  0.00     0.241 C 
HETATM    4  C   UNL     1      43.858 -12.315   7.081  1.00  0.00     0.029 C 
HETATM    5  C   UNL     1      44.968 -11.878   6.111  1.00  0.00     0.009 C 
HETATM    6  C   UNL     1      46.066 -11.118   6.848  1.00  0.00     0.028 C 
HETATM    7  C   UNL     1      45.514  -9.945   7.645  1.00  0.00     0.235 C 
ENDROOT
BRANCH   4   8
HETATM    8  C   UNL     1      42.771 -13.105   6.332  1.00  0.00     0.130 C 
BRANCH   8   9
HETATM    9  N   UNL     1      43.217 -13.970   5.249  1.00  0.00    -0.342 N 
HETATM   10  C   UNL     1      42.941 -15.327   5.216  1.00  0.00     0.320 C 
HETATM   11  N   UNL     1      43.650 -15.952   4.217  1.00  0.00    -0.309 N 
HETATM   12  O   UNL     1      42.115 -15.838   5.960  1.00  0.00    -0.247 OA
HETATM   13  H   UNL     1      44.175 -15.355   3.594  1.00  0.00     0.170 HD
HETATM   14  H   UNL     1      44.138 -13.744   4.895  1.00  0.00     0.164 HD
BRANCH  11  15
HETATM   15  C   UNL     1      43.673 -17.329   3.912  1.00  0.00     0.039 A 
HETATM   16  C   UNL     1      44.211 -18.305   4.750  1.00  0.00     0.071 A 
HETATM   17  C   UNL     1      44.201 -19.640   4.353  1.00  0.00     0.118 A 
HETATM   18  F   UNL     1      44.721 -20.570   5.166  1.00  0.00    -0.206 F 
HETATM   19  C   UNL     1      43.664 -20.028   3.133  1.00  0.00     0.042 A 
HETATM   20  C   UNL     1      43.128 -19.062   2.288  1.00  0.00     0.005 A 
HETATM   21  C   UNL     1      43.133 -17.719   2.675  1.00  0.00     0.030 A 
ENDBRANCH  11  15
ENDBRANCH   8   9
ENDBRANCH   4   8
BRANCH   1  22
HETATM   22  C   UNL     1      43.954  -9.327   9.489  1.00  0.00     0.274 C 
BRANCH  22  23
HETATM   23  C   UNL     1      43.231  -9.801  10.707  1.00  0.00    -0.015 A 
HETATM   24  C   UNL     1      43.645 -10.805  11.562  1.00  0.00     0.097 A 
HETATM   25  N   UNL     1      42.699 -10.966  12.542  1.00  0.00    -0.360 N 
HETATM   26  C   UNL     1      41.669 -10.076  12.351  1.00  0.00     0.108 A 
HETATM   27  H   UNL     1      42.729 -11.641  13.301  1.00  0.00     0.165 HD
HETATM   28  C   UNL     1      41.974  -9.348  11.214  1.00  0.00     0.046 A 
BRANCH  26  29
HETATM   29  C   UNL     1      40.531 -10.021  13.241  1.00  0.00     0.309 C 
HETATM   30  O   UNL     1      39.780 -10.964  13.451  1.00  0.00    -0.258 OA
BRANCH  29  31
HETATM   31  O   UNL     1      40.424  -8.781  13.785  1.00  0.00    -0.321 OA
HETATM   32  C   UNL     1      41.280  -8.561  14.907  1.00  0.00     0.213 C 
ENDBRANCH  29  31
ENDBRANCH  26  29
ENDBRANCH  22  23
ENDBRANCH   1  22
TORSDOF 7
ENDMDL
MODEL 2
REMARK VINA RESULT:      -8.5      1.728      2.157
REMARK  7 active torsions:
REMARK  status: ('A' for Active; 'I' for Inactive)
REMARK    1  A    between atoms: O_2  and  C_3 
REMARK    2  A    between atoms: C_3  and  C_4 
REMARK    3  A    between atoms: C_8  and  C_9 
REMARK    4  A    between atoms: C_9  and  N_10 
REMARK    5  A    between atoms: C_13  and  C_14 
REMARK    6  A    between atoms: C_14  and  N_15 
REMARK       I    between atoms: N_15  and  C_16 
REMARK       I    between atoms: C_16  and  N_17 
REMARK    7  A    between atoms: N_17  and  C_18 
ROOT
HETATM    1  N   UNL     1      42.391 -10.569   7.688  1.00  0.00    -0.067 N 
HETATM    2  H   UNL     1      42.293 -11.240   8.461  1.00  0.00     0.280 HD
HETATM    3  C   UNL     1      41.803 -11.238   6.462  1.00  0.00     0.241 C 
HETATM    4  C   UNL     1      42.538 -12.558   6.228  1.00  0.00     0.029 C 
HETATM    5  C   UNL     1      44.043 -12.304   6.043  1.00  0.00     0.009 C 
HETATM    6  C   UNL     1      44.618 -11.549   7.238  1.00  0.00     0.028 C 
HETATM    7  C   UNL     1      43.855 -10.263   7.523  1.00  0.00     0.235 C 
ENDROOT
BRANCH   4   8
HETATM    8  C   UNL     1      41.976 -13.344   5.031  1.00  0.00     0.130 C 
BRANCH   8   9
HETATM    9  N   UNL     1      42.858 -14.329   4.420  1.00  0.00    -0.342 N 
HETATM   10  C   UNL     1      42.542 -15.676   4.357  1.00  0.00     0.320 C 
HETATM   11  N   UNL     1      43.621 -16.417   3.936  1.00  0.00    -0.309 N 
HETATM   12  O   UNL     1      41.415 -16.088   4.592  1.00  0.00    -0.247 OA
HETATM   13  H   UNL     1      44.435 -15.901   3.636  1.00  0.00     0.170 HD
HETATM   14  H   UNL     1      43.842 -14.159   4.588  1.00  0.00     0.164 HD
BRANCH  11  15
HETATM   15  C   UNL     1      43.699 -17.820   3.801  1.00  0.00     0.039 A 
HETATM   16  C   UNL     1      43.439 -18.505   2.614  1.00  0.00     0.071 A 
HETATM   17  C   UNL     1      43.528 -19.895   2.585  1.00  0.00     0.118 A 
HETATM   18  F   UNL     1      43.276 -20.543   1.440  1.00  0.00    -0.206 F 
HETATM   19  C   UNL     1      43.872 -20.622   3.716  1.00  0.00     0.042 A 
HETATM   20  C   UNL     1      44.130 -19.949   4.905  1.00  0.00     0.005 A 
HETATM   21  C   UNL     1      44.043 -18.554   4.948  1.00  0.00     0.030 A 
ENDBRANCH  11  15
ENDBRANCH   8   9
ENDBRANCH   4   8
BRANCH   1  22
HETATM   22  C   UNL     1      41.614  -9.348   8.120  1.00  0.00     0.274 C 
BRANCH  22  23
HETATM   23  C   UNL     1      40.766  -9.545   9.333  1.00  0.00    -0.015 A 
HETATM   24  C   UNL     1      39.384  -9.582   9.365  1.00  0.00     0.097 A 
HETATM   25  N   UNL     1      38.979  -9.750  10.664  1.00  0.00    -0.360 N 
HETATM   26  C   UNL     1      40.074  -9.832  11.492  1.00  0.00     0.108 A 
HETATM   27  H   UNL     1      38.018  -9.800  10.992  1.00  0.00     0.165 HD
HETATM   28  C   UNL     1      41.193  -9.700  10.688  1.00  0.00     0.046 A 
BRANCH  26  29
HETATM   29  C   UNL     1      39.941 -10.013  12.919  1.00  0.00     0.309 C 
HETATM   30  O   UNL     1      39.604 -11.063  13.449  1.00  0.00    -0.258 OA
BRANCH  29  31
HETATM   31  O   UNL     1      40.232  -8.853  13.565  1.00  0.00    -0.321 OA
HETATM   32  C   UNL     1      41.457  -8.886  14.298  1.00  0.00     0.213 C 
ENDBRANCH  29  31
ENDBRANCH  26  29
ENDBRANCH  22  23
ENDBRANCH   1  22
TORSDOF 7
ENDMDL
MODEL 3
REMARK VINA RESULT:      -8.3      4.791      7.154
REMARK  7 active torsions:
REMARK  status: ('A' for Active; 'I' for Inactive)
REMARK    1  A    between atoms: O_2  and  C_3 
REMARK    2  A    between atoms: C_3  and  C_4 
REMARK    3  A    between atoms: C_8  and  C_9 
REMARK    4  A    between atoms: C_9  and  N_10 
REMARK    5  A    between atoms: C_13  and  C_14 
REMARK    6  A    between atoms: C_14  and  N_15 
REMARK       I    between atoms: N_15  and  C_16 
REMARK       I    between atoms: C_16  and  N_17 
REMARK    7  A    between atoms: N_17  and  C_18 
ROOT
HETATM    1  N   UNL     1      41.895 -11.440   5.427  1.00  0.00    -0.067 N 
HETATM    2  H   UNL     1      41.664 -10.975   6.314  1.00  0.00     0.280 HD
HETATM    3  C   UNL     1      41.952 -12.925   5.724  1.00  0.00     0.241 C 
HETATM    4  C   UNL     1      42.983 -13.162   6.828  1.00  0.00     0.029 C 
HETATM    5  C   UNL     1      44.361 -12.638   6.392  1.00  0.00     0.009 C 
HETATM    6  C   UNL     1      44.285 -11.164   6.005  1.00  0.00     0.028 C 
HETATM    7  C   UNL     1      43.218 -10.904   4.952  1.00  0.00     0.235 C 
ENDROOT
BRANCH   4   8
HETATM    8  C   UNL     1      43.078 -14.641   7.243  1.00  0.00     0.130 C 
BRANCH   8   9
HETATM    9  N   UNL     1      43.847 -15.518   6.372  1.00  0.00    -0.342 N 
HETATM   10  C   UNL     1      43.306 -16.652   5.790  1.00  0.00     0.320 C 
HETATM   11  N   UNL     1      44.283 -17.418   5.199  1.00  0.00    -0.309 N 
HETATM   12  O   UNL     1      42.101 -16.862   5.777  1.00  0.00    -0.247 OA
HETATM   13  H   UNL     1      45.212 -17.023   5.169  1.00  0.00     0.170 HD
HETATM   14  H   UNL     1      44.810 -15.639   6.657  1.00  0.00     0.164 HD
BRANCH  11  15
HETATM   15  C   UNL     1      44.127 -18.665   4.557  1.00  0.00     0.039 A 
HETATM   16  C   UNL     1      43.996 -18.822   3.178  1.00  0.00     0.071 A 
HETATM   17  C   UNL     1      43.830 -20.096   2.639  1.00  0.00     0.118 A 
HETATM   18  F   UNL     1      43.706 -20.235   1.312  1.00  0.00    -0.206 F 
HETATM   19  C   UNL     1      43.790 -21.224   3.447  1.00  0.00     0.042 A 
HETATM   20  C   UNL     1      43.915 -21.078   4.824  1.00  0.00     0.005 A 
HETATM   21  C   UNL     1      44.082 -19.804   5.377  1.00  0.00     0.030 A 
ENDBRANCH  11  15
ENDBRANCH   8   9
ENDBRANCH   4   8
BRANCH   1  22
HETATM   22  C   UNL     1      40.775 -11.074   4.483  1.00  0.00     0.274 C 
BRANCH  22  23
HETATM   23  C   UNL     1      40.343 -12.175   3.571  1.00  0.00    -0.015 A 
HETATM   24  C   UNL     1      39.107 -12.794   3.569  1.00  0.00     0.097 A 
HETATM   25  N   UNL     1      39.106 -13.772   2.608  1.00  0.00    -0.360 N 
HETATM   26  C   UNL     1      40.323 -13.804   1.969  1.00  0.00     0.108 A 
HETATM   27  H   UNL     1      38.336 -14.398   2.389  1.00  0.00     0.165 HD
HETATM   28  C   UNL     1      41.108 -12.827   2.555  1.00  0.00     0.046 A 
BRANCH  26  29
HETATM   29  C   UNL     1      40.603 -14.741   0.905  1.00  0.00     0.309 C 
HETATM   30  O   UNL     1      39.937 -14.837  -0.117  1.00  0.00    -0.258 OA
BRANCH  29  31
HETATM   31  O   UNL     1      41.692 -15.490   1.218  1.00  0.00    -0.321 OA
HETATM   32  C   UNL     1      41.467 -16.434   2.267  1.00  0.00     0.213 C 
ENDBRANCH  29  31
ENDBRANCH  26  29
ENDBRANCH  22  23
ENDBRANCH   1  22
TORSDOF 7
ENDMDL
MODEL 4
REMARK VINA RESULT:      -8.3      2.736      4.520
REMARK  7 active torsions:
REMARK  status: ('A' for Active; 'I' for Inactive)
REMARK    1  A    between atoms: O_2  and  C_3 
REMARK    2  A    between atoms: C_3  and  C_4 
REMARK    3  A    between atoms: C_8  and  C_9 
REMARK    4  A    between atoms: C_9  and  N_10 
REMARK    5  A    between atoms: C_13  and  C_14 
REMARK    6  A    between atoms: C_14  and  N_15 
REMARK       I    between atoms: N_15  and  C_16 
REMARK       I    between atoms: C_16  and  N_17 
REMARK    7  A    between atoms: N_17  and  C_18 
ROOT
HETATM    1  N   UNL     1      42.547 -12.892   5.311  1.00  0.00    -0.067 N 
HETATM    2  H   UNL     1      42.614 -11.897   5.061  1.00  0.00     0.280 HD
HETATM    3  C   UNL     1      42.755 -13.671   4.027  1.00  0.00     0.241 C 
HETATM    4  C   UNL     1      41.707 -13.221   3.009  1.00  0.00     0.029 C 
HETATM    5  C   UNL     1      40.293 -13.451   3.564  1.00  0.00     0.009 C 
HETATM    6  C   UNL     1      40.111 -12.741   4.903  1.00  0.00     0.028 C 
HETATM    7  C   UNL     1      41.186 -13.131   5.906  1.00  0.00     0.235 C 
ENDROOT
BRANCH   4   8
HETATM    8  C   UNL     1      41.869 -13.917   1.646  1.00  0.00     0.130 C 
BRANCH   8   9
HETATM    9  N   UNL     1      42.774 -15.056   1.595  1.00  0.00    -0.342 N 
HETATM   10  C   UNL     1      42.481 -16.269   2.195  1.00  0.00     0.320 C 
HETATM   11  N   UNL     1      43.577 -17.100   2.191  1.00  0.00    -0.309 N 
HETATM   12  O   UNL     1      41.358 -16.538   2.600  1.00  0.00    -0.247 OA
HETATM   13  H   UNL     1      44.386 -16.779   1.679  1.00  0.00     0.170 HD
HETATM   14  H   UNL     1      43.752 -14.807   1.660  1.00  0.00     0.164 HD
BRANCH  11  15
HETATM   15  C   UNL     1      43.681 -18.388   2.757  1.00  0.00     0.039 A 
HETATM   16  C   UNL     1      43.942 -18.629   4.106  1.00  0.00     0.071 A 
HETATM   17  C   UNL     1      44.042 -19.940   4.568  1.00  0.00     0.118 A 
HETATM   18  F   UNL     1      44.293 -20.159   5.866  1.00  0.00    -0.206 F 
HETATM   19  C   UNL     1      43.887 -21.022   3.713  1.00  0.00     0.042 A 
HETATM   20  C   UNL     1      43.630 -20.793   2.366  1.00  0.00     0.005 A 
HETATM   21  C   UNL     1      43.528 -19.482   1.890  1.00  0.00     0.030 A 
ENDBRANCH  11  15
ENDBRANCH   8   9
ENDBRANCH   4   8
BRANCH   1  22
HETATM   22  C   UNL     1      43.644 -13.123   6.322  1.00  0.00     0.274 C 
BRANCH  22  23
HETATM   23  C   UNL     1      44.314 -11.882   6.810  1.00  0.00    -0.015 A 
HETATM   24  C   UNL     1      45.622 -11.509   6.562  1.00  0.00     0.097 A 
HETATM   25  N   UNL     1      45.872 -10.324   7.204  1.00  0.00    -0.360 N 
HETATM   26  C   UNL     1      44.745  -9.903   7.870  1.00  0.00     0.108 A 
HETATM   27  H   UNL     1      46.753  -9.818   7.211  1.00  0.00     0.165 HD
HETATM   28  C   UNL     1      43.769 -10.858   7.645  1.00  0.00     0.046 A 
BRANCH  26  29
HETATM   29  C   UNL     1      44.721  -8.677   8.634  1.00  0.00     0.309 C 
HETATM   30  O   UNL     1      45.427  -7.707   8.396  1.00  0.00    -0.258 OA
BRANCH  29  31
HETATM   31  O   UNL     1      43.817  -8.775   9.644  1.00  0.00    -0.321 OA
HETATM   32  C   UNL     1      44.358  -9.292  10.861  1.00  0.00     0.213 C 
ENDBRANCH  29  31
ENDBRANCH  26  29
ENDBRANCH  22  23
ENDBRANCH   1  22
TORSDOF 7
ENDMDL
MODEL 5
REMARK VINA RESULT:      -8.1      5.045      8.879
REMARK  7 active torsions:
REMARK  status: ('A' for Active; 'I' for Inactive)
REMARK    1  A    between atoms: O_2  and  C_3 
REMARK    2  A    between atoms: C_3  and  C_4 
REMARK    3  A    between atoms: C_8  and  C_9 
REMARK    4  A    between atoms: C_9  and  N_10 
REMARK    5  A    between atoms: C_13  and  C_14 
REMARK    6  A    between atoms: C_14  and  N_15 
REMARK       I    between atoms: N_15  and  C_16 
REMARK       I    between atoms: C_16  and  N_17 
REMARK    7  A    between atoms: N_17  and  C_18 
ROOT
HETATM    1  N   UNL     1      41.499 -11.354   3.215  1.00  0.00    -0.067 N 
HETATM    2  H   UNL     1      40.498 -11.587   3.238  1.00  0.00     0.280 HD
HETATM    3  C   UNL     1      42.225 -12.517   3.862  1.00  0.00     0.241 C 
HETATM    4  C   UNL     1      41.672 -12.711   5.274  1.00  0.00     0.029 C 
HETATM    5  C   UNL     1      41.853 -11.426   6.098  1.00  0.00     0.009 C 
HETATM    6  C   UNL     1      41.200 -10.236   5.402  1.00  0.00     0.028 C 
HETATM    7  C   UNL     1      41.695 -10.069   3.972  1.00  0.00     0.235 C 
ENDROOT
BRANCH   4   8
HETATM    8  C   UNL     1      42.308 -13.909   6.000  1.00  0.00     0.130 C 
BRANCH   8   9
HETATM    9  N   UNL     1      43.108 -14.816   5.191  1.00  0.00    -0.342 N 
HETATM   10  C   UNL     1      42.756 -16.139   4.983  1.00  0.00     0.320 C 
HETATM   11  N   UNL     1      43.775 -16.833   4.374  1.00  0.00    -0.309 N 
HETATM   12  O   UNL     1      41.644 -16.565   5.265  1.00  0.00    -0.247 OA
HETATM   13  H   UNL     1      44.572 -16.292   4.070  1.00  0.00     0.170 HD
HETATM   14  H   UNL     1      44.107 -14.682   5.288  1.00  0.00     0.164 HD
BRANCH  11  15
HETATM   15  C   UNL     1      43.808 -18.207   4.053  1.00  0.00     0.039 A 
HETATM   16  C   UNL     1      43.583 -18.715   2.774  1.00  0.00     0.071 A 
HETATM   17  C   UNL     1      43.620 -20.091   2.560  1.00  0.00     0.118 A 
HETATM   18  F   UNL     1      43.403 -20.568   1.327  1.00  0.00    -0.206 F 
HETATM   19  C   UNL     1      43.879 -20.978   3.596  1.00  0.00     0.042 A 
HETATM   20  C   UNL     1      44.101 -20.482   4.876  1.00  0.00     0.005 A 
HETATM   21  C   UNL     1      44.064 -19.102   5.104  1.00  0.00     0.030 A 
ENDBRANCH  11  15
ENDBRANCH   8   9
ENDBRANCH   4   8
BRANCH   1  22
HETATM   22  C   UNL     1      41.837 -11.194   1.752  1.00  0.00     0.274 C 
BRANCH  22  23
HETATM   23  C   UNL     1      40.880 -11.855   0.815  1.00  0.00    -0.015 A 
HETATM   24  C   UNL     1      39.564 -12.179   1.087  1.00  0.00     0.097 A 
HETATM   25  N   UNL     1      39.027 -12.799  -0.012  1.00  0.00    -0.360 N 
HETATM   26  C   UNL     1      39.968 -12.883  -1.011  1.00  0.00     0.108 A 
HETATM   27  H   UNL     1      38.080 -13.159  -0.095  1.00  0.00     0.165 HD
HETATM   28  C   UNL     1      41.127 -12.311  -0.516  1.00  0.00     0.046 A 
BRANCH  26  29
HETATM   29  C   UNL     1      39.674 -13.491  -2.288  1.00  0.00     0.309 C 
HETATM   30  O   UNL     1      40.164 -13.127  -3.349  1.00  0.00    -0.258 OA
BRANCH  29  31
HETATM   31  O   UNL     1      38.778 -14.500  -2.129  1.00  0.00    -0.321 OA
HETATM   32  C   UNL     1      38.199 -14.962  -3.351  1.00  0.00     0.213 C 
ENDBRANCH  29  31
ENDBRANCH  26  29
ENDBRANCH  22  23
ENDBRANCH   1  22
TORSDOF 7
ENDMDL
MODEL 6
REMARK VINA RESULT:      -8.0      3.811     10.607
REMARK  7 active torsions:
REMARK  status: ('A' for Active; 'I' for Inactive)
REMARK    1  A    between atoms: O_2  and  C_3 
REMARK    2  A    between atoms: C_3  and  C_4 
REMARK    3  A    between atoms: C_8  and  C_9 
REMARK    4  A    between atoms: C_9  and  N_10 
REMARK    5  A    between atoms: C_13  and  C_14 
REMARK    6  A    between atoms: C_14  and  N_15 
REMARK       I    between atoms: N_15  and  C_16 
REMARK       I    between atoms: C_16  and  N_17 
REMARK    7  A    between atoms: N_17  and  C_18 
ROOT
HETATM    1  N   UNL     1      41.835 -13.235   4.725  1.00  0.00    -0.067 N 
HETATM    2  H   UNL     1      41.193 -12.438   4.632  1.00  0.00     0.280 HD
HETATM    3  C   UNL     1      42.489 -13.101   6.086  1.00  0.00     0.241 C 
HETATM    4  C   UNL     1      43.184 -11.740   6.161  1.00  0.00     0.029 C 
HETATM    5  C   UNL     1      44.225 -11.612   5.038  1.00  0.00     0.009 C 
HETATM    6  C   UNL     1      43.585 -11.837   3.672  1.00  0.00     0.028 C 
HETATM    7  C   UNL     1      42.835 -13.160   3.604  1.00  0.00     0.235 C 
ENDROOT
BRANCH   4   8
HETATM    8  C   UNL     1      43.835 -11.483   7.530  1.00  0.00     0.130 C 
BRANCH   8   9
HETATM    9  N   UNL     1      43.274 -10.405   8.332  1.00  0.00    -0.342 N 
HETATM   10  C   UNL     1      43.418 -10.345   9.708  1.00  0.00     0.320 C 
HETATM   11  N   UNL     1      42.620  -9.362  10.246  1.00  0.00    -0.309 N 
HETATM   12  O   UNL     1      44.215 -11.053  10.307  1.00  0.00    -0.247 OA
HETATM   13  H   UNL     1      42.135  -8.765   9.592  1.00  0.00     0.170 HD
HETATM   14  H   UNL     1      42.367 -10.085   8.013  1.00  0.00     0.164 HD
BRANCH  11  15
HETATM   15  C   UNL     1      42.456  -9.040  11.610  1.00  0.00     0.039 A 
HETATM   16  C   UNL     1      43.263  -8.135  12.299  1.00  0.00     0.071 A 
HETATM   17  C   UNL     1      43.032  -7.894  13.652  1.00  0.00     0.118 A 
HETATM   18  F   UNL     1      43.812  -7.023  14.305  1.00  0.00    -0.206 F 
HETATM   19  C   UNL     1      42.010  -8.537  14.337  1.00  0.00     0.042 A 
HETATM   20  C   UNL     1      41.203  -9.444  13.660  1.00  0.00     0.005 A 
HETATM   21  C   UNL     1      41.425  -9.695  12.302  1.00  0.00     0.030 A 
ENDBRANCH  11  15
ENDBRANCH   8   9
ENDBRANCH   4   8
BRANCH   1  22
HETATM   22  C   UNL     1      40.964 -14.463   4.612  1.00  0.00     0.274 C 
BRANCH  22  23
HETATM   23  C   UNL     1      41.637 -15.652   4.009  1.00  0.00    -0.015 A 
HETATM   24  C   UNL     1      41.346 -16.219   2.783  1.00  0.00     0.097 A 
HETATM   25  N   UNL     1      42.157 -17.309   2.598  1.00  0.00    -0.360 N 
HETATM   26  C   UNL     1      42.986 -17.467   3.684  1.00  0.00     0.108 A 
HETATM   27  H   UNL     1      42.156 -17.929   1.793  1.00  0.00     0.165 HD
HETATM   28  C   UNL     1      42.675 -16.454   4.574  1.00  0.00     0.046 A 
BRANCH  26  29
HETATM   29  C   UNL     1      43.951 -18.540   3.759  1.00  0.00     0.309 C 
HETATM   30  O   UNL     1      44.539 -19.002   2.790  1.00  0.00    -0.258 OA
BRANCH  29  31
HETATM   31  O   UNL     1      44.089 -18.954   5.046  1.00  0.00    -0.321 OA
HETATM   32  C   UNL     1      44.212 -20.370   5.192  1.00  0.00     0.213 C 
ENDBRANCH  29  31
ENDBRANCH  26  29
ENDBRANCH  22  23
ENDBRANCH   1  22
TORSDOF 7
ENDMDL
MODEL 7
REMARK VINA RESULT:      -7.9      4.633      6.227
REMARK  7 active torsions:
REMARK  status: ('A' for Active; 'I' for Inactive)
REMARK    1  A    between atoms: O_2  and  C_3 
REMARK    2  A    between atoms: C_3  and  C_4 
REMARK    3  A    between atoms: C_8  and  C_9 
REMARK    4  A    between atoms: C_9  and  N_10 
REMARK    5  A    between atoms: C_13  and  C_14 
REMARK    6  A    between atoms: C_14  and  N_15 
REMARK       I    between atoms: N_15  and  C_16 
REMARK       I    between atoms: C_16  and  N_17 
REMARK    7  A    between atoms: N_17  and  C_18 
ROOT
HETATM    1  N   UNL     1      42.929 -13.664   5.900  1.00  0.00    -0.067 N 
HETATM    2  H   UNL     1      42.157 -13.197   6.393  1.00  0.00     0.280 HD
HETATM    3  C   UNL     1      42.303 -14.426   4.749  1.00  0.00     0.241 C 
HETATM    4  C   UNL     1      41.260 -15.391   5.313  1.00  0.00     0.029 C 
HETATM    5  C   UNL     1      41.914 -16.355   6.315  1.00  0.00     0.009 C 
HETATM    6  C   UNL     1      42.623 -15.587   7.427  1.00  0.00     0.028 C 
HETATM    7  C   UNL     1      43.619 -14.576   6.877  1.00  0.00     0.235 C 
ENDROOT
BRANCH   4   8
HETATM    8  C   UNL     1      40.525 -16.177   4.214  1.00  0.00     0.130 C 
BRANCH   8   9
HETATM    9  N   UNL     1      39.862 -15.395   3.180  1.00  0.00    -0.342 N 
HETATM   10  C   UNL     1      40.379 -15.253   1.904  1.00  0.00     0.320 C 
HETATM   11  N   UNL     1      39.688 -14.300   1.193  1.00  0.00    -0.309 N 
HETATM   12  O   UNL     1      41.291 -15.958   1.493  1.00  0.00    -0.247 OA
HETATM   13  H   UNL     1      38.863 -13.919   1.632  1.00  0.00     0.170 HD
HETATM   14  H   UNL     1      39.417 -14.553   3.524  1.00  0.00     0.164 HD
BRANCH  11  15
HETATM   15  C   UNL     1      39.955 -13.843  -0.115  1.00  0.00     0.039 A 
HETATM   16  C   UNL     1      40.659 -12.674  -0.404  1.00  0.00     0.071 A 
HETATM   17  C   UNL     1      40.858 -12.296  -1.731  1.00  0.00     0.118 A 
HETATM   18  F   UNL     1      41.535 -11.172  -1.997  1.00  0.00    -0.206 F 
HETATM   19  C   UNL     1      40.370 -13.061  -2.781  1.00  0.00     0.042 A 
HETATM   20  C   UNL     1      39.665 -14.227  -2.504  1.00  0.00     0.005 A 
HETATM   21  C   UNL     1      39.457 -14.615  -1.176  1.00  0.00     0.030 A 
ENDBRANCH  11  15
ENDBRANCH   8   9
ENDBRANCH   4   8
BRANCH   1  22
HETATM   22  C   UNL     1      43.839 -12.551   5.441  1.00  0.00     0.274 C 
BRANCH  22  23
HETATM   23  C   UNL     1      44.452 -11.751   6.543  1.00  0.00    -0.015 A 
HETATM   24  C   UNL     1      45.777 -11.367   6.631  1.00  0.00     0.097 A 
HETATM   25  N   UNL     1      45.957 -10.672   7.800  1.00  0.00    -0.360 N 
HETATM   26  C   UNL     1      44.767 -10.586   8.483  1.00  0.00     0.108 A 
HETATM   27  H   UNL     1      46.832 -10.280   8.137  1.00  0.00     0.165 HD
HETATM   28  C   UNL     1      43.822 -11.255   7.725  1.00  0.00     0.046 A 
BRANCH  26  29
HETATM   29  C   UNL     1      44.662  -9.904   9.752  1.00  0.00     0.309 C 
HETATM   30  O   UNL     1      44.436  -8.707   9.871  1.00  0.00    -0.258 OA
BRANCH  29  31
HETATM   31  O   UNL     1      44.861 -10.781  10.771  1.00  0.00    -0.321 OA
HETATM   32  C   UNL     1      43.728 -10.949  11.625  1.00  0.00     0.213 C 
ENDBRANCH  29  31
ENDBRANCH  26  29
ENDBRANCH  22  23
ENDBRANCH   1  22
TORSDOF 7
ENDMDL
MODEL 8
REMARK VINA RESULT:      -7.8      4.760      7.555
REMARK  7 active torsions:
REMARK  status: ('A' for Active; 'I' for Inactive)
REMARK    1  A    between atoms: O_2  and  C_3 
REMARK    2  A    between atoms: C_3  and  C_4 
REMARK    3  A    between atoms: C_8  and  C_9 
REMARK    4  A    between atoms: C_9  and  N_10 
REMARK    5  A    between atoms: C_13  and  C_14 
REMARK    6  A    between atoms: C_14  and  N_15 
REMARK       I    between atoms: N_15  and  C_16 
REMARK       I    between atoms: C_16  and  N_17 
REMARK    7  A    between atoms: N_17  and  C_18 
ROOT
HETATM    1  N   UNL     1      42.292 -16.767   5.662  1.00  0.00    -0.067 N 
HETATM    2  H   UNL     1      41.517 -17.428   5.525  1.00  0.00     0.280 HD
HETATM    3  C   UNL     1      42.614 -16.195   4.296  1.00  0.00     0.241 C 
HETATM    4  C   UNL     1      42.951 -17.349   3.352  1.00  0.00     0.029 C 
HETATM    5  C   UNL     1      44.138 -18.156   3.900  1.00  0.00     0.009 C 
HETATM    6  C   UNL     1      43.850 -18.656   5.313  1.00  0.00     0.028 C 
HETATM    7  C   UNL     1      43.451 -17.525   6.249  1.00  0.00     0.235 C 
ENDROOT
BRANCH   4   8
HETATM    8  C   UNL     1      43.240 -16.875   1.917  1.00  0.00     0.130 C 
BRANCH   8   9
HETATM    9  N   UNL     1      42.816 -15.525   1.574  1.00  0.00    -0.342 N 
HETATM   10  C   UNL     1      41.519 -15.226   1.191  1.00  0.00     0.320 C 
HETATM   11  N   UNL     1      41.430 -13.939   0.714  1.00  0.00    -0.309 N 
HETATM   12  O   UNL     1      40.600 -16.018   1.341  1.00  0.00    -0.247 OA
HETATM   13  H   UNL     1      42.257 -13.366   0.801  1.00  0.00     0.170 HD
HETATM   14  H   UNL     1      43.513 -14.991   1.070  1.00  0.00     0.164 HD
BRANCH  11  15
HETATM   15  C   UNL     1      40.291 -13.296   0.185  1.00  0.00     0.039 A 
HETATM   16  C   UNL     1      39.535 -12.352   0.878  1.00  0.00     0.071 A 
HETATM   17  C   UNL     1      38.415 -11.784   0.275  1.00  0.00     0.118 A 
HETATM   18  F   UNL     1      37.696 -10.877   0.950  1.00  0.00    -0.206 F 
HETATM   19  C   UNL     1      38.029 -12.136  -1.011  1.00  0.00     0.042 A 
HETATM   20  C   UNL     1      38.774 -13.079  -1.710  1.00  0.00     0.005 A 
HETATM   21  C   UNL     1      39.899 -13.658  -1.114  1.00  0.00     0.030 A 
ENDBRANCH  11  15
ENDBRANCH   8   9
ENDBRANCH   4   8
BRANCH   1  22
HETATM   22  C   UNL     1      41.764 -15.728   6.623  1.00  0.00     0.274 C 
BRANCH  22  23
HETATM   23  C   UNL     1      42.346 -14.364   6.449  1.00  0.00    -0.015 A 
HETATM   24  C   UNL     1      41.700 -13.263   5.919  1.00  0.00     0.097 A 
HETATM   25  N   UNL     1      42.574 -12.207   5.899  1.00  0.00    -0.360 N 
HETATM   26  C   UNL     1      43.788 -12.592   6.416  1.00  0.00     0.108 A 
HETATM   27  H   UNL     1      42.379 -11.272   5.550  1.00  0.00     0.165 HD
HETATM   28  C   UNL     1      43.671 -13.928   6.757  1.00  0.00     0.046 A 
BRANCH  26  29
HETATM   29  C   UNL     1      44.900 -11.675   6.519  1.00  0.00     0.309 C 
HETATM   30  O   UNL     1      45.468 -11.176   5.557  1.00  0.00    -0.258 OA
BRANCH  29  31
HETATM   31  O   UNL     1      45.217 -11.470   7.824  1.00  0.00    -0.321 OA
HETATM   32  C   UNL     1      45.967 -10.278   8.061  1.00  0.00     0.213 C 
ENDBRANCH  29  31
ENDBRANCH  26  29
ENDBRANCH  22  23
ENDBRANCH   1  22
TORSDOF 7
ENDMDL
MODEL 9
REMARK VINA RESULT:      -7.8      3.619     10.239
REMARK  7 active torsions:
REMARK  status: ('A' for Active; 'I' for Inactive)
REMARK    1  A    between atoms: O_2  and  C_3 
REMARK    2  A    between atoms: C_3  and  C_4 
REMARK    3  A    between atoms: C_8  and  C_9 
REMARK    4  A    between atoms: C_9  and  N_10 
REMARK    5  A    between atoms: C_13  and  C_14 
REMARK    6  A    between atoms: C_14  and  N_15 
REMARK       I    between atoms: N_15  and  C_16 
REMARK       I    between atoms: C_16  and  N_17 
REMARK    7  A    between atoms: N_17  and  C_18 
ROOT
HETATM    1  N   UNL     1      41.780 -13.285   4.811  1.00  0.00    -0.067 N 
HETATM    2  H   UNL     1      41.081 -12.537   4.895  1.00  0.00     0.280 HD
HETATM    3  C   UNL     1      42.783 -13.061   5.924  1.00  0.00     0.241 C 
HETATM    4  C   UNL     1      43.368 -11.656   5.778  1.00  0.00     0.029 C 
HETATM    5  C   UNL     1      44.033 -11.497   4.402  1.00  0.00     0.009 C 
HETATM    6  C   UNL     1      43.048 -11.810   3.281  1.00  0.00     0.028 C 
HETATM    7  C   UNL     1      42.409 -13.182   3.448  1.00  0.00     0.235 C 
ENDROOT
BRANCH   4   8
HETATM    8  C   UNL     1      44.363 -11.309   6.899  1.00  0.00     0.130 C 
BRANCH   8   9
HETATM    9  N   UNL     1      43.893 -11.473   8.267  1.00  0.00    -0.342 N 
HETATM   10  C   UNL     1      43.500 -10.404   9.055  1.00  0.00     0.320 C 
HETATM   11  N   UNL     1      43.310 -10.795  10.360  1.00  0.00    -0.309 N 
HETATM   12  O   UNL     1      43.300  -9.293   8.585  1.00  0.00    -0.247 OA
HETATM   13  H   UNL     1      43.372 -11.785  10.549  1.00  0.00     0.170 HD
HETATM   14  H   UNL     1      44.382 -12.191   8.787  1.00  0.00     0.164 HD
BRANCH  11  15
HETATM   15  C   UNL     1      42.964  -9.981  11.459  1.00  0.00     0.039 A 
HETATM   16  C   UNL     1      41.867 -10.214  12.287  1.00  0.00     0.071 A 
HETATM   17  C   UNL     1      41.596  -9.342  13.340  1.00  0.00     0.118 A 
HETATM   18  F   UNL     1      40.540  -9.576  14.130  1.00  0.00    -0.206 F 
HETATM   19  C   UNL     1      42.399  -8.237  13.588  1.00  0.00     0.042 A 
HETATM   20  C   UNL     1      43.493  -7.993  12.765  1.00  0.00     0.005 A 
HETATM   21  C   UNL     1      43.774  -8.860  11.705  1.00  0.00     0.030 A 
ENDBRANCH  11  15
ENDBRANCH   8   9
ENDBRANCH   4   8
BRANCH   1  22
HETATM   22  C   UNL     1      41.006 -14.572   4.969  1.00  0.00     0.274 C 
BRANCH  22  23
HETATM   23  C   UNL     1      41.850 -15.796   5.106  1.00  0.00    -0.015 A 
HETATM   24  C   UNL     1      42.208 -16.411   6.292  1.00  0.00     0.097 A 
HETATM   25  N   UNL     1      43.011 -17.485   6.005  1.00  0.00    -0.360 N 
HETATM   26  C   UNL     1      43.184 -17.593   4.645  1.00  0.00     0.108 A 
HETATM   27  H   UNL     1      43.435 -18.115   6.680  1.00  0.00     0.165 HD
HETATM   28  C   UNL     1      42.479 -16.551   4.069  1.00  0.00     0.046 A 
BRANCH  26  29
HETATM   29  C   UNL     1      43.986 -18.642   4.058  1.00  0.00     0.309 C 
HETATM   30  O   UNL     1      44.680 -19.416   4.702  1.00  0.00    -0.258 OA
BRANCH  29  31
HETATM   31  O   UNL     1      43.859 -18.623   2.705  1.00  0.00    -0.321 OA
HETATM   32  C   UNL     1      43.298 -19.817   2.157  1.00  0.00     0.213 C 
ENDBRANCH  29  31
ENDBRANCH  26  29
ENDBRANCH  22  23
ENDBRANCH   1  22
TORSDOF 7
ENDMDL
MODEL 10
REMARK VINA RESULT:      -7.7      2.989      3.451
REMARK  7 active torsions:
REMARK  status: ('A' for Active; 'I' for Inactive)
REMARK    1  A    between atoms: O_2  and  C_3 
REMARK    2  A    between atoms: C_3  and  C_4 
REMARK    3  A    between atoms: C_8  and  C_9 
REMARK    4  A    between atoms: C_9  and  N_10 
REMARK    5  A    between atoms: C_13  and  C_14 
REMARK    6  A    between atoms: C_14  and  N_15 
REMARK       I    between atoms: N_15  and  C_16 
REMARK       I    between atoms: C_16  and  N_17 
REMARK    7  A    between atoms: N_17  and  C_18 
ROOT
HETATM    1  N   UNL     1      44.759 -10.275   8.829  1.00  0.00    -0.067 N 
HETATM    2  H   UNL     1      45.236 -10.978   9.407  1.00  0.00     0.280 HD
HETATM    3  C   UNL     1      43.628 -10.997   8.123  1.00  0.00     0.241 C 
HETATM    4  C   UNL     1      44.217 -12.156   7.319  1.00  0.00     0.029 C 
HETATM    5  C   UNL     1      45.247 -11.633   6.306  1.00  0.00     0.009 C 
HETATM    6  C   UNL     1      46.338 -10.828   7.006  1.00  0.00     0.028 C 
HETATM    7  C   UNL     1      45.763  -9.709   7.862  1.00  0.00     0.235 C 
ENDROOT
BRANCH   4   8
HETATM    8  C   UNL     1      43.138 -12.990   6.606  1.00  0.00     0.130 C 
BRANCH   8   9
HETATM    9  N   UNL     1      43.197 -13.032   5.152  1.00  0.00    -0.342 N 
HETATM   10  C   UNL     1      42.077 -13.247   4.366  1.00  0.00     0.320 C 
HETATM   11  N   UNL     1      42.428 -13.458   3.053  1.00  0.00    -0.309 N 
HETATM   12  O   UNL     1      40.944 -13.182   4.821  1.00  0.00    -0.247 OA
HETATM   13  H   UNL     1      43.401 -13.327   2.819  1.00  0.00     0.170 HD
HETATM   14  H   UNL     1      44.030 -13.475   4.787  1.00  0.00     0.164 HD
BRANCH  11  15
HETATM   15  C   UNL     1      41.572 -13.763   1.973  1.00  0.00     0.039 A 
HETATM   16  C   UNL     1      40.909 -14.981   1.824  1.00  0.00     0.071 A 
HETATM   17  C   UNL     1      40.096 -15.194   0.712  1.00  0.00     0.118 A 
HETATM   18  F   UNL     1      39.464 -16.367   0.579  1.00  0.00    -0.206 F 
HETATM   19  C   UNL     1      39.927 -14.216  -0.258  1.00  0.00     0.042 A 
HETATM   20  C   UNL     1      40.587 -13.000  -0.121  1.00  0.00     0.005 A 
HETATM   21  C   UNL     1      41.407 -12.775   0.989  1.00  0.00     0.030 A 
ENDBRANCH  11  15
ENDBRANCH   8   9
ENDBRANCH   4   8
BRANCH   1  22
HETATM   22  C   UNL     1      44.270  -9.227   9.799  1.00  0.00     0.274 C 
BRANCH  22  23
HETATM   23  C   UNL     1      43.436  -9.755  10.920  1.00  0.00    -0.015 A 
HETATM   24  C   UNL     1      43.711 -10.871  11.686  1.00  0.00     0.097 A 
HETATM   25  N   UNL     1      42.696 -11.046  12.591  1.00  0.00    -0.360 N 
HETATM   26  C   UNL     1      41.755 -10.056  12.438  1.00  0.00     0.108 A 
HETATM   27  H   UNL     1      42.623 -11.794  13.275  1.00  0.00     0.165 HD
HETATM   28  C   UNL     1      42.190  -9.248  11.402  1.00  0.00     0.046 A 
BRANCH  26  29
HETATM   29  C   UNL     1      40.571  -9.992  13.265  1.00  0.00     0.309 C 
HETATM   30  O   UNL     1      39.813 -10.934  13.451  1.00  0.00    -0.258 OA
BRANCH  29  31
HETATM   31  O   UNL     1      40.430  -8.742  13.781  1.00  0.00    -0.321 OA
HETATM   32  C   UNL     1      41.236  -8.495  14.934  1.00  0.00     0.213 C 
ENDBRANCH  29  31
ENDBRANCH  26  29
ENDBRANCH  22  23
ENDBRANCH   1  22
TORSDOF 7
ENDMDL
