MODEL 1
REMARK VINA RESULT:      -8.0      0.000      0.000
REMARK  4 active torsions:
REMARK  status: ('A' for Active; 'I' for Inactive)
REMARK    1  A    between atoms: C_4  and  C_5 
REMARK       I    between atoms: C_5  and  N_6 
REMARK    2  A    between atoms: N_6  and  C_7 
REMARK    3  A    between atoms: C_7  and  N_8 
REMARK    4  A    between atoms: N_8  and  C_9 
ROOT
HETATM    1  C   UNL     1      43.818 -16.872   5.145  1.00  0.00     0.257 C 
HETATM    2  N   UNL     1      42.871 -15.981   4.651  1.00  0.00    -0.299 N 
HETATM    3  O   UNL     1      44.687 -16.466   5.912  1.00  0.00    -0.267 OA
HETATM    4  H   UNL     1      43.188 -15.048   4.882  1.00  0.00     0.171 HD
ENDROOT
BRANCH   2   5
HETATM    5  C   UNL     1      41.459 -16.035   4.714  1.00  0.00     0.180 C 
HETATM    6  S   UNL     1      40.581 -15.980   6.133  1.00  0.00    -0.040 SA
BRANCH   5   7
HETATM    7  N   UNL     1      40.971 -16.135   3.417  1.00  0.00    -0.318 N 
HETATM    8  H   UNL     1      40.486 -16.992   3.184  1.00  0.00     0.170 HD
BRANCH   7   9
HETATM    9  C   UNL     1      40.898 -15.267   2.322  1.00  0.00     0.129 A 
HETATM   10  N   UNL     1      41.600 -14.132   2.541  1.00  0.00    -0.243 NA
HETATM   11  C   UNL     1      41.594 -13.191   1.572  1.00  0.00     0.119 A 
HETATM   12  C   UNL     1      40.913 -13.321   0.377  1.00  0.00     0.026 A 
HETATM   13  C   UNL     1      40.189 -14.490   0.157  1.00  0.00    -0.057 A 
HETATM   14  C   UNL     1      39.429 -14.676  -1.122  1.00  0.00     0.048 C 
HETATM   15  C   UNL     1      40.176 -15.473   1.156  1.00  0.00     0.057 A 
ENDBRANCH   7   9
ENDBRANCH   5   7
ENDBRANCH   2   5
BRANCH   1  16
HETATM   16  C   UNL     1      43.796 -18.294   4.714  1.00  0.00     0.032 A 
HETATM   17  C   UNL     1      43.738 -18.658   3.362  1.00  0.00     0.023 A 
HETATM   18  C   UNL     1      43.735 -20.011   2.993  1.00  0.00    -0.061 A 
HETATM   19  C   UNL     1      43.690 -20.406   1.547  1.00  0.00     0.048 C 
HETATM   20  C   UNL     1      43.833 -20.991   3.990  1.00  0.00     0.007 A 
HETATM   21  C   UNL     1      43.913 -20.630   5.335  1.00  0.00     0.002 A 
HETATM   22  C   UNL     1      43.898 -19.284   5.698  1.00  0.00     0.017 A 
ENDBRANCH   1  16
TORSDOF 4
ENDMDL
MODEL 2
REMARK VINA RESULT:      -7.6      3.026      5.288
REMARK  4 active torsions:
REMARK  status: ('A' for Active; 'I' for Inactive)
REMARK    1  A    between atoms: C_4  and  C_5 
REMARK       I    between atoms: C_5  and  N_6 
REMARK    2  A    between atoms: N_6  and  C_7 
REMARK    3  A    between atoms: C_7  and  N_8 
REMARK    4  A    between atoms: N_8  and  C_9 
ROOT
HETATM    1  C   UNL     1      39.869 -14.361   1.418  1.00  0.00     0.257 C 
HETATM    2  N   UNL     1      39.066 -13.899   2.455  1.00  0.00    -0.299 N 
HETATM    3  O   UNL     1      39.469 -14.271   0.259  1.00  0.00    -0.267 OA
HETATM    4  H   UNL     1      38.148 -13.719   2.068  1.00  0.00     0.171 HD
ENDROOT
BRANCH   2   5
HETATM    5  C   UNL     1      39.352 -12.952   3.467  1.00  0.00     0.180 C 
HETATM    6  S   UNL     1      39.231 -11.300   3.265  1.00  0.00    -0.040 SA
BRANCH   5   7
HETATM    7  N   UNL     1      39.731 -13.642   4.611  1.00  0.00    -0.318 N 
HETATM    8  H   UNL     1      38.989 -13.887   5.255  1.00  0.00     0.170 HD
BRANCH   7   9
HETATM    9  C   UNL     1      40.929 -14.191   5.080  1.00  0.00     0.129 A 
HETATM   10  N   UNL     1      41.901 -13.255   5.172  1.00  0.00    -0.243 NA
HETATM   11  C   UNL     1      43.123 -13.654   5.586  1.00  0.00     0.119 A 
HETATM   12  C   UNL     1      43.435 -14.958   5.921  1.00  0.00     0.026 A 
HETATM   13  C   UNL     1      42.432 -15.919   5.821  1.00  0.00    -0.057 A 
HETATM   14  C   UNL     1      42.722 -17.349   6.168  1.00  0.00     0.048 C 
HETATM   15  C   UNL     1      41.161 -15.525   5.383  1.00  0.00     0.057 A 
ENDBRANCH   7   9
ENDBRANCH   5   7
ENDBRANCH   2   5
BRANCH   1  16
HETATM   16  C   UNL     1      41.180 -14.991   1.716  1.00  0.00     0.032 A 
HETATM   17  C   UNL     1      41.305 -16.368   1.948  1.00  0.00     0.023 A 
HETATM   18  C   UNL     1      42.563 -16.929   2.211  1.00  0.00    -0.061 A 
HETATM   19  C   UNL     1      42.705 -18.404   2.442  1.00  0.00     0.048 C 
HETATM   20  C   UNL     1      43.696 -16.105   2.199  1.00  0.00     0.007 A 
HETATM   21  C   UNL     1      43.576 -14.738   1.948  1.00  0.00     0.002 A 
HETATM   22  C   UNL     1      42.322 -14.181   1.704  1.00  0.00     0.017 A 
ENDBRANCH   1  16
TORSDOF 4
ENDMDL
MODEL 3
REMARK VINA RESULT:      -7.6      2.262      3.216
REMARK  4 active torsions:
REMARK  status: ('A' for Active; 'I' for Inactive)
REMARK    1  A    between atoms: C_4  and  C_5 
REMARK       I    between atoms: C_5  and  N_6 
REMARK    2  A    between atoms: N_6  and  C_7 
REMARK    3  A    between atoms: C_7  and  N_8 
REMARK    4  A    between atoms: N_8  and  C_9 
ROOT
HETATM    1  C   UNL     1      43.129 -15.285   1.830  1.00  0.00     0.257 C 
HETATM    2  N   UNL     1      41.951 -15.085   1.119  1.00  0.00    -0.299 N 
HETATM    3  O   UNL     1      44.009 -14.429   1.793  1.00  0.00    -0.267 OA
HETATM    4  H   UNL     1      42.101 -14.295   0.504  1.00  0.00     0.171 HD
ENDROOT
BRANCH   2   5
HETATM    5  C   UNL     1      40.610 -15.090   1.570  1.00  0.00     0.180 C 
HETATM    6  S   UNL     1      40.157 -14.900   3.166  1.00  0.00    -0.040 SA
BRANCH   5   7
HETATM    7  N   UNL     1      39.783 -15.272   0.469  1.00  0.00    -0.318 N 
HETATM    8  H   UNL     1      39.067 -15.982   0.557  1.00  0.00     0.170 HD
BRANCH   7   9
HETATM    9  C   UNL     1      39.624 -14.627  -0.762  1.00  0.00     0.129 A 
HETATM   10  N   UNL     1      40.256 -13.431  -0.780  1.00  0.00    -0.243 NA
HETATM   11  C   UNL     1      40.161 -12.685  -1.903  1.00  0.00     0.119 A 
HETATM   12  C   UNL     1      39.459 -13.074  -3.028  1.00  0.00     0.026 A 
HETATM   13  C   UNL     1      38.808 -14.305  -3.003  1.00  0.00    -0.057 A 
HETATM   14  C   UNL     1      38.029 -14.768  -4.197  1.00  0.00     0.048 C 
HETATM   15  C   UNL     1      38.887 -15.086  -1.843  1.00  0.00     0.057 A 
ENDBRANCH   7   9
ENDBRANCH   5   7
ENDBRANCH   2   5
BRANCH   1  16
HETATM   16  C   UNL     1      43.331 -16.542   2.595  1.00  0.00     0.032 A 
HETATM   17  C   UNL     1      43.298 -17.799   1.976  1.00  0.00     0.023 A 
HETATM   18  C   UNL     1      43.510 -18.964   2.729  1.00  0.00    -0.061 A 
HETATM   19  C   UNL     1      43.493 -20.310   2.069  1.00  0.00     0.048 C 
HETATM   20  C   UNL     1      43.795 -18.851   4.096  1.00  0.00     0.007 A 
HETATM   21  C   UNL     1      43.849 -17.599   4.709  1.00  0.00     0.002 A 
HETATM   22  C   UNL     1      43.621 -16.446   3.961  1.00  0.00     0.017 A 
ENDBRANCH   1  16
TORSDOF 4
ENDMDL
MODEL 4
REMARK VINA RESULT:      -7.6      3.026      4.594
REMARK  4 active torsions:
REMARK  status: ('A' for Active; 'I' for Inactive)
REMARK    1  A    between atoms: C_4  and  C_5 
REMARK       I    between atoms: C_5  and  N_6 
REMARK    2  A    between atoms: N_6  and  C_7 
REMARK    3  A    between atoms: C_7  and  N_8 
REMARK    4  A    between atoms: N_8  and  C_9 
ROOT
HETATM    1  C   UNL     1      43.956 -12.804   6.548  1.00  0.00     0.257 C 
HETATM    2  N   UNL     1      44.151 -12.113   5.357  1.00  0.00    -0.299 N 
HETATM    3  O   UNL     1      44.269 -12.274   7.611  1.00  0.00    -0.267 OA
HETATM    4  H   UNL     1      44.724 -11.305   5.568  1.00  0.00     0.171 HD
ENDROOT
BRANCH   2   5
HETATM    5  C   UNL     1      43.224 -11.787   4.338  1.00  0.00     0.180 C 
HETATM    6  S   UNL     1      42.230 -10.447   4.369  1.00  0.00    -0.040 SA
BRANCH   5   7
HETATM    7  N   UNL     1      43.308 -12.760   3.350  1.00  0.00    -0.318 N 
HETATM    8  H   UNL     1      44.043 -12.642   2.665  1.00  0.00     0.170 HD
BRANCH   7   9
HETATM    9  C   UNL     1      42.653 -13.971   3.101  1.00  0.00     0.129 A 
HETATM   10  N   UNL     1      41.309 -13.825   3.136  1.00  0.00    -0.243 NA
HETATM   11  C   UNL     1      40.550 -14.925   2.940  1.00  0.00     0.119 A 
HETATM   12  C   UNL     1      41.068 -16.185   2.706  1.00  0.00     0.026 A 
HETATM   13  C   UNL     1      42.452 -16.331   2.674  1.00  0.00    -0.057 A 
HETATM   14  C   UNL     1      43.061 -17.679   2.430  1.00  0.00     0.048 C 
HETATM   15  C   UNL     1      43.254 -15.202   2.886  1.00  0.00     0.057 A 
ENDBRANCH   7   9
ENDBRANCH   5   7
ENDBRANCH   2   5
BRANCH   1  16
HETATM   16  C   UNL     1      43.410 -14.185   6.525  1.00  0.00     0.032 A 
HETATM   17  C   UNL     1      42.031 -14.437   6.558  1.00  0.00     0.023 A 
HETATM   18  C   UNL     1      41.553 -15.755   6.519  1.00  0.00    -0.061 A 
HETATM   19  C   UNL     1      40.078 -16.029   6.537  1.00  0.00     0.048 C 
HETATM   20  C   UNL     1      42.466 -16.811   6.406  1.00  0.00     0.007 A 
HETATM   21  C   UNL     1      43.838 -16.560   6.352  1.00  0.00     0.002 A 
HETATM   22  C   UNL     1      44.310 -15.250   6.407  1.00  0.00     0.017 A 
ENDBRANCH   1  16
TORSDOF 4
ENDMDL
MODEL 5
REMARK VINA RESULT:      -7.5      1.289      2.342
REMARK  4 active torsions:
REMARK  status: ('A' for Active; 'I' for Inactive)
REMARK    1  A    between atoms: C_4  and  C_5 
REMARK       I    between atoms: C_5  and  N_6 
REMARK    2  A    between atoms: N_6  and  C_7 
REMARK    3  A    between atoms: C_7  and  N_8 
REMARK    4  A    between atoms: N_8  and  C_9 
ROOT
HETATM    1  C   UNL     1      43.334 -15.361   5.539  1.00  0.00     0.257 C 
HETATM    2  N   UNL     1      42.233 -14.533   5.352  1.00  0.00    -0.299 N 
HETATM    3  O   UNL     1      44.167 -15.073   6.395  1.00  0.00    -0.267 OA
HETATM    4  H   UNL     1      42.408 -13.678   5.866  1.00  0.00     0.171 HD
ENDROOT
BRANCH   2   5
HETATM    5  C   UNL     1      40.852 -14.841   5.395  1.00  0.00     0.180 C 
HETATM    6  S   UNL     1      40.151 -15.846   6.528  1.00  0.00    -0.040 SA
BRANCH   5   7
HETATM    7  N   UNL     1      40.225 -14.166   4.355  1.00  0.00    -0.318 N 
HETATM    8  H   UNL     1      39.715 -13.328   4.606  1.00  0.00     0.170 HD
BRANCH   7   9
HETATM    9  C   UNL     1      40.193 -14.310   2.964  1.00  0.00     0.129 A 
HETATM   10  N   UNL     1      39.925 -15.585   2.604  1.00  0.00    -0.243 NA
HETATM   11  C   UNL     1      39.891 -15.874   1.284  1.00  0.00     0.119 A 
HETATM   12  C   UNL     1      40.114 -14.943   0.287  1.00  0.00     0.026 A 
HETATM   13  C   UNL     1      40.394 -13.632   0.663  1.00  0.00    -0.057 A 
HETATM   14  C   UNL     1      40.649 -12.587  -0.381  1.00  0.00     0.048 C 
HETATM   15  C   UNL     1      40.443 -13.318   2.028  1.00  0.00     0.057 A 
ENDBRANCH   7   9
ENDBRANCH   5   7
ENDBRANCH   2   5
BRANCH   1  16
HETATM   16  C   UNL     1      43.517 -16.560   4.681  1.00  0.00     0.032 A 
HETATM   17  C   UNL     1      43.870 -17.806   5.215  1.00  0.00     0.023 A 
HETATM   18  C   UNL     1      44.018 -18.919   4.375  1.00  0.00    -0.061 A 
HETATM   19  C   UNL     1      44.379 -20.259   4.944  1.00  0.00     0.048 C 
HETATM   20  C   UNL     1      43.770 -18.778   3.004  1.00  0.00     0.007 A 
HETATM   21  C   UNL     1      43.398 -17.543   2.473  1.00  0.00     0.002 A 
HETATM   22  C   UNL     1      43.268 -16.435   3.309  1.00  0.00     0.017 A 
ENDBRANCH   1  16
TORSDOF 4
ENDMDL
MODEL 6
REMARK VINA RESULT:      -7.4      2.397      3.519
REMARK  4 active torsions:
REMARK  status: ('A' for Active; 'I' for Inactive)
REMARK    1  A    between atoms: C_4  and  C_5 
REMARK       I    between atoms: C_5  and  N_6 
REMARK    2  A    between atoms: N_6  and  C_7 
REMARK    3  A    between atoms: C_7  and  N_8 
REMARK    4  A    between atoms: N_8  and  C_9 
ROOT
HETATM    1  C   UNL     1      40.672 -15.514   2.705  1.00  0.00     0.257 C 
HETATM    2  N   UNL     1      40.839 -14.135   2.731  1.00  0.00    -0.299 N 
HETATM    3  O   UNL     1      39.597 -15.986   2.341  1.00  0.00    -0.267 OA
HETATM    4  H   UNL     1      39.924 -13.718   2.608  1.00  0.00     0.171 HD
ENDROOT
BRANCH   2   5
HETATM    5  C   UNL     1      41.817 -13.330   2.100  1.00  0.00     0.180 C 
HETATM    6  S   UNL     1      42.990 -12.468   2.917  1.00  0.00    -0.040 SA
BRANCH   5   7
HETATM    7  N   UNL     1      41.617 -13.400   0.727  1.00  0.00    -0.318 N 
HETATM    8  H   UNL     1      42.429 -13.621   0.165  1.00  0.00     0.170 HD
BRANCH   7   9
HETATM    9  C   UNL     1      40.500 -13.327  -0.111  1.00  0.00     0.129 A 
HETATM   10  N   UNL     1      39.719 -12.265   0.194  1.00  0.00    -0.243 NA
HETATM   11  C   UNL     1      38.587 -12.088  -0.521  1.00  0.00     0.119 A 
HETATM   12  C   UNL     1      38.184 -12.927  -1.543  1.00  0.00     0.026 A 
HETATM   13  C   UNL     1      38.988 -14.021  -1.851  1.00  0.00    -0.057 A 
HETATM   14  C   UNL     1      38.590 -14.963  -2.947  1.00  0.00     0.048 C 
HETATM   15  C   UNL     1      40.161 -14.225  -1.112  1.00  0.00     0.057 A 
ENDBRANCH   7   9
ENDBRANCH   5   7
ENDBRANCH   2   5
BRANCH   1  16
HETATM   16  C   UNL     1      41.774 -16.405   3.152  1.00  0.00     0.032 A 
HETATM   17  C   UNL     1      42.150 -17.541   2.423  1.00  0.00     0.023 A 
HETATM   18  C   UNL     1      43.206 -18.350   2.868  1.00  0.00    -0.061 A 
HETATM   19  C   UNL     1      43.623 -19.557   2.083  1.00  0.00     0.048 C 
HETATM   20  C   UNL     1      43.905 -17.984   4.026  1.00  0.00     0.007 A 
HETATM   21  C   UNL     1      43.545 -16.842   4.742  1.00  0.00     0.002 A 
HETATM   22  C   UNL     1      42.484 -16.051   4.305  1.00  0.00     0.017 A 
ENDBRANCH   1  16
TORSDOF 4
ENDMDL
MODEL 7
REMARK VINA RESULT:      -7.1      4.676      6.215
REMARK  4 active torsions:
REMARK  status: ('A' for Active; 'I' for Inactive)
REMARK    1  A    between atoms: C_4  and  C_5 
REMARK       I    between atoms: C_5  and  N_6 
REMARK    2  A    between atoms: N_6  and  C_7 
REMARK    3  A    between atoms: C_7  and  N_8 
REMARK    4  A    between atoms: N_8  and  C_9 
ROOT
HETATM    1  C   UNL     1      41.228 -15.368   6.388  1.00  0.00     0.257 C 
HETATM    2  N   UNL     1      41.730 -14.151   6.834  1.00  0.00    -0.299 N 
HETATM    3  O   UNL     1      40.055 -15.658   6.615  1.00  0.00    -0.267 OA
HETATM    4  H   UNL     1      41.047 -13.759   7.471  1.00  0.00     0.171 HD
ENDROOT
BRANCH   2   5
HETATM    5  C   UNL     1      42.357 -13.111   6.108  1.00  0.00     0.180 C 
HETATM    6  S   UNL     1      41.617 -12.236   4.894  1.00  0.00    -0.040 SA
BRANCH   5   7
HETATM    7  N   UNL     1      43.652 -12.967   6.589  1.00  0.00    -0.318 N 
HETATM    8  H   UNL     1      44.281 -13.743   6.425  1.00  0.00     0.170 HD
BRANCH   7   9
HETATM    9  C   UNL     1      44.369 -11.931   7.197  1.00  0.00     0.129 A 
HETATM   10  N   UNL     1      45.549 -11.712   6.572  1.00  0.00    -0.243 NA
HETATM   11  C   UNL     1      46.359 -10.754   7.073  1.00  0.00     0.119 A 
HETATM   12  C   UNL     1      46.051  -9.989   8.182  1.00  0.00     0.026 A 
HETATM   13  C   UNL     1      44.837 -10.220   8.824  1.00  0.00    -0.057 A 
HETATM   14  C   UNL     1      44.461  -9.420  10.035  1.00  0.00     0.048 C 
HETATM   15  C   UNL     1      43.990 -11.217   8.324  1.00  0.00     0.057 A 
ENDBRANCH   7   9
ENDBRANCH   5   7
ENDBRANCH   2   5
BRANCH   1  16
HETATM   16  C   UNL     1      42.117 -16.324   5.678  1.00  0.00     0.032 A 
HETATM   17  C   UNL     1      42.224 -16.338   4.281  1.00  0.00     0.023 A 
HETATM   18  C   UNL     1      43.086 -17.244   3.647  1.00  0.00    -0.061 A 
HETATM   19  C   UNL     1      43.217 -17.252   2.153  1.00  0.00     0.048 C 
HETATM   20  C   UNL     1      43.867 -18.106   4.429  1.00  0.00     0.007 A 
HETATM   21  C   UNL     1      43.777 -18.079   5.821  1.00  0.00     0.002 A 
HETATM   22  C   UNL     1      42.907 -17.188   6.446  1.00  0.00     0.017 A 
ENDBRANCH   1  16
TORSDOF 4
ENDMDL
MODEL 8
REMARK VINA RESULT:      -7.0     12.846     14.074
REMARK  4 active torsions:
REMARK  status: ('A' for Active; 'I' for Inactive)
REMARK    1  A    between atoms: C_4  and  C_5 
REMARK       I    between atoms: C_5  and  N_6 
REMARK    2  A    between atoms: N_6  and  C_7 
REMARK    3  A    between atoms: C_7  and  N_8 
REMARK    4  A    between atoms: N_8  and  C_9 
ROOT
HETATM    1  C   UNL     1      46.861 -28.497   1.730  1.00  0.00     0.257 C 
HETATM    2  N   UNL     1      45.494 -28.400   1.960  1.00  0.00    -0.299 N 
HETATM    3  O   UNL     1      47.648 -28.117   2.594  1.00  0.00    -0.267 OA
HETATM    4  H   UNL     1      45.367 -27.826   2.785  1.00  0.00     0.171 HD
ENDROOT
BRANCH   2   5
HETATM    5  C   UNL     1      44.495 -29.402   1.919  1.00  0.00     0.180 C 
HETATM    6  S   UNL     1      44.261 -30.541   3.117  1.00  0.00    -0.040 SA
BRANCH   5   7
HETATM    7  N   UNL     1      43.780 -29.252   0.738  1.00  0.00    -0.318 N 
HETATM    8  H   UNL     1      42.884 -28.786   0.811  1.00  0.00     0.170 HD
BRANCH   7   9
HETATM    9  C   UNL     1      44.037 -29.517  -0.611  1.00  0.00     0.129 A 
HETATM   10  N   UNL     1      43.912 -30.835  -0.890  1.00  0.00    -0.243 NA
HETATM   11  C   UNL     1      44.160 -31.238  -2.155  1.00  0.00     0.119 A 
HETATM   12  C   UNL     1      44.534 -30.384  -3.175  1.00  0.00     0.026 A 
HETATM   13  C   UNL     1      44.665 -29.029  -2.883  1.00  0.00    -0.057 A 
HETATM   14  C   UNL     1      45.074 -28.063  -3.955  1.00  0.00     0.048 C 
HETATM   15  C   UNL     1      44.421 -28.595  -1.573  1.00  0.00     0.057 A 
ENDBRANCH   7   9
ENDBRANCH   5   7
ENDBRANCH   2   5
BRANCH   1  16
HETATM   16  C   UNL     1      47.361 -29.021   0.433  1.00  0.00     0.032 A 
HETATM   17  C   UNL     1      47.395 -30.393   0.152  1.00  0.00     0.023 A 
HETATM   18  C   UNL     1      47.859 -30.849  -1.091  1.00  0.00    -0.061 A 
HETATM   19  C   UNL     1      47.882 -32.316  -1.403  1.00  0.00     0.048 C 
HETATM   20  C   UNL     1      48.249 -29.915  -2.059  1.00  0.00     0.007 A 
HETATM   21  C   UNL     1      48.196 -28.547  -1.789  1.00  0.00     0.002 A 
HETATM   22  C   UNL     1      47.750 -28.099  -0.546  1.00  0.00     0.017 A 
ENDBRANCH   1  16
TORSDOF 4
ENDMDL
MODEL 9
REMARK VINA RESULT:      -7.0      2.418      3.179
REMARK  4 active torsions:
REMARK  status: ('A' for Active; 'I' for Inactive)
REMARK    1  A    between atoms: C_4  and  C_5 
REMARK       I    between atoms: C_5  and  N_6 
REMARK    2  A    between atoms: N_6  and  C_7 
REMARK    3  A    between atoms: C_7  and  N_8 
REMARK    4  A    between atoms: N_8  and  C_9 
ROOT
HETATM    1  C   UNL     1      40.737 -15.427   6.470  1.00  0.00     0.257 C 
HETATM    2  N   UNL     1      40.609 -14.045   6.386  1.00  0.00    -0.299 N 
HETATM    3  O   UNL     1      39.818 -16.091   6.943  1.00  0.00    -0.267 OA
HETATM    4  H   UNL     1      39.797 -13.785   6.932  1.00  0.00     0.171 HD
ENDROOT
BRANCH   2   5
HETATM    5  C   UNL     1      40.721 -13.192   5.263  1.00  0.00     0.180 C 
HETATM    6  S   UNL     1      41.748 -11.879   5.182  1.00  0.00    -0.040 SA
BRANCH   5   7
HETATM    7  N   UNL     1      39.849 -13.649   4.283  1.00  0.00    -0.318 N 
HETATM    8  H   UNL     1      38.874 -13.719   4.547  1.00  0.00     0.170 HD
BRANCH   7   9
HETATM    9  C   UNL     1      39.969 -13.969   2.926  1.00  0.00     0.129 A 
HETATM   10  N   UNL     1      39.799 -15.293   2.712  1.00  0.00    -0.243 NA
HETATM   11  C   UNL     1      39.918 -15.747   1.446  1.00  0.00     0.119 A 
HETATM   12  C   UNL     1      40.201 -14.938   0.362  1.00  0.00     0.026 A 
HETATM   13  C   UNL     1      40.378 -13.576   0.587  1.00  0.00    -0.057 A 
HETATM   14  C   UNL     1      40.692 -12.658  -0.556  1.00  0.00     0.048 C 
HETATM   15  C   UNL     1      40.269 -13.090   1.897  1.00  0.00     0.057 A 
ENDBRANCH   7   9
ENDBRANCH   5   7
ENDBRANCH   2   5
BRANCH   1  16
HETATM   16  C   UNL     1      41.993 -16.085   6.026  1.00  0.00     0.032 A 
HETATM   17  C   UNL     1      42.141 -16.600   4.731  1.00  0.00     0.023 A 
HETATM   18  C   UNL     1      43.347 -17.201   4.342  1.00  0.00    -0.061 A 
HETATM   19  C   UNL     1      43.517 -17.739   2.953  1.00  0.00     0.048 C 
HETATM   20  C   UNL     1      44.413 -17.243   5.251  1.00  0.00     0.007 A 
HETATM   21  C   UNL     1      44.275 -16.711   6.533  1.00  0.00     0.002 A 
HETATM   22  C   UNL     1      43.068 -16.130   6.920  1.00  0.00     0.017 A 
ENDBRANCH   1  16
TORSDOF 4
ENDMDL
MODEL 10
REMARK VINA RESULT:      -7.0      4.705      6.445
REMARK  4 active torsions:
REMARK  status: ('A' for Active; 'I' for Inactive)
REMARK    1  A    between atoms: C_4  and  C_5 
REMARK       I    between atoms: C_5  and  N_6 
REMARK    2  A    between atoms: N_6  and  C_7 
REMARK    3  A    between atoms: C_7  and  N_8 
REMARK    4  A    between atoms: N_8  and  C_9 
ROOT
HETATM    1  C   UNL     1      41.218 -15.267   6.182  1.00  0.00     0.257 C 
HETATM    2  N   UNL     1      41.937 -14.204   6.718  1.00  0.00    -0.299 N 
HETATM    3  O   UNL     1      40.165 -15.613   6.713  1.00  0.00    -0.267 OA
HETATM    4  H   UNL     1      41.535 -13.995   7.624  1.00  0.00     0.171 HD
ENDROOT
BRANCH   2   5
HETATM    5  C   UNL     1      42.375 -13.007   6.104  1.00  0.00     0.180 C 
HETATM    6  S   UNL     1      41.419 -12.050   5.126  1.00  0.00    -0.040 SA
BRANCH   5   7
HETATM    7  N   UNL     1      43.700 -12.795   6.465  1.00  0.00    -0.318 N 
HETATM    8  H   UNL     1      44.379 -13.442   6.083  1.00  0.00     0.170 HD
BRANCH   7   9
HETATM    9  C   UNL     1      44.379 -11.809   7.188  1.00  0.00     0.129 A 
HETATM   10  N   UNL     1      45.604 -11.567   6.668  1.00  0.00    -0.243 NA
HETATM   11  C   UNL     1      46.383 -10.654   7.288  1.00  0.00     0.119 A 
HETATM   12  C   UNL     1      46.001  -9.956   8.418  1.00  0.00     0.026 A 
HETATM   13  C   UNL     1      44.740 -10.211   8.952  1.00  0.00    -0.057 A 
HETATM   14  C   UNL     1      44.282  -9.484  10.180  1.00  0.00     0.048 C 
HETATM   15  C   UNL     1      43.923 -11.163   8.328  1.00  0.00     0.057 A 
ENDBRANCH   7   9
ENDBRANCH   5   7
ENDBRANCH   2   5
BRANCH   1  16
HETATM   16  C   UNL     1      41.743 -15.999   5.001  1.00  0.00     0.032 A 
HETATM   17  C   UNL     1      42.813 -16.899   5.102  1.00  0.00     0.023 A 
HETATM   18  C   UNL     1      43.271 -17.583   3.967  1.00  0.00    -0.061 A 
HETATM   19  C   UNL     1      44.404 -18.560   4.073  1.00  0.00     0.048 C 
HETATM   20  C   UNL     1      42.620 -17.387   2.742  1.00  0.00     0.007 A 
HETATM   21  C   UNL     1      41.541 -16.508   2.644  1.00  0.00     0.002 A 
HETATM   22  C   UNL     1      41.100 -15.817   3.771  1.00  0.00     0.017 A 
ENDBRANCH   1  16
TORSDOF 4
ENDMDL
