MODEL 1
REMARK VINA RESULT:      -8.6      0.000      0.000
REMARK  4 active torsions:
REMARK  status: ('A' for Active; 'I' for Inactive)
REMARK    1  A    between atoms: N_2  and  C_3 
REMARK    2  A    between atoms: C_5  and  C_6 
REMARK    3  A    between atoms: C_6  and  C_7 
REMARK    4  A    between atoms: C_14  and  O_15 
ROOT
HETATM    1  C   UNL     1      43.924 -17.390   4.684  1.00  0.00     0.113 A 
HETATM    2  N   UNL     1      43.432 -16.368   3.958  1.00  0.00    -0.223 NA
HETATM    3  C   UNL     1      42.995 -16.617   2.695  1.00  0.00     0.106 A 
HETATM    4  N   UNL     1      43.045 -17.831   2.122  1.00  0.00    -0.347 N 
HETATM    5  H   UNL     1      42.748 -17.948   1.151  1.00  0.00     0.167 HD
HETATM    6  C   UNL     1      43.519 -18.844   2.842  1.00  0.00     0.020 A 
HETATM    7  C   UNL     1      43.963 -18.654   4.139  1.00  0.00     0.005 A 
HETATM    8  C   UNL     1      44.459 -19.941   4.716  1.00  0.00     0.044 C 
HETATM    9  C   UNL     1      43.844 -20.965   3.743  1.00  0.00     0.011 C 
HETATM   10  C   UNL     1      43.685 -20.258   2.387  1.00  0.00     0.058 C 
ENDROOT
BRANCH   3  11
HETATM   11  C   UNL     1      42.477 -15.468   1.880  1.00  0.00     0.085 C 
BRANCH  11  12
HETATM   12  C   UNL     1      41.051 -15.021   2.282  1.00  0.00     0.021 C 
HETATM   13  C   UNL     1      40.904 -13.507   2.447  1.00  0.00     0.181 C 
HETATM   14  O   UNL     1      41.424 -12.838   1.288  1.00  0.00    -0.350 OA
HETATM   15  C   UNL     1      40.768 -13.229   0.139  1.00  0.00     0.077 A 
HETATM   16  C   UNL     1      40.118 -14.469   0.028  1.00  0.00    -0.024 A 
HETATM   17  C   UNL     1      40.826 -12.350  -0.946  1.00  0.00     0.074 A 
HETATM   18  C   UNL     1      40.056 -15.432   1.188  1.00  0.00     0.048 C 
HETATM   19  C   UNL     1      39.496 -14.802  -1.178  1.00  0.00     0.012 A 
HETATM   20  C   UNL     1      39.546 -13.918  -2.256  1.00  0.00     0.037 A 
HETATM   21  C   UNL     1      40.205 -12.691  -2.147  1.00  0.00     0.070 A 
BRANCH  21  22
HETATM   22  O   UNL     1      40.175 -11.931  -3.283  1.00  0.00    -0.356 OA
HETATM   23  C   UNL     1      40.747 -10.633  -3.215  1.00  0.00     0.210 C 
ENDBRANCH  21  22
ENDBRANCH  11  12
ENDBRANCH   3  11
BRANCH   1  24
HETATM   24  N   UNL     1      44.314 -17.195   6.004  1.00  0.00    -0.281 NA
HETATM   25  C   UNL     1      43.247 -17.156   6.993  1.00  0.00     0.114 C 
HETATM   26  H   UNL     1      44.950 -16.407   6.104  1.00  0.00     0.128 HD
ENDBRANCH   1  24
TORSDOF 4
ENDMDL
MODEL 2
REMARK VINA RESULT:      -8.0      3.338      8.421
REMARK  4 active torsions:
REMARK  status: ('A' for Active; 'I' for Inactive)
REMARK    1  A    between atoms: N_2  and  C_3 
REMARK    2  A    between atoms: C_5  and  C_6 
REMARK    3  A    between atoms: C_6  and  C_7 
REMARK    4  A    between atoms: C_14  and  O_15 
ROOT
HETATM    1  C   UNL     1      39.199 -13.433  -1.136  1.00  0.00     0.113 A 
HETATM    2  N   UNL     1      39.933 -14.332  -0.452  1.00  0.00    -0.223 NA
HETATM    3  C   UNL     1      40.067 -14.175   0.892  1.00  0.00     0.106 A 
HETATM    4  N   UNL     1      39.518 -13.157   1.575  1.00  0.00    -0.347 N 
HETATM    5  H   UNL     1      39.695 -13.064   2.577  1.00  0.00     0.167 HD
HETATM    6  C   UNL     1      38.782 -12.277   0.904  1.00  0.00     0.020 A 
HETATM    7  C   UNL     1      38.597 -12.393  -0.463  1.00  0.00     0.005 A 
HETATM    8  C   UNL     1      37.750 -11.272  -0.974  1.00  0.00     0.044 C 
HETATM    9  C   UNL     1      37.123 -10.749   0.332  1.00  0.00     0.011 C 
HETATM   10  C   UNL     1      38.112 -11.064   1.465  1.00  0.00     0.058 C 
ENDROOT
BRANCH   3  11
HETATM   11  C   UNL     1      40.911 -15.162   1.643  1.00  0.00     0.085 C 
BRANCH  11  12
HETATM   12  C   UNL     1      42.414 -14.795   1.671  1.00  0.00     0.021 C 
HETATM   13  C   UNL     1      42.893 -14.265   3.024  1.00  0.00     0.181 C 
HETATM   14  O   UNL     1      42.488 -15.161   4.070  1.00  0.00    -0.350 OA
HETATM   15  C   UNL     1      43.001 -16.428   3.878  1.00  0.00     0.077 A 
HETATM   16  C   UNL     1      43.361 -16.911   2.609  1.00  0.00    -0.024 A 
HETATM   17  C   UNL     1      43.096 -17.242   5.010  1.00  0.00     0.074 A 
HETATM   18  C   UNL     1      43.254 -16.044   1.379  1.00  0.00     0.048 C 
HETATM   19  C   UNL     1      43.851 -18.214   2.495  1.00  0.00     0.012 A 
HETATM   20  C   UNL     1      43.955 -19.022   3.628  1.00  0.00     0.037 A 
HETATM   21  C   UNL     1      43.584 -18.544   4.887  1.00  0.00     0.070 A 
BRANCH  21  22
HETATM   22  O   UNL     1      43.737 -19.446   5.901  1.00  0.00    -0.356 OA
HETATM   23  C   UNL     1      43.998 -20.796   5.541  1.00  0.00     0.210 C 
ENDBRANCH  21  22
ENDBRANCH  11  12
ENDBRANCH   3  11
BRANCH   1  24
HETATM   24  N   UNL     1      38.975 -13.595  -2.499  1.00  0.00    -0.281 NA
HETATM   25  C   UNL     1      38.696 -14.950  -2.951  1.00  0.00     0.114 C 
HETATM   26  H   UNL     1      39.697 -13.150  -3.062  1.00  0.00     0.128 HD
ENDBRANCH   1  24
TORSDOF 4
ENDMDL
MODEL 3
REMARK VINA RESULT:      -7.9      5.246      7.997
REMARK  4 active torsions:
REMARK  status: ('A' for Active; 'I' for Inactive)
REMARK    1  A    between atoms: N_2  and  C_3 
REMARK    2  A    between atoms: C_5  and  C_6 
REMARK    3  A    between atoms: C_6  and  C_7 
REMARK    4  A    between atoms: C_14  and  O_15 
ROOT
HETATM    1  C   UNL     1      42.777 -15.136   2.632  1.00  0.00     0.113 A 
HETATM    2  N   UNL     1      42.767 -14.093   3.485  1.00  0.00    -0.223 NA
HETATM    3  C   UNL     1      43.083 -14.315   4.788  1.00  0.00     0.106 A 
HETATM    4  N   UNL     1      43.390 -15.528   5.278  1.00  0.00    -0.347 N 
HETATM    5  H   UNL     1      43.570 -15.641   6.277  1.00  0.00     0.167 HD
HETATM    6  C   UNL     1      43.413 -16.556   4.435  1.00  0.00     0.020 A 
HETATM    7  C   UNL     1      43.115 -16.388   3.094  1.00  0.00     0.005 A 
HETATM    8  C   UNL     1      43.195 -17.695   2.373  1.00  0.00     0.044 C 
HETATM    9  C   UNL     1      43.993 -18.546   3.379  1.00  0.00     0.011 C 
HETATM   10  C   UNL     1      43.700 -17.982   4.778  1.00  0.00     0.058 C 
ENDROOT
BRANCH   3  11
HETATM   11  C   UNL     1      43.040 -13.155   5.739  1.00  0.00     0.085 C 
BRANCH  11  12
HETATM   12  C   UNL     1      43.602 -11.843   5.140  1.00  0.00     0.021 C 
HETATM   13  C   UNL     1      42.681 -10.636   5.329  1.00  0.00     0.181 C 
HETATM   14  O   UNL     1      42.292 -10.532   6.708  1.00  0.00    -0.350 OA
HETATM   15  C   UNL     1      43.388 -10.394   7.535  1.00  0.00     0.077 A 
HETATM   16  C   UNL     1      44.665 -10.855   7.176  1.00  0.00    -0.024 A 
HETATM   17  C   UNL     1      43.158  -9.818   8.788  1.00  0.00     0.074 A 
HETATM   18  C   UNL     1      44.924 -11.487   5.831  1.00  0.00     0.048 C 
HETATM   19  C   UNL     1      45.719 -10.700   8.080  1.00  0.00     0.012 A 
HETATM   20  C   UNL     1      45.490 -10.115   9.326  1.00  0.00     0.037 A 
HETATM   21  C   UNL     1      44.216  -9.669   9.685  1.00  0.00     0.070 A 
BRANCH  21  22
HETATM   22  O   UNL     1      44.141  -9.121  10.935  1.00  0.00    -0.356 OA
HETATM   23  C   UNL     1      43.187  -9.672  11.833  1.00  0.00     0.210 C 
ENDBRANCH  21  22
ENDBRANCH  11  12
ENDBRANCH   3  11
BRANCH   1  24
HETATM   24  N   UNL     1      42.531 -14.942   1.278  1.00  0.00    -0.281 NA
HETATM   25  C   UNL     1      41.134 -14.858   0.880  1.00  0.00     0.114 C 
HETATM   26  H   UNL     1      43.051 -15.595   0.695  1.00  0.00     0.128 HD
ENDBRANCH   1  24
TORSDOF 4
ENDMDL
MODEL 4
REMARK VINA RESULT:      -7.9      2.168      3.225
REMARK  4 active torsions:
REMARK  status: ('A' for Active; 'I' for Inactive)
REMARK    1  A    between atoms: N_2  and  C_3 
REMARK    2  A    between atoms: C_5  and  C_6 
REMARK    3  A    between atoms: C_6  and  C_7 
REMARK    4  A    between atoms: C_14  and  O_15 
ROOT
HETATM    1  C   UNL     1      43.887 -17.358   4.546  1.00  0.00     0.113 A 
HETATM    2  N   UNL     1      43.389 -16.334   3.826  1.00  0.00    -0.223 NA
HETATM    3  C   UNL     1      42.942 -16.580   2.566  1.00  0.00     0.106 A 
HETATM    4  N   UNL     1      42.986 -17.794   1.991  1.00  0.00    -0.347 N 
HETATM    5  H   UNL     1      42.681 -17.908   1.022  1.00  0.00     0.167 HD
HETATM    6  C   UNL     1      43.464 -18.808   2.705  1.00  0.00     0.020 A 
HETATM    7  C   UNL     1      43.920 -18.621   3.998  1.00  0.00     0.005 A 
HETATM    8  C   UNL     1      44.420 -19.909   4.568  1.00  0.00     0.044 C 
HETATM    9  C   UNL     1      43.795 -20.931   3.599  1.00  0.00     0.011 C 
HETATM   10  C   UNL     1      43.625 -20.222   2.246  1.00  0.00     0.058 C 
ENDROOT
BRANCH   3  11
HETATM   11  C   UNL     1      42.417 -15.430   1.758  1.00  0.00     0.085 C 
BRANCH  11  12
HETATM   12  C   UNL     1      40.950 -15.614   1.301  1.00  0.00     0.021 C 
HETATM   13  C   UNL     1      39.957 -15.750   2.457  1.00  0.00     0.181 C 
HETATM   14  O   UNL     1      40.149 -14.678   3.393  1.00  0.00    -0.350 OA
HETATM   15  C   UNL     1      39.976 -13.446   2.795  1.00  0.00     0.077 A 
HETATM   16  C   UNL     1      40.158 -13.245   1.417  1.00  0.00    -0.024 A 
HETATM   17  C   UNL     1      39.663 -12.379   3.641  1.00  0.00     0.074 A 
HETATM   18  C   UNL     1      40.505 -14.388   0.495  1.00  0.00     0.048 C 
HETATM   19  C   UNL     1      39.987 -11.962   0.892  1.00  0.00     0.012 A 
HETATM   20  C   UNL     1      39.664 -10.900   1.737  1.00  0.00     0.037 A 
HETATM   21  C   UNL     1      39.497 -11.100   3.109  1.00  0.00     0.070 A 
BRANCH  21  22
HETATM   22  O   UNL     1      39.186  -9.970   3.811  1.00  0.00    -0.356 OA
HETATM   23  C   UNL     1      38.576 -10.138   5.083  1.00  0.00     0.210 C 
ENDBRANCH  21  22
ENDBRANCH  11  12
ENDBRANCH   3  11
BRANCH   1  24
HETATM   24  N   UNL     1      44.287 -17.166   5.863  1.00  0.00    -0.281 NA
HETATM   25  C   UNL     1      43.233 -17.169   6.866  1.00  0.00     0.114 C 
HETATM   26  H   UNL     1      44.902 -16.361   5.964  1.00  0.00     0.128 HD
ENDBRANCH   1  24
TORSDOF 4
ENDMDL
MODEL 5
REMARK VINA RESULT:      -7.8      1.200      2.467
REMARK  4 active torsions:
REMARK  status: ('A' for Active; 'I' for Inactive)
REMARK    1  A    between atoms: N_2  and  C_3 
REMARK    2  A    between atoms: C_5  and  C_6 
REMARK    3  A    between atoms: C_6  and  C_7 
REMARK    4  A    between atoms: C_14  and  O_15 
ROOT
HETATM    1  C   UNL     1      43.539 -18.055   3.166  1.00  0.00     0.113 A 
HETATM    2  N   UNL     1      43.147 -17.184   2.215  1.00  0.00    -0.223 NA
HETATM    3  C   UNL     1      42.555 -16.023   2.600  1.00  0.00     0.106 A 
HETATM    4  N   UNL     1      42.322 -15.702   3.883  1.00  0.00    -0.347 N 
HETATM    5  H   UNL     1      41.828 -14.837   4.109  1.00  0.00     0.167 HD
HETATM    6  C   UNL     1      42.720 -16.554   4.824  1.00  0.00     0.020 A 
HETATM    7  C   UNL     1      43.342 -17.745   4.493  1.00  0.00     0.005 A 
HETATM    8  C   UNL     1      43.669 -18.524   5.727  1.00  0.00     0.044 C 
HETATM    9  C   UNL     1      43.546 -17.437   6.811  1.00  0.00     0.011 C 
HETATM   10  C   UNL     1      42.532 -16.402   6.299  1.00  0.00     0.058 C 
ENDROOT
BRANCH   3  11
HETATM   11  C   UNL     1      42.094 -15.072   1.535  1.00  0.00     0.085 C 
BRANCH  11  12
HETATM   12  C   UNL     1      40.567 -14.821   1.550  1.00  0.00     0.021 C 
HETATM   13  C   UNL     1      40.182 -13.384   1.907  1.00  0.00     0.181 C 
HETATM   14  O   UNL     1      40.920 -12.464   1.088  1.00  0.00    -0.350 OA
HETATM   15  C   UNL     1      40.677 -12.672  -0.254  1.00  0.00     0.077 A 
HETATM   16  C   UNL     1      40.253 -13.912  -0.759  1.00  0.00    -0.024 A 
HETATM   17  C   UNL     1      40.927 -11.596  -1.110  1.00  0.00     0.074 A 
HETATM   18  C   UNL     1      39.989 -15.084   0.154  1.00  0.00     0.048 C 
HETATM   19  C   UNL     1      40.051 -14.049  -2.135  1.00  0.00     0.012 A 
HETATM   20  C   UNL     1      40.291 -12.971  -2.986  1.00  0.00     0.037 A 
HETATM   21  C   UNL     1      40.724 -11.742  -2.482  1.00  0.00     0.070 A 
BRANCH  21  22
HETATM   22  O   UNL     1      40.921 -10.780  -3.433  1.00  0.00    -0.356 OA
HETATM   23  C   UNL     1      41.035  -9.436  -2.987  1.00  0.00     0.210 C 
ENDBRANCH  21  22
ENDBRANCH  11  12
ENDBRANCH   3  11
BRANCH   1  24
HETATM   24  N   UNL     1      44.213 -19.221   2.821  1.00  0.00    -0.281 NA
HETATM   25  C   UNL     1      43.474 -20.180   2.015  1.00  0.00     0.114 C 
HETATM   26  H   UNL     1      44.653 -19.662   3.625  1.00  0.00     0.128 HD
ENDBRANCH   1  24
TORSDOF 4
ENDMDL
MODEL 6
REMARK VINA RESULT:      -7.7      5.051      8.191
REMARK  4 active torsions:
REMARK  status: ('A' for Active; 'I' for Inactive)
REMARK    1  A    between atoms: N_2  and  C_3 
REMARK    2  A    between atoms: C_5  and  C_6 
REMARK    3  A    between atoms: C_6  and  C_7 
REMARK    4  A    between atoms: C_14  and  O_15 
ROOT
HETATM    1  C   UNL     1      42.614 -10.144   7.036  1.00  0.00     0.113 A 
HETATM    2  N   UNL     1      42.389 -11.260   6.316  1.00  0.00    -0.223 NA
HETATM    3  C   UNL     1      43.404 -12.151   6.160  1.00  0.00     0.106 A 
HETATM    4  N   UNL     1      44.632 -11.968   6.675  1.00  0.00    -0.347 N 
HETATM    5  H   UNL     1      45.369 -12.649   6.483  1.00  0.00     0.167 HD
HETATM    6  C   UNL     1      44.852 -10.874   7.397  1.00  0.00     0.020 A 
HETATM    7  C   UNL     1      43.852  -9.939   7.602  1.00  0.00     0.005 A 
HETATM    8  C   UNL     1      44.362  -8.801   8.427  1.00  0.00     0.044 C 
HETATM    9  C   UNL     1      45.644  -9.412   9.025  1.00  0.00     0.011 C 
HETATM   10  C   UNL     1      46.145 -10.470   8.029  1.00  0.00     0.058 C 
ENDROOT
BRANCH   3  11
HETATM   11  C   UNL     1      43.156 -13.377   5.332  1.00  0.00     0.085 C 
BRANCH  11  12
HETATM   12  C   UNL     1      42.069 -14.309   5.918  1.00  0.00     0.021 C 
HETATM   13  C   UNL     1      41.070 -14.821   4.879  1.00  0.00     0.181 C 
HETATM   14  O   UNL     1      41.774 -15.374   3.757  1.00  0.00    -0.350 OA
HETATM   15  C   UNL     1      42.597 -16.414   4.137  1.00  0.00     0.077 A 
HETATM   16  C   UNL     1      43.103 -16.535   5.442  1.00  0.00    -0.024 A 
HETATM   17  C   UNL     1      42.955 -17.325   3.140  1.00  0.00     0.074 A 
HETATM   18  C   UNL     1      42.731 -15.553   6.525  1.00  0.00     0.048 C 
HETATM   19  C   UNL     1      43.950 -17.606   5.742  1.00  0.00     0.012 A 
HETATM   20  C   UNL     1      44.298 -18.521   4.748  1.00  0.00     0.037 A 
HETATM   21  C   UNL     1      43.803 -18.390   3.448  1.00  0.00     0.070 A 
BRANCH  21  22
HETATM   22  O   UNL     1      44.231 -19.356   2.582  1.00  0.00    -0.356 OA
HETATM   23  C   UNL     1      43.249 -20.224   2.034  1.00  0.00     0.210 C 
ENDBRANCH  21  22
ENDBRANCH  11  12
ENDBRANCH   3  11
BRANCH   1  24
HETATM   24  N   UNL     1      41.585  -9.242   7.280  1.00  0.00    -0.281 NA
HETATM   25  C   UNL     1      40.255  -9.810   7.451  1.00  0.00     0.114 C 
HETATM   26  H   UNL     1      41.583  -8.471   6.616  1.00  0.00     0.128 HD
ENDBRANCH   1  24
TORSDOF 4
ENDMDL
MODEL 7
REMARK VINA RESULT:      -7.6      4.827      7.284
REMARK  4 active torsions:
REMARK  status: ('A' for Active; 'I' for Inactive)
REMARK    1  A    between atoms: N_2  and  C_3 
REMARK    2  A    between atoms: C_5  and  C_6 
REMARK    3  A    between atoms: C_6  and  C_7 
REMARK    4  A    between atoms: C_14  and  O_15 
ROOT
HETATM    1  C   UNL     1      43.570 -16.110   5.425  1.00  0.00     0.113 A 
HETATM    2  N   UNL     1      43.049 -14.922   5.789  1.00  0.00    -0.223 NA
HETATM    3  C   UNL     1      42.364 -14.200   4.863  1.00  0.00     0.106 A 
HETATM    4  N   UNL     1      42.192 -14.603   3.592  1.00  0.00    -0.347 N 
HETATM    5  H   UNL     1      41.710 -13.994   2.927  1.00  0.00     0.167 HD
HETATM    6  C   UNL     1      42.693 -15.781   3.235  1.00  0.00     0.020 A 
HETATM    7  C   UNL     1      43.387 -16.567   4.139  1.00  0.00     0.005 A 
HETATM    8  C   UNL     1      43.859 -17.826   3.484  1.00  0.00     0.044 C 
HETATM    9  C   UNL     1      42.980 -17.855   2.219  1.00  0.00     0.011 C 
HETATM   10  C   UNL     1      42.638 -16.397   1.874  1.00  0.00     0.058 C 
ENDROOT
BRANCH   3  11
HETATM   11  C   UNL     1      41.813 -12.864   5.265  1.00  0.00     0.085 C 
BRANCH  11  12
HETATM   12  C   UNL     1      42.489 -11.674   4.542  1.00  0.00     0.021 C 
HETATM   13  C   UNL     1      41.987 -10.306   5.007  1.00  0.00     0.181 C 
HETATM   14  O   UNL     1      42.039 -10.228   6.440  1.00  0.00    -0.350 OA
HETATM   15  C   UNL     1      43.322 -10.418   6.911  1.00  0.00     0.077 A 
HETATM   16  C   UNL     1      44.292 -11.133   6.189  1.00  0.00    -0.024 A 
HETATM   17  C   UNL     1      43.603  -9.911   8.183  1.00  0.00     0.074 A 
HETATM   18  C   UNL     1      43.998 -11.694   4.820  1.00  0.00     0.048 C 
HETATM   19  C   UNL     1      45.562 -11.302   6.746  1.00  0.00     0.012 A 
HETATM   20  C   UNL     1      45.844 -10.785   8.011  1.00  0.00     0.037 A 
HETATM   21  C   UNL     1      44.873 -10.086   8.732  1.00  0.00     0.070 A 
BRANCH  21  22
HETATM   22  O   UNL     1      45.290  -9.642   9.955  1.00  0.00    -0.356 OA
HETATM   23  C   UNL     1      44.289  -9.345  10.919  1.00  0.00     0.210 C 
ENDBRANCH  21  22
ENDBRANCH  11  12
ENDBRANCH   3  11
BRANCH   1  24
HETATM   24  N   UNL     1      44.214 -16.913   6.359  1.00  0.00    -0.281 NA
HETATM   25  C   UNL     1      43.828 -16.725   7.749  1.00  0.00     0.114 C 
HETATM   26  H   UNL     1      45.225 -16.902   6.243  1.00  0.00     0.128 HD
ENDBRANCH   1  24
TORSDOF 4
ENDMDL
MODEL 8
REMARK VINA RESULT:      -7.5      2.115      3.916
REMARK  4 active torsions:
REMARK  status: ('A' for Active; 'I' for Inactive)
REMARK    1  A    between atoms: N_2  and  C_3 
REMARK    2  A    between atoms: C_5  and  C_6 
REMARK    3  A    between atoms: C_6  and  C_7 
REMARK    4  A    between atoms: C_14  and  O_15 
ROOT
HETATM    1  C   UNL     1      43.256 -17.557   4.896  1.00  0.00     0.113 A 
HETATM    2  N   UNL     1      42.461 -16.620   4.342  1.00  0.00    -0.223 NA
HETATM    3  C   UNL     1      42.012 -16.814   3.074  1.00  0.00     0.106 A 
HETATM    4  N   UNL     1      42.334 -17.887   2.332  1.00  0.00    -0.347 N 
HETATM    5  H   UNL     1      42.007 -17.954   1.367  1.00  0.00     0.167 HD
HETATM    6  C   UNL     1      43.108 -18.819   2.881  1.00  0.00     0.020 A 
HETATM    7  C   UNL     1      43.583 -18.683   4.175  1.00  0.00     0.005 A 
HETATM    8  C   UNL     1      44.439 -19.852   4.543  1.00  0.00     0.044 C 
HETATM    9  C   UNL     1      44.042 -20.871   3.457  1.00  0.00     0.011 C 
HETATM   10  C   UNL     1      43.603 -20.066   2.223  1.00  0.00     0.058 C 
ENDROOT
BRANCH   3  11
HETATM   11  C   UNL     1      41.152 -15.753   2.452  1.00  0.00     0.085 C 
BRANCH  11  12
HETATM   12  C   UNL     1      41.850 -14.988   1.303  1.00  0.00     0.021 C 
HETATM   13  C   UNL     1      40.983 -13.895   0.675  1.00  0.00     0.181 C 
HETATM   14  O   UNL     1      40.447 -13.048   1.703  1.00  0.00    -0.350 OA
HETATM   15  C   UNL     1      41.448 -12.455   2.445  1.00  0.00     0.077 A 
HETATM   16  C   UNL     1      42.730 -13.016   2.564  1.00  0.00    -0.024 A 
HETATM   17  C   UNL     1      41.111 -11.284   3.129  1.00  0.00     0.074 A 
HETATM   18  C   UNL     1      43.104 -14.285   1.839  1.00  0.00     0.048 C 
HETATM   19  C   UNL     1      43.682 -12.367   3.354  1.00  0.00     0.012 A 
HETATM   20  C   UNL     1      43.347 -11.192   4.027  1.00  0.00     0.037 A 
HETATM   21  C   UNL     1      42.067 -10.643   3.917  1.00  0.00     0.070 A 
BRANCH  21  22
HETATM   22  O   UNL     1      41.883  -9.494   4.633  1.00  0.00    -0.356 OA
HETATM   23  C   UNL     1      40.942  -9.531   5.697  1.00  0.00     0.210 C 
ENDBRANCH  21  22
ENDBRANCH  11  12
ENDBRANCH   3  11
BRANCH   1  24
HETATM   24  N   UNL     1      43.678 -17.434   6.215  1.00  0.00    -0.281 NA
HETATM   25  C   UNL     1      44.658 -16.393   6.485  1.00  0.00     0.114 C 
HETATM   26  H   UNL     1      43.956 -18.328   6.614  1.00  0.00     0.128 HD
ENDBRANCH   1  24
TORSDOF 4
ENDMDL
MODEL 9
REMARK VINA RESULT:      -7.4      1.478      1.989
REMARK  4 active torsions:
REMARK  status: ('A' for Active; 'I' for Inactive)
REMARK    1  A    between atoms: N_2  and  C_3 
REMARK    2  A    between atoms: C_5  and  C_6 
REMARK    3  A    between atoms: C_6  and  C_7 
REMARK    4  A    between atoms: C_14  and  O_15 
ROOT
HETATM    1  C   UNL     1      42.999 -17.054   5.144  1.00  0.00     0.113 A 
HETATM    2  N   UNL     1      42.102 -16.089   4.861  1.00  0.00    -0.223 NA
HETATM    3  C   UNL     1      41.529 -16.073   3.629  1.00  0.00     0.106 A 
HETATM    4  N   UNL     1      41.823 -16.963   2.666  1.00  0.00    -0.347 N 
HETATM    5  H   UNL     1      41.397 -16.871   1.742  1.00  0.00     0.167 HD
HETATM    6  C   UNL     1      42.698 -17.923   2.947  1.00  0.00     0.020 A 
HETATM    7  C   UNL     1      43.303 -17.999   4.190  1.00  0.00     0.005 A 
HETATM    8  C   UNL     1      44.253 -19.153   4.240  1.00  0.00     0.044 C 
HETATM    9  C   UNL     1      43.793 -19.976   3.022  1.00  0.00     0.011 C 
HETATM   10  C   UNL     1      43.182 -18.987   2.016  1.00  0.00     0.058 C 
ENDROOT
BRANCH   3  11
HETATM   11  C   UNL     1      40.554 -14.978   3.310  1.00  0.00     0.085 C 
BRANCH  11  12
HETATM   12  C   UNL     1      41.228 -13.615   3.024  1.00  0.00     0.021 C 
HETATM   13  C   UNL     1      42.261 -13.663   1.896  1.00  0.00     0.181 C 
HETATM   14  O   UNL     1      41.689 -14.290   0.738  1.00  0.00    -0.350 OA
HETATM   15  C   UNL     1      40.572 -13.611   0.294  1.00  0.00     0.077 A 
HETATM   16  C   UNL     1      39.793 -12.807   1.142  1.00  0.00    -0.024 A 
HETATM   17  C   UNL     1      40.212 -13.805  -1.042  1.00  0.00     0.074 A 
HETATM   18  C   UNL     1      40.166 -12.597   2.589  1.00  0.00     0.048 C 
HETATM   19  C   UNL     1      38.663 -12.172   0.621  1.00  0.00     0.012 A 
HETATM   20  C   UNL     1      38.311 -12.358  -0.716  1.00  0.00     0.037 A 
HETATM   21  C   UNL     1      39.081 -13.168  -1.553  1.00  0.00     0.070 A 
BRANCH  21  22
HETATM   22  O   UNL     1      38.614 -13.260  -2.834  1.00  0.00    -0.356 OA
HETATM   23  C   UNL     1      38.331 -14.560  -3.335  1.00  0.00     0.210 C 
ENDBRANCH  21  22
ENDBRANCH  11  12
ENDBRANCH   3  11
BRANCH   1  24
HETATM   24  N   UNL     1      43.555 -17.150   6.414  1.00  0.00    -0.281 NA
HETATM   25  C   UNL     1      44.685 -16.277   6.694  1.00  0.00     0.114 C 
HETATM   26  H   UNL     1      43.748 -18.114   6.677  1.00  0.00     0.128 HD
ENDBRANCH   1  24
TORSDOF 4
ENDMDL
MODEL 10
REMARK VINA RESULT:      -7.3      2.234      3.916
REMARK  4 active torsions:
REMARK  status: ('A' for Active; 'I' for Inactive)
REMARK    1  A    between atoms: N_2  and  C_3 
REMARK    2  A    between atoms: C_5  and  C_6 
REMARK    3  A    between atoms: C_6  and  C_7 
REMARK    4  A    between atoms: C_14  and  O_15 
ROOT
HETATM    1  C   UNL     1      43.549 -18.082   3.226  1.00  0.00     0.113 A 
HETATM    2  N   UNL     1      43.235 -17.181   2.274  1.00  0.00    -0.223 NA
HETATM    3  C   UNL     1      42.755 -15.969   2.658  1.00  0.00     0.106 A 
HETATM    4  N   UNL     1      42.560 -15.625   3.942  1.00  0.00    -0.347 N 
HETATM    5  H   UNL     1      42.149 -14.717   4.168  1.00  0.00     0.167 HD
HETATM    6  C   UNL     1      42.882 -16.507   4.883  1.00  0.00     0.020 A 
HETATM    7  C   UNL     1      43.389 -17.752   4.553  1.00  0.00     0.005 A 
HETATM    8  C   UNL     1      43.649 -18.555   5.787  1.00  0.00     0.044 C 
HETATM    9  C   UNL     1      43.633 -17.459   6.869  1.00  0.00     0.011 C 
HETATM   10  C   UNL     1      42.717 -16.335   6.358  1.00  0.00     0.058 C 
ENDROOT
BRANCH   3  11
HETATM   11  C   UNL     1      42.379 -14.981   1.593  1.00  0.00     0.085 C 
BRANCH  11  12
HETATM   12  C   UNL     1      41.015 -15.283   0.926  1.00  0.00     0.021 C 
HETATM   13  C   UNL     1      39.897 -15.594   1.922  1.00  0.00     0.181 C 
HETATM   14  O   UNL     1      39.844 -14.573   2.930  1.00  0.00    -0.350 OA
HETATM   15  C   UNL     1      39.619 -13.328   2.379  1.00  0.00     0.077 A 
HETATM   16  C   UNL     1      39.960 -13.019   1.052  1.00  0.00    -0.024 A 
HETATM   17  C   UNL     1      39.081 -12.356   3.227  1.00  0.00     0.074 A 
HETATM   18  C   UNL     1      40.550 -14.057   0.129  1.00  0.00     0.048 C 
HETATM   19  C   UNL     1      39.722 -11.728   0.575  1.00  0.00     0.012 A 
HETATM   20  C   UNL     1      39.174 -10.762   1.420  1.00  0.00     0.037 A 
HETATM   21  C   UNL     1      38.848 -11.068   2.743  1.00  0.00     0.070 A 
BRANCH  21  22
HETATM   22  O   UNL     1      38.324 -10.024   3.452  1.00  0.00    -0.356 OA
HETATM   23  C   UNL     1      38.679  -9.922   4.824  1.00  0.00     0.210 C 
ENDBRANCH  21  22
ENDBRANCH  11  12
ENDBRANCH   3  11
BRANCH   1  24
HETATM   24  N   UNL     1      44.111 -19.306   2.880  1.00  0.00    -0.281 NA
HETATM   25  C   UNL     1      43.298 -20.178   2.046  1.00  0.00     0.114 C 
HETATM   26  H   UNL     1      44.486 -19.798   3.688  1.00  0.00     0.128 HD
ENDBRANCH   1  24
TORSDOF 4
ENDMDL
