MODEL 1
REMARK VINA RESULT:      -8.2      0.000      0.000
REMARK  6 active torsions:
REMARK  status: ('A' for Active; 'I' for Inactive)
REMARK    1  A    between atoms: C_4  and  C_5 
REMARK    2  A    between atoms: C_5  and  N_6 
REMARK    3  A    between atoms: C_5  and  C_19 
REMARK       I    between atoms: N_6  and  C_7 
REMARK    4  A    between atoms: C_7  and  C_8 
REMARK       I    between atoms: C_19  and  N_20 
REMARK    5  A    between atoms: N_20  and  C_21 
REMARK    6  A    between atoms: C_21  and  C_22 
ROOT
HETATM    1  C   UNL     1      42.702 -13.102   6.840  1.00  0.00     0.210 C 
ENDROOT
BRANCH   1   2
HETATM    2  C   UNL     1      43.890 -12.179   7.080  1.00  0.00    -0.026 A 
HETATM    3  C   UNL     1      43.935 -11.374   8.231  1.00  0.00     0.010 A 
HETATM    4  C   UNL     1      45.026 -10.533   8.470  1.00  0.00     0.001 A 
HETATM    5  C   UNL     1      46.079 -10.477   7.561  1.00  0.00     0.000 A 
HETATM    6  C   UNL     1      46.042 -11.256   6.408  1.00  0.00     0.001 A 
HETATM    7  C   UNL     1      44.955 -12.098   6.168  1.00  0.00     0.010 A 
ENDBRANCH   1   2
BRANCH   1   8
HETATM    8  N   UNL     1      41.908 -12.693   5.678  1.00  0.00    -0.340 N 
HETATM    9  C   UNL     1      40.578 -12.972   5.498  1.00  0.00     0.253 C 
HETATM   10  O   UNL     1      39.843 -13.353   6.403  1.00  0.00    -0.268 OA
HETATM   11  H   UNL     1      42.422 -12.280   4.913  1.00  0.00     0.164 HD
BRANCH   9  12
HETATM   12  C   UNL     1      40.012 -12.685   4.163  1.00  0.00     0.047 A 
HETATM   13  C   UNL     1      39.984 -13.626   3.114  1.00  0.00     0.027 A 
HETATM   14  C   UNL     1      39.441 -13.190   1.908  1.00  0.00     0.138 A 
HETATM   15  C   UNL     1      40.341 -14.994   2.913  1.00  0.00     0.033 A 
HETATM   16  N   UNL     1      39.506 -14.217   1.008  1.00  0.00    -0.350 N 
HETATM   17  N   UNL     1      38.924 -11.981   1.628  1.00  0.00    -0.242 NA
HETATM   18  H   UNL     1      39.173 -14.148   0.057  1.00  0.00     0.166 HD
HETATM   19  C   UNL     1      40.051 -15.323   1.606  1.00  0.00     0.090 A 
HETATM   20  C   UNL     1      38.939 -11.135   2.680  1.00  0.00     0.120 A 
HETATM   21  C   UNL     1      39.453 -11.422   3.934  1.00  0.00     0.037 A 
ENDBRANCH   9  12
ENDBRANCH   1   8
BRANCH   1  22
HETATM   22  C   UNL     1      43.064 -14.606   7.002  1.00  0.00     0.245 C 
HETATM   23  N   UNL     1      43.325 -15.315   5.850  1.00  0.00    -0.354 N 
HETATM   24  H   UNL     1      43.511 -14.756   5.016  1.00  0.00     0.162 HD
HETATM   25  O   UNL     1      43.220 -15.108   8.119  1.00  0.00    -0.271 OA
BRANCH  23  26
HETATM   26  C   UNL     1      44.009 -16.583   5.946  1.00  0.00     0.168 C 
BRANCH  26  27
HETATM   27  C   UNL     1      43.871 -17.372   4.684  1.00  0.00     0.000 A 
HETATM   28  S   UNL     1      44.323 -19.026   4.612  1.00  0.00    -0.105 SA
HETATM   29  C   UNL     1      43.823 -19.162   2.984  1.00  0.00     0.050 A 
HETATM   30  C   UNL     1      43.300 -17.984   2.503  1.00  0.00     0.008 A 
HETATM   31  C   UNL     1      43.331 -16.950   3.483  1.00  0.00     0.017 A 
ENDBRANCH  26  27
ENDBRANCH  23  26
ENDBRANCH   1  22
TORSDOF 6
ENDMDL
MODEL 2
REMARK VINA RESULT:      -8.1      2.800      7.220
REMARK  6 active torsions:
REMARK  status: ('A' for Active; 'I' for Inactive)
REMARK    1  A    between atoms: C_4  and  C_5 
REMARK    2  A    between atoms: C_5  and  N_6 
REMARK    3  A    between atoms: C_5  and  C_19 
REMARK       I    between atoms: N_6  and  C_7 
REMARK    4  A    between atoms: C_7  and  C_8 
REMARK       I    between atoms: C_19  and  N_20 
REMARK    5  A    between atoms: N_20  and  C_21 
REMARK    6  A    between atoms: C_21  and  C_22 
ROOT
HETATM    1  C   UNL     1      41.029 -14.394   3.976  1.00  0.00     0.210 C 
ENDROOT
BRANCH   1   2
HETATM    2  C   UNL     1      40.704 -14.465   2.490  1.00  0.00    -0.026 A 
HETATM    3  C   UNL     1      40.052 -15.593   1.963  1.00  0.00     0.010 A 
HETATM    4  C   UNL     1      39.735 -15.665   0.604  1.00  0.00     0.001 A 
HETATM    5  C   UNL     1      40.073 -14.617  -0.249  1.00  0.00     0.000 A 
HETATM    6  C   UNL     1      40.734 -13.500   0.253  1.00  0.00     0.001 A 
HETATM    7  C   UNL     1      41.049 -13.425   1.610  1.00  0.00     0.010 A 
ENDBRANCH   1   2
BRANCH   1   8
HETATM    8  N   UNL     1      41.704 -15.603   4.454  1.00  0.00    -0.340 N 
HETATM    9  C   UNL     1      42.815 -16.164   3.878  1.00  0.00     0.253 C 
HETATM   10  O   UNL     1      43.523 -15.571   3.070  1.00  0.00    -0.268 OA
HETATM   11  H   UNL     1      41.235 -16.111   5.190  1.00  0.00     0.164 HD
BRANCH   9  12
HETATM   12  C   UNL     1      43.209 -17.505   4.357  1.00  0.00     0.047 A 
HETATM   13  C   UNL     1      43.380 -18.613   3.502  1.00  0.00     0.027 A 
HETATM   14  C   UNL     1      43.727 -19.816   4.115  1.00  0.00     0.138 A 
HETATM   15  C   UNL     1      43.333 -18.884   2.102  1.00  0.00     0.033 A 
HETATM   16  N   UNL     1      43.837 -20.776   3.148  1.00  0.00    -0.350 N 
HETATM   17  N   UNL     1      43.934 -20.043   5.423  1.00  0.00    -0.242 NA
HETATM   18  H   UNL     1      44.081 -21.738   3.341  1.00  0.00     0.166 HD
HETATM   19  C   UNL     1      43.601 -20.224   1.916  1.00  0.00     0.090 A 
HETATM   20  C   UNL     1      43.796 -18.938   6.187  1.00  0.00     0.120 A 
HETATM   21  C   UNL     1      43.447 -17.680   5.725  1.00  0.00     0.037 A 
ENDBRANCH   9  12
ENDBRANCH   1   8
BRANCH   1  22
HETATM   22  C   UNL     1      41.591 -13.008   4.405  1.00  0.00     0.245 C 
HETATM   23  N   UNL     1      42.962 -12.863   4.411  1.00  0.00    -0.354 N 
HETATM   24  H   UNL     1      43.487 -13.574   3.901  1.00  0.00     0.162 HD
HETATM   25  O   UNL     1      40.840 -12.052   4.618  1.00  0.00    -0.271 OA
BRANCH  23  26
HETATM   26  C   UNL     1      43.526 -11.535   4.440  1.00  0.00     0.168 C 
BRANCH  26  27
HETATM   27  C   UNL     1      44.070 -11.205   5.793  1.00  0.00     0.000 A 
HETATM   28  S   UNL     1      43.085 -10.484   6.999  1.00  0.00    -0.105 SA
HETATM   29  C   UNL     1      44.352 -10.509   8.146  1.00  0.00     0.050 A 
HETATM   30  C   UNL     1      45.499 -11.073   7.637  1.00  0.00     0.008 A 
HETATM   31  C   UNL     1      45.337 -11.471   6.278  1.00  0.00     0.017 A 
ENDBRANCH  26  27
ENDBRANCH  23  26
ENDBRANCH   1  22
TORSDOF 6
ENDMDL
MODEL 3
REMARK VINA RESULT:      -8.1      3.354      6.561
REMARK  6 active torsions:
REMARK  status: ('A' for Active; 'I' for Inactive)
REMARK    1  A    between atoms: C_4  and  C_5 
REMARK    2  A    between atoms: C_5  and  N_6 
REMARK    3  A    between atoms: C_5  and  C_19 
REMARK       I    between atoms: N_6  and  C_7 
REMARK    4  A    between atoms: C_7  and  C_8 
REMARK       I    between atoms: C_19  and  N_20 
REMARK    5  A    between atoms: N_20  and  C_21 
REMARK    6  A    between atoms: C_21  and  C_22 
ROOT
HETATM    1  C   UNL     1      42.821 -14.304   3.387  1.00  0.00     0.210 C 
ENDROOT
BRANCH   1   2
HETATM    2  C   UNL     1      43.210 -13.441   4.581  1.00  0.00    -0.026 A 
HETATM    3  C   UNL     1      43.311 -14.013   5.861  1.00  0.00     0.010 A 
HETATM    4  C   UNL     1      43.680 -13.235   6.962  1.00  0.00     0.001 A 
HETATM    5  C   UNL     1      43.943 -11.877   6.803  1.00  0.00     0.000 A 
HETATM    6  C   UNL     1      43.831 -11.292   5.545  1.00  0.00     0.001 A 
HETATM    7  C   UNL     1      43.465 -12.067   4.443  1.00  0.00     0.010 A 
ENDBRANCH   1   2
BRANCH   1   8
HETATM    8  N   UNL     1      43.201 -15.706   3.569  1.00  0.00    -0.340 N 
HETATM    9  C   UNL     1      43.304 -16.630   2.561  1.00  0.00     0.253 C 
HETATM   10  O   UNL     1      43.355 -16.325   1.374  1.00  0.00    -0.268 OA
HETATM   11  H   UNL     1      43.275 -16.026   4.524  1.00  0.00     0.164 HD
BRANCH   9  12
HETATM   12  C   UNL     1      43.467 -18.042   2.965  1.00  0.00     0.047 A 
HETATM   13  C   UNL     1      43.542 -18.460   4.309  1.00  0.00     0.027 A 
HETATM   14  C   UNL     1      43.724 -19.825   4.522  1.00  0.00     0.138 A 
HETATM   15  C   UNL     1      43.449 -17.868   5.605  1.00  0.00     0.033 A 
HETATM   16  N   UNL     1      43.788 -20.047   5.870  1.00  0.00    -0.350 N 
HETATM   17  N   UNL     1      43.822 -20.796   3.597  1.00  0.00    -0.242 NA
HETATM   18  H   UNL     1      43.916 -20.961   6.279  1.00  0.00     0.166 HD
HETATM   19  C   UNL     1      43.621 -18.865   6.543  1.00  0.00     0.090 A 
HETATM   20  C   UNL     1      43.701 -20.343   2.331  1.00  0.00     0.120 A 
HETATM   21  C   UNL     1      43.527 -19.019   1.964  1.00  0.00     0.037 A 
ENDBRANCH   9  12
ENDBRANCH   1   8
BRANCH   1  22
HETATM   22  C   UNL     1      41.397 -13.982   2.849  1.00  0.00     0.245 C 
HETATM   23  N   UNL     1      41.218 -14.025   1.484  1.00  0.00    -0.354 N 
HETATM   24  H   UNL     1      41.949 -14.503   0.954  1.00  0.00     0.162 HD
HETATM   25  O   UNL     1      40.447 -13.810   3.619  1.00  0.00    -0.271 OA
BRANCH  23  26
HETATM   26  C   UNL     1      39.879 -14.099   0.952  1.00  0.00     0.168 C 
BRANCH  26  27
HETATM   27  C   UNL     1      39.860 -13.819  -0.516  1.00  0.00     0.000 A 
HETATM   28  S   UNL     1      40.659 -12.451  -1.174  1.00  0.00    -0.105 SA
HETATM   29  C   UNL     1      40.235 -12.886  -2.771  1.00  0.00     0.050 A 
HETATM   30  C   UNL     1      39.519 -14.060  -2.815  1.00  0.00     0.008 A 
HETATM   31  C   UNL     1      39.300 -14.596  -1.513  1.00  0.00     0.017 A 
ENDBRANCH  26  27
ENDBRANCH  23  26
ENDBRANCH   1  22
TORSDOF 6
ENDMDL
MODEL 4
REMARK VINA RESULT:      -8.1      2.466      6.035
REMARK  6 active torsions:
REMARK  status: ('A' for Active; 'I' for Inactive)
REMARK    1  A    between atoms: C_4  and  C_5 
REMARK    2  A    between atoms: C_5  and  N_6 
REMARK    3  A    between atoms: C_5  and  C_19 
REMARK       I    between atoms: N_6  and  C_7 
REMARK    4  A    between atoms: C_7  and  C_8 
REMARK       I    between atoms: C_19  and  N_20 
REMARK    5  A    between atoms: N_20  and  C_21 
REMARK    6  A    between atoms: C_21  and  C_22 
ROOT
HETATM    1  C   UNL     1      43.217 -16.376   3.644  1.00  0.00     0.210 C 
ENDROOT
BRANCH   1   2
HETATM    2  C   UNL     1      43.405 -17.875   3.456  1.00  0.00    -0.026 A 
HETATM    3  C   UNL     1      43.992 -18.645   4.475  1.00  0.00     0.010 A 
HETATM    4  C   UNL     1      44.158 -20.024   4.320  1.00  0.00     0.001 A 
HETATM    5  C   UNL     1      43.751 -20.652   3.146  1.00  0.00     0.000 A 
HETATM    6  C   UNL     1      43.183 -19.901   2.120  1.00  0.00     0.001 A 
HETATM    7  C   UNL     1      43.014 -18.524   2.273  1.00  0.00     0.010 A 
ENDBRANCH   1   2
BRANCH   1   8
HETATM    8  N   UNL     1      42.400 -15.782   2.583  1.00  0.00    -0.340 N 
HETATM    9  C   UNL     1      42.545 -14.507   2.099  1.00  0.00     0.253 C 
HETATM   10  O   UNL     1      43.540 -13.820   2.306  1.00  0.00    -0.268 OA
HETATM   11  H   UNL     1      41.604 -16.324   2.280  1.00  0.00     0.164 HD
BRANCH   9  12
HETATM   12  C   UNL     1      41.482 -14.009   1.201  1.00  0.00     0.047 A 
HETATM   13  C   UNL     1      41.148 -12.646   1.077  1.00  0.00     0.027 A 
HETATM   14  C   UNL     1      40.102 -12.344   0.207  1.00  0.00     0.138 A 
HETATM   15  C   UNL     1      41.611 -11.395   1.586  1.00  0.00     0.033 A 
HETATM   16  N   UNL     1      39.906 -10.991   0.221  1.00  0.00    -0.350 N 
HETATM   17  N   UNL     1      39.383 -13.198  -0.542  1.00  0.00    -0.242 NA
HETATM   18  H   UNL     1      39.201 -10.524  -0.331  1.00  0.00     0.166 HD
HETATM   19  C   UNL     1      40.818 -10.399   1.055  1.00  0.00     0.090 A 
HETATM   20  C   UNL     1      39.775 -14.483  -0.414  1.00  0.00     0.120 A 
HETATM   21  C   UNL     1      40.788 -14.936   0.415  1.00  0.00     0.037 A 
ENDBRANCH   9  12
ENDBRANCH   1   8
BRANCH   1  22
HETATM   22  C   UNL     1      42.918 -15.986   5.120  1.00  0.00     0.245 C 
HETATM   23  N   UNL     1      43.838 -15.180   5.754  1.00  0.00    -0.354 N 
HETATM   24  H   UNL     1      44.502 -14.699   5.145  1.00  0.00     0.162 HD
HETATM   25  O   UNL     1      41.849 -16.291   5.657  1.00  0.00    -0.271 OA
BRANCH  23  26
HETATM   26  C   UNL     1      43.456 -14.495   6.965  1.00  0.00     0.168 C 
BRANCH  26  27
HETATM   27  C   UNL     1      43.399 -13.016   6.759  1.00  0.00     0.000 A 
HETATM   28  S   UNL     1      42.362 -12.318   5.583  1.00  0.00    -0.105 SA
HETATM   29  C   UNL     1      42.825 -10.731   6.017  1.00  0.00     0.050 A 
HETATM   30  C   UNL     1      43.734 -10.722   7.050  1.00  0.00     0.008 A 
HETATM   31  C   UNL     1      44.067 -12.040   7.476  1.00  0.00     0.017 A 
ENDBRANCH  26  27
ENDBRANCH  23  26
ENDBRANCH   1  22
TORSDOF 6
ENDMDL
MODEL 5
REMARK VINA RESULT:      -8.0      3.543      6.704
REMARK  6 active torsions:
REMARK  status: ('A' for Active; 'I' for Inactive)
REMARK    1  A    between atoms: C_4  and  C_5 
REMARK    2  A    between atoms: C_5  and  N_6 
REMARK    3  A    between atoms: C_5  and  C_19 
REMARK       I    between atoms: N_6  and  C_7 
REMARK    4  A    between atoms: C_7  and  C_8 
REMARK       I    between atoms: C_19  and  N_20 
REMARK    5  A    between atoms: N_20  and  C_21 
REMARK    6  A    between atoms: C_21  and  C_22 
ROOT
HETATM    1  C   UNL     1      42.222 -13.864   2.820  1.00  0.00     0.210 C 
ENDROOT
BRANCH   1   2
HETATM    2  C   UNL     1      42.207 -12.648   3.735  1.00  0.00    -0.026 A 
HETATM    3  C   UNL     1      42.065 -12.812   5.124  1.00  0.00     0.010 A 
HETATM    4  C   UNL     1      42.064 -11.704   5.976  1.00  0.00     0.001 A 
HETATM    5  C   UNL     1      42.195 -10.419   5.455  1.00  0.00     0.000 A 
HETATM    6  C   UNL     1      42.320 -10.238   4.080  1.00  0.00     0.001 A 
HETATM    7  C   UNL     1      42.324 -11.343   3.227  1.00  0.00     0.010 A 
ENDBRANCH   1   2
BRANCH   1   8
HETATM    8  N   UNL     1      42.748 -15.056   3.489  1.00  0.00    -0.340 N 
HETATM    9  C   UNL     1      43.253 -16.159   2.849  1.00  0.00     0.253 C 
HETATM   10  O   UNL     1      43.571 -16.161   1.665  1.00  0.00    -0.268 OA
HETATM   11  H   UNL     1      42.612 -15.100   4.488  1.00  0.00     0.164 HD
BRANCH   9  12
HETATM   12  C   UNL     1      43.514 -17.352   3.682  1.00  0.00     0.047 A 
HETATM   13  C   UNL     1      43.602 -18.658   3.160  1.00  0.00     0.027 A 
HETATM   14  C   UNL     1      43.827 -19.677   4.083  1.00  0.00     0.138 A 
HETATM   15  C   UNL     1      43.559 -19.288   1.880  1.00  0.00     0.033 A 
HETATM   16  N   UNL     1      43.870 -20.867   3.410  1.00  0.00    -0.350 N 
HETATM   17  N   UNL     1      43.986 -19.563   5.413  1.00  0.00    -0.242 NA
HETATM   18  H   UNL     1      44.021 -21.758   3.861  1.00  0.00     0.166 HD
HETATM   19  C   UNL     1      43.709 -20.646   2.067  1.00  0.00     0.090 A 
HETATM   20  C   UNL     1      43.933 -18.287   5.850  1.00  0.00     0.120 A 
HETATM   21  C   UNL     1      43.708 -17.173   5.057  1.00  0.00     0.037 A 
ENDBRANCH   9  12
ENDBRANCH   1   8
BRANCH   1  22
HETATM   22  C   UNL     1      40.923 -13.998   1.973  1.00  0.00     0.245 C 
HETATM   23  N   UNL     1      41.041 -14.588   0.734  1.00  0.00    -0.354 N 
HETATM   24  H   UNL     1      41.901 -15.113   0.571  1.00  0.00     0.162 HD
HETATM   25  O   UNL     1      39.822 -13.693   2.441  1.00  0.00    -0.271 OA
BRANCH  23  26
HETATM   26  C   UNL     1      39.853 -15.066   0.068  1.00  0.00     0.168 C 
BRANCH  26  27
HETATM   27  C   UNL     1      39.585 -14.296  -1.185  1.00  0.00     0.000 A 
HETATM   28  S   UNL     1      40.104 -12.669  -1.361  1.00  0.00    -0.105 SA
HETATM   29  C   UNL     1      39.508 -12.581  -2.960  1.00  0.00     0.050 A 
HETATM   30  C   UNL     1      38.943 -13.767  -3.369  1.00  0.00     0.008 A 
HETATM   31  C   UNL     1      38.985 -14.755  -2.343  1.00  0.00     0.017 A 
ENDBRANCH  26  27
ENDBRANCH  23  26
ENDBRANCH   1  22
TORSDOF 6
ENDMDL
MODEL 6
REMARK VINA RESULT:      -8.0      3.079      4.075
REMARK  6 active torsions:
REMARK  status: ('A' for Active; 'I' for Inactive)
REMARK    1  A    between atoms: C_4  and  C_5 
REMARK    2  A    between atoms: C_5  and  N_6 
REMARK    3  A    between atoms: C_5  and  C_19 
REMARK       I    between atoms: N_6  and  C_7 
REMARK    4  A    between atoms: C_7  and  C_8 
REMARK       I    between atoms: C_19  and  N_20 
REMARK    5  A    between atoms: N_20  and  C_21 
REMARK    6  A    between atoms: C_21  and  C_22 
ROOT
HETATM    1  C   UNL     1      41.979 -14.375   2.849  1.00  0.00     0.210 C 
ENDROOT
BRANCH   1   2
HETATM    2  C   UNL     1      42.705 -13.441   3.808  1.00  0.00    -0.026 A 
HETATM    3  C   UNL     1      42.964 -13.849   5.128  1.00  0.00     0.010 A 
HETATM    4  C   UNL     1      43.641 -13.007   6.014  1.00  0.00     0.001 A 
HETATM    5  C   UNL     1      44.060 -11.745   5.599  1.00  0.00     0.000 A 
HETATM    6  C   UNL     1      43.796 -11.319   4.300  1.00  0.00     0.001 A 
HETATM    7  C   UNL     1      43.122 -12.160   3.413  1.00  0.00     0.010 A 
ENDBRANCH   1   2
BRANCH   1   8
HETATM    8  N   UNL     1      41.161 -13.646   1.877  1.00  0.00    -0.340 N 
HETATM    9  C   UNL     1      40.322 -14.228   0.961  1.00  0.00     0.253 C 
HETATM   10  O   UNL     1      39.959 -15.397   1.032  1.00  0.00    -0.268 OA
HETATM   11  H   UNL     1      41.328 -12.652   1.814  1.00  0.00     0.164 HD
BRANCH   9  12
HETATM   12  C   UNL     1      39.764 -13.347  -0.086  1.00  0.00     0.047 A 
HETATM   13  C   UNL     1      39.269 -13.823  -1.317  1.00  0.00     0.027 A 
HETATM   14  C   UNL     1      38.802 -12.859  -2.208  1.00  0.00     0.138 A 
HETATM   15  C   UNL     1      39.060 -15.083  -1.954  1.00  0.00     0.033 A 
HETATM   16  N   UNL     1      38.377 -13.491  -3.343  1.00  0.00    -0.350 N 
HETATM   17  N   UNL     1      38.752 -11.528  -2.028  1.00  0.00    -0.242 NA
HETATM   18  H   UNL     1      37.992 -13.006  -4.142  1.00  0.00     0.166 HD
HETATM   19  C   UNL     1      38.526 -14.846  -3.204  1.00  0.00     0.090 A 
HETATM   20  C   UNL     1      39.200 -11.134  -0.817  1.00  0.00     0.120 A 
HETATM   21  C   UNL     1      39.702 -11.971   0.166  1.00  0.00     0.037 A 
ENDBRANCH   9  12
ENDBRANCH   1   8
BRANCH   1  22
HETATM   22  C   UNL     1      42.880 -15.537   2.340  1.00  0.00     0.245 C 
HETATM   23  N   UNL     1      42.537 -16.813   2.729  1.00  0.00    -0.354 N 
HETATM   24  H   UNL     1      41.592 -16.926   3.101  1.00  0.00     0.162 HD
HETATM   25  O   UNL     1      43.791 -15.332   1.532  1.00  0.00    -0.271 OA
BRANCH  23  26
HETATM   26  C   UNL     1      43.091 -17.938   2.016  1.00  0.00     0.168 C 
BRANCH  26  27
HETATM   27  C   UNL     1      43.547 -19.008   2.956  1.00  0.00     0.000 A 
HETATM   28  S   UNL     1      44.152 -18.626   4.515  1.00  0.00    -0.105 SA
HETATM   29  C   UNL     1      44.359 -20.275   4.913  1.00  0.00     0.050 A 
HETATM   30  C   UNL     1      43.957 -21.107   3.894  1.00  0.00     0.008 A 
HETATM   31  C   UNL     1      43.491 -20.376   2.764  1.00  0.00     0.017 A 
ENDBRANCH  26  27
ENDBRANCH  23  26
ENDBRANCH   1  22
TORSDOF 6
ENDMDL
MODEL 7
REMARK VINA RESULT:      -7.9      2.622      5.972
REMARK  6 active torsions:
REMARK  status: ('A' for Active; 'I' for Inactive)
REMARK    1  A    between atoms: C_4  and  C_5 
REMARK    2  A    between atoms: C_5  and  N_6 
REMARK    3  A    between atoms: C_5  and  C_19 
REMARK       I    between atoms: N_6  and  C_7 
REMARK    4  A    between atoms: C_7  and  C_8 
REMARK       I    between atoms: C_19  and  N_20 
REMARK    5  A    between atoms: N_20  and  C_21 
REMARK    6  A    between atoms: C_21  and  C_22 
ROOT
HETATM    1  C   UNL     1      42.782 -15.047   3.202  1.00  0.00     0.210 C 
ENDROOT
BRANCH   1   2
HETATM    2  C   UNL     1      43.152 -16.523   3.245  1.00  0.00    -0.026 A 
HETATM    3  C   UNL     1      43.878 -17.037   4.334  1.00  0.00     0.010 A 
HETATM    4  C   UNL     1      44.213 -18.392   4.392  1.00  0.00     0.001 A 
HETATM    5  C   UNL     1      43.838 -19.251   3.362  1.00  0.00     0.000 A 
HETATM    6  C   UNL     1      43.133 -18.755   2.268  1.00  0.00     0.001 A 
HETATM    7  C   UNL     1      42.796 -17.402   2.209  1.00  0.00     0.010 A 
ENDBRANCH   1   2
BRANCH   1   8
HETATM    8  N   UNL     1      41.916 -14.725   2.065  1.00  0.00    -0.340 N 
HETATM    9  C   UNL     1      41.570 -13.457   1.674  1.00  0.00     0.253 C 
HETATM   10  O   UNL     1      42.159 -12.452   2.059  1.00  0.00    -0.268 OA
HETATM   11  H   UNL     1      41.456 -15.507   1.622  1.00  0.00     0.164 HD
BRANCH   9  12
HETATM   12  C   UNL     1      40.504 -13.340   0.657  1.00  0.00     0.047 A 
HETATM   13  C   UNL     1      39.390 -12.487   0.796  1.00  0.00     0.027 A 
HETATM   14  C   UNL     1      38.460 -12.514  -0.240  1.00  0.00     0.138 A 
HETATM   15  C   UNL     1      38.914 -11.516   1.728  1.00  0.00     0.033 A 
HETATM   16  N   UNL     1      37.449 -11.645   0.064  1.00  0.00    -0.350 N 
HETATM   17  N   UNL     1      38.505 -13.245  -1.368  1.00  0.00    -0.242 NA
HETATM   18  H   UNL     1      36.651 -11.485  -0.534  1.00  0.00     0.166 HD
HETATM   19  C   UNL     1      37.712 -11.029   1.260  1.00  0.00     0.090 A 
HETATM   20  C   UNL     1      39.613 -14.011  -1.465  1.00  0.00     0.120 A 
HETATM   21  C   UNL     1      40.617 -14.097  -0.515  1.00  0.00     0.037 A 
ENDBRANCH   9  12
ENDBRANCH   1   8
BRANCH   1  22
HETATM   22  C   UNL     1      42.415 -14.476   4.602  1.00  0.00     0.245 C 
HETATM   23  N   UNL     1      43.140 -13.392   5.046  1.00  0.00    -0.354 N 
HETATM   24  H   UNL     1      43.678 -12.894   4.334  1.00  0.00     0.162 HD
HETATM   25  O   UNL     1      41.443 -14.904   5.232  1.00  0.00    -0.271 OA
BRANCH  23  26
HETATM   26  C   UNL     1      42.625 -12.603   6.139  1.00  0.00     0.168 C 
BRANCH  26  27
HETATM   27  C   UNL     1      43.686 -11.727   6.724  1.00  0.00     0.000 A 
HETATM   28  S   UNL     1      43.287 -10.312   7.609  1.00  0.00    -0.105 SA
HETATM   29  C   UNL     1      44.928  -9.976   7.946  1.00  0.00     0.050 A 
HETATM   30  C   UNL     1      45.769 -10.929   7.419  1.00  0.00     0.008 A 
HETATM   31  C   UNL     1      45.053 -11.937   6.711  1.00  0.00     0.017 A 
ENDBRANCH  26  27
ENDBRANCH  23  26
ENDBRANCH   1  22
TORSDOF 6
ENDMDL
MODEL 8
REMARK VINA RESULT:      -7.9      2.183      3.091
REMARK  6 active torsions:
REMARK  status: ('A' for Active; 'I' for Inactive)
REMARK    1  A    between atoms: C_4  and  C_5 
REMARK    2  A    between atoms: C_5  and  N_6 
REMARK    3  A    between atoms: C_5  and  C_19 
REMARK       I    between atoms: N_6  and  C_7 
REMARK    4  A    between atoms: C_7  and  C_8 
REMARK       I    between atoms: C_19  and  N_20 
REMARK    5  A    between atoms: N_20  and  C_21 
REMARK    6  A    between atoms: C_21  and  C_22 
ROOT
HETATM    1  C   UNL     1      41.948 -14.401   4.522  1.00  0.00     0.210 C 
ENDROOT
BRANCH   1   2
HETATM    2  C   UNL     1      42.818 -13.342   5.186  1.00  0.00    -0.026 A 
HETATM    3  C   UNL     1      43.206 -13.488   6.529  1.00  0.00     0.010 A 
HETATM    4  C   UNL     1      44.016 -12.531   7.146  1.00  0.00     0.001 A 
HETATM    5  C   UNL     1      44.441 -11.411   6.435  1.00  0.00     0.000 A 
HETATM    6  C   UNL     1      44.052 -11.242   5.109  1.00  0.00     0.001 A 
HETATM    7  C   UNL     1      43.245 -12.198   4.491  1.00  0.00     0.010 A 
ENDBRANCH   1   2
BRANCH   1   8
HETATM    8  N   UNL     1      41.680 -14.096   3.115  1.00  0.00    -0.340 N 
HETATM    9  C   UNL     1      40.465 -13.705   2.613  1.00  0.00     0.253 C 
HETATM   10  O   UNL     1      39.545 -13.305   3.318  1.00  0.00    -0.268 OA
HETATM   11  H   UNL     1      42.423 -14.308   2.465  1.00  0.00     0.164 HD
BRANCH   9  12
HETATM   12  C   UNL     1      40.331 -13.673   1.141  1.00  0.00     0.047 A 
HETATM   13  C   UNL     1      40.679 -12.555   0.356  1.00  0.00     0.027 A 
HETATM   14  C   UNL     1      40.467 -12.676  -1.016  1.00  0.00     0.138 A 
HETATM   15  C   UNL     1      41.251 -11.263   0.553  1.00  0.00     0.033 A 
HETATM   16  N   UNL     1      40.843 -11.506  -1.616  1.00  0.00    -0.350 N 
HETATM   17  N   UNL     1      39.984 -13.739  -1.684  1.00  0.00    -0.242 NA
HETATM   18  H   UNL     1      40.784 -11.345  -2.611  1.00  0.00     0.166 HD
HETATM   19  C   UNL     1      41.324 -10.636  -0.673  1.00  0.00     0.090 A 
HETATM   20  C   UNL     1      39.708 -14.792  -0.886  1.00  0.00     0.120 A 
HETATM   21  C   UNL     1      39.857 -14.818   0.491  1.00  0.00     0.037 A 
ENDBRANCH   9  12
ENDBRANCH   1   8
BRANCH   1  22
HETATM   22  C   UNL     1      42.365 -15.850   4.903  1.00  0.00     0.245 C 
HETATM   23  N   UNL     1      43.573 -16.303   4.417  1.00  0.00    -0.354 N 
HETATM   24  H   UNL     1      44.208 -15.585   4.066  1.00  0.00     0.162 HD
HETATM   25  O   UNL     1      41.698 -16.519   5.698  1.00  0.00    -0.271 OA
BRANCH  23  26
HETATM   26  C   UNL     1      44.178 -17.468   5.016  1.00  0.00     0.168 C 
BRANCH  26  27
HETATM   27  C   UNL     1      44.054 -18.663   4.127  1.00  0.00     0.000 A 
HETATM   28  S   UNL     1      44.324 -20.250   4.722  1.00  0.00    -0.105 SA
HETATM   29  C   UNL     1      43.943 -20.955   3.213  1.00  0.00     0.050 A 
HETATM   30  C   UNL     1      43.594 -20.011   2.274  1.00  0.00     0.008 A 
HETATM   31  C   UNL     1      43.662 -18.688   2.801  1.00  0.00     0.017 A 
ENDBRANCH  26  27
ENDBRANCH  23  26
ENDBRANCH   1  22
TORSDOF 6
ENDMDL
MODEL 9
REMARK VINA RESULT:      -7.9      2.528      5.627
REMARK  6 active torsions:
REMARK  status: ('A' for Active; 'I' for Inactive)
REMARK    1  A    between atoms: C_4  and  C_5 
REMARK    2  A    between atoms: C_5  and  N_6 
REMARK    3  A    between atoms: C_5  and  C_19 
REMARK       I    between atoms: N_6  and  C_7 
REMARK    4  A    between atoms: C_7  and  C_8 
REMARK       I    between atoms: C_19  and  N_20 
REMARK    5  A    between atoms: N_20  and  C_21 
REMARK    6  A    between atoms: C_21  and  C_22 
ROOT
HETATM    1  C   UNL     1      42.962 -14.822   3.839  1.00  0.00     0.210 C 
ENDROOT
BRANCH   1   2
HETATM    2  C   UNL     1      43.220 -16.299   3.577  1.00  0.00    -0.026 A 
HETATM    3  C   UNL     1      43.980 -17.055   4.486  1.00  0.00     0.010 A 
HETATM    4  C   UNL     1      44.213 -18.415   4.265  1.00  0.00     0.001 A 
HETATM    5  C   UNL     1      43.700 -19.037   3.129  1.00  0.00     0.000 A 
HETATM    6  C   UNL     1      42.959 -18.299   2.210  1.00  0.00     0.001 A 
HETATM    7  C   UNL     1      42.723 -16.941   2.430  1.00  0.00     0.010 A 
ENDBRANCH   1   2
BRANCH   1   8
HETATM    8  N   UNL     1      41.956 -14.264   2.931  1.00  0.00    -0.340 N 
HETATM    9  C   UNL     1      41.929 -12.966   2.489  1.00  0.00     0.253 C 
HETATM   10  O   UNL     1      42.886 -12.206   2.583  1.00  0.00    -0.268 OA
HETATM   11  H   UNL     1      41.169 -14.861   2.721  1.00  0.00     0.164 HD
BRANCH   9  12
HETATM   12  C   UNL     1      40.711 -12.532   1.773  1.00  0.00     0.047 A 
HETATM   13  C   UNL     1      40.178 -13.219   0.664  1.00  0.00     0.027 A 
HETATM   14  C   UNL     1      39.039 -12.664   0.084  1.00  0.00     0.138 A 
HETATM   15  C   UNL     1      40.454 -14.410  -0.073  1.00  0.00     0.033 A 
HETATM   16  N   UNL     1      38.670 -13.445  -0.976  1.00  0.00    -0.350 N 
HETATM   17  N   UNL     1      38.377 -11.557   0.466  1.00  0.00    -0.242 NA
HETATM   18  H   UNL     1      37.869 -13.250  -1.560  1.00  0.00     0.166 HD
HETATM   19  C   UNL     1      39.521 -14.513  -1.083  1.00  0.00     0.090 A 
HETATM   20  C   UNL     1      38.909 -10.965   1.557  1.00  0.00     0.120 A 
HETATM   21  C   UNL     1      40.039 -11.393   2.233  1.00  0.00     0.037 A 
ENDBRANCH   9  12
ENDBRANCH   1   8
BRANCH   1  22
HETATM   22  C   UNL     1      42.864 -14.486   5.355  1.00  0.00     0.245 C 
HETATM   23  N   UNL     1      43.664 -13.467   5.824  1.00  0.00    -0.354 N 
HETATM   24  H   UNL     1      44.062 -12.851   5.113  1.00  0.00     0.162 HD
HETATM   25  O   UNL     1      42.024 -15.032   6.077  1.00  0.00    -0.271 OA
BRANCH  23  26
HETATM   26  C   UNL     1      43.364 -12.871   7.104  1.00  0.00     0.168 C 
BRANCH  26  27
HETATM   27  C   UNL     1      44.316 -11.764   7.425  1.00  0.00     0.000 A 
HETATM   28  S   UNL     1      43.984 -10.637   8.676  1.00  0.00    -0.105 SA
HETATM   29  C   UNL     1      45.474  -9.833   8.440  1.00  0.00     0.050 A 
HETATM   30  C   UNL     1      46.225 -10.417   7.446  1.00  0.00     0.008 A 
HETATM   31  C   UNL     1      45.555 -11.529   6.858  1.00  0.00     0.017 A 
ENDBRANCH  26  27
ENDBRANCH  23  26
ENDBRANCH   1  22
TORSDOF 6
ENDMDL
MODEL 10
REMARK VINA RESULT:      -7.8      2.792      6.617
REMARK  6 active torsions:
REMARK  status: ('A' for Active; 'I' for Inactive)
REMARK    1  A    between atoms: C_4  and  C_5 
REMARK    2  A    between atoms: C_5  and  N_6 
REMARK    3  A    between atoms: C_5  and  C_19 
REMARK       I    between atoms: N_6  and  C_7 
REMARK    4  A    between atoms: C_7  and  C_8 
REMARK       I    between atoms: C_19  and  N_20 
REMARK    5  A    between atoms: N_20  and  C_21 
REMARK    6  A    between atoms: C_21  and  C_22 
ROOT
HETATM    1  C   UNL     1      41.159 -15.419   3.647  1.00  0.00     0.210 C 
ENDROOT
BRANCH   1   2
HETATM    2  C   UNL     1      42.218 -16.513   3.625  1.00  0.00    -0.026 A 
HETATM    3  C   UNL     1      43.085 -16.678   4.719  1.00  0.00     0.010 A 
HETATM    4  C   UNL     1      44.052 -17.687   4.717  1.00  0.00     0.001 A 
HETATM    5  C   UNL     1      44.174 -18.537   3.620  1.00  0.00     0.000 A 
HETATM    6  C   UNL     1      43.334 -18.377   2.522  1.00  0.00     0.001 A 
HETATM    7  C   UNL     1      42.366 -17.371   2.523  1.00  0.00     0.010 A 
ENDBRANCH   1   2
BRANCH   1   8
HETATM    8  N   UNL     1      41.620 -14.215   4.342  1.00  0.00    -0.340 N 
HETATM    9  C   UNL     1      41.056 -13.700   5.481  1.00  0.00     0.253 C 
HETATM   10  O   UNL     1      40.284 -14.333   6.193  1.00  0.00    -0.268 OA
HETATM   11  H   UNL     1      42.329 -13.674   3.869  1.00  0.00     0.164 HD
BRANCH   9  12
HETATM   12  C   UNL     1      41.507 -12.355   5.899  1.00  0.00     0.047 A 
HETATM   13  C   UNL     1      42.818 -12.079   6.336  1.00  0.00     0.027 A 
HETATM   14  C   UNL     1      43.075 -10.765   6.721  1.00  0.00     0.138 A 
HETATM   15  C   UNL     1      44.052 -12.781   6.483  1.00  0.00     0.033 A 
HETATM   16  N   UNL     1      44.379 -10.681   7.126  1.00  0.00    -0.350 N 
HETATM   17  N   UNL     1      42.226  -9.723   6.711  1.00  0.00    -0.242 NA
HETATM   18  H   UNL     1      44.808  -9.827   7.453  1.00  0.00     0.166 HD
HETATM   19  C   UNL     1      44.987 -11.901   6.985  1.00  0.00     0.090 A 
HETATM   20  C   UNL     1      40.999 -10.038   6.244  1.00  0.00     0.120 A 
HETATM   21  C   UNL     1      40.593 -11.297   5.835  1.00  0.00     0.037 A 
ENDBRANCH   9  12
ENDBRANCH   1   8
BRANCH   1  22
HETATM   22  C   UNL     1      40.430 -15.257   2.283  1.00  0.00     0.245 C 
HETATM   23  N   UNL     1      40.952 -14.339   1.398  1.00  0.00    -0.354 N 
HETATM   24  H   UNL     1      41.904 -14.026   1.592  1.00  0.00     0.162 HD
HETATM   25  O   UNL     1      39.496 -16.000   1.966  1.00  0.00    -0.271 OA
BRANCH  23  26
HETATM   26  C   UNL     1      40.560 -14.399   0.010  1.00  0.00     0.168 C 
BRANCH  26  27
HETATM   27  C   UNL     1      39.524 -13.369  -0.308  1.00  0.00     0.000 A 
HETATM   28  S   UNL     1      39.280 -12.007   0.707  1.00  0.00    -0.105 SA
HETATM   29  C   UNL     1      38.079 -11.367  -0.326  1.00  0.00     0.050 A 
HETATM   30  C   UNL     1      37.877 -12.156  -1.435  1.00  0.00     0.008 A 
HETATM   31  C   UNL     1      38.709 -13.313  -1.423  1.00  0.00     0.017 A 
ENDBRANCH  26  27
ENDBRANCH  23  26
ENDBRANCH   1  22
TORSDOF 6
ENDMDL
