MODEL 1
REMARK VINA RESULT:      -9.9      0.000      0.000
REMARK  7 active torsions:
REMARK  status: ('A' for Active; 'I' for Inactive)
REMARK    1  A    between atoms: C_3  and  C_4 
REMARK    2  A    between atoms: C_11  and  N_12 
REMARK       I    between atoms: N_12  and  C_13 
REMARK    3  A    between atoms: C_13  and  C_14 
REMARK    4  A    between atoms: C_21  and  C_22 
REMARK       I    between atoms: C_22  and  N_23 
REMARK    5  A    between atoms: N_23  and  C_24 
REMARK    6  A    between atoms: C_24  and  C_25 
REMARK    7  A    between atoms: C_25  and  C_26 
ROOT
HETATM    1  C   UNL     1      44.773 -16.259   6.727  1.00  0.00     0.158 C 
HETATM    2  N   UNL     1      43.905 -16.095   5.586  1.00  0.00    -0.335 N 
HETATM    3  C   UNL     1      43.638 -17.106   4.688  1.00  0.00     0.111 A 
HETATM    4  N   UNL     1      42.603 -16.811   3.935  1.00  0.00    -0.233 NA
HETATM    5  C   UNL     1      42.219 -15.557   4.323  1.00  0.00     0.089 A 
HETATM    6  C   UNL     1      43.062 -15.034   5.312  1.00  0.00     0.091 A 
HETATM    7  C   UNL     1      42.859 -13.744   5.835  1.00  0.00     0.065 A 
HETATM    8  C   UNL     1      41.714 -13.056   5.392  1.00  0.00     0.049 A 
HETATM    9  C   UNL     1      40.865 -13.567   4.404  1.00  0.00     0.036 A 
HETATM   10  C   UNL     1      41.117 -14.824   3.854  1.00  0.00     0.051 A 
ENDROOT
BRANCH   9  11
HETATM   11  C   UNL     1      39.702 -12.733   3.987  1.00  0.00     0.251 C 
HETATM   12  N   UNL     1      39.429 -12.657   2.637  1.00  0.00    -0.357 N 
HETATM   13  H   UNL     1      40.084 -13.027   1.963  1.00  0.00     0.162 HD
HETATM   14  O   UNL     1      39.056 -12.127   4.836  1.00  0.00    -0.268 OA
BRANCH  12  15
HETATM   15  C   UNL     1      38.346 -11.820   2.146  1.00  0.00     0.127 C 
BRANCH  15  16
HETATM   16  C   UNL     1      38.770 -10.962   0.951  1.00  0.00     0.060 C 
BRANCH  16  17
HETATM   17  C   UNL     1      39.561 -11.737  -0.053  1.00  0.00    -0.029 A 
HETATM   18  C   UNL     1      39.023 -12.529  -1.119  1.00  0.00    -0.002 A 
HETATM   19  C   UNL     1      40.098 -13.076  -1.819  1.00  0.00     0.042 A 
HETATM   20  C   UNL     1      37.715 -12.832  -1.548  1.00  0.00     0.014 A 
HETATM   21  C   UNL     1      39.932 -13.908  -2.933  1.00  0.00     0.030 A 
HETATM   22  N   UNL     1      41.246 -12.635  -1.202  1.00  0.00    -0.365 N 
HETATM   23  C   UNL     1      38.625 -14.190  -3.342  1.00  0.00     0.002 A 
HETATM   24  C   UNL     1      37.530 -13.662  -2.660  1.00  0.00     0.001 A 
HETATM   25  H   UNL     1      42.181 -12.876  -1.499  1.00  0.00     0.165 HD
HETATM   26  C   UNL     1      40.936 -11.831  -0.138  1.00  0.00     0.096 A 
ENDBRANCH  16  17
ENDBRANCH  15  16
ENDBRANCH  12  15
ENDBRANCH   9  11
BRANCH   7  27
HETATM   27  N   UNL     1      43.666 -13.061   6.761  1.00  0.00    -0.323 N 
HETATM   28  C   UNL     1      44.467 -11.963   6.489  1.00  0.00     0.251 C 
HETATM   29  O   UNL     1      44.724 -11.506   5.381  1.00  0.00    -0.270 OA
HETATM   30  H   UNL     1      43.354 -13.067   7.732  1.00  0.00     0.169 HD
BRANCH  28  31
HETATM   31  C   UNL     1      45.031 -11.358   7.791  1.00  0.00     0.213 C 
HETATM   32  O   UNL     1      44.030 -10.518   8.410  1.00  0.00    -0.376 OA
HETATM   33  C   UNL     1      44.451  -9.159   8.251  1.00  0.00     0.168 C 
HETATM   34  C   UNL     1      45.957  -9.209   8.286  1.00  0.00     0.029 C 
HETATM   35  C   UNL     1      46.264 -10.495   7.554  1.00  0.00     0.044 C 
ENDBRANCH  28  31
ENDBRANCH   7  27
BRANCH   3  36
HETATM   36  C   UNL     1      44.375 -18.439   4.606  1.00  0.00     0.056 C 
HETATM   37  C   UNL     1      43.744 -19.537   5.517  1.00  0.00     0.012 C 
HETATM   38  C   UNL     1      44.056 -20.546   4.399  1.00  0.00     0.002 C 
HETATM   39  C   UNL     1      43.959 -19.360   3.422  1.00  0.00     0.012 C 
ENDBRANCH   3  36
TORSDOF 7
ENDMDL
MODEL 2
REMARK VINA RESULT:      -9.7      2.046      3.600
REMARK  7 active torsions:
REMARK  status: ('A' for Active; 'I' for Inactive)
REMARK    1  A    between atoms: C_3  and  C_4 
REMARK    2  A    between atoms: C_11  and  N_12 
REMARK       I    between atoms: N_12  and  C_13 
REMARK    3  A    between atoms: C_13  and  C_14 
REMARK    4  A    between atoms: C_21  and  C_22 
REMARK       I    between atoms: C_22  and  N_23 
REMARK    5  A    between atoms: N_23  and  C_24 
REMARK    6  A    between atoms: C_24  and  C_25 
REMARK    7  A    between atoms: C_25  and  C_26 
ROOT
HETATM    1  C   UNL     1      43.952 -16.236   6.001  1.00  0.00     0.158 C 
HETATM    2  N   UNL     1      43.665 -16.542   4.621  1.00  0.00    -0.335 N 
HETATM    3  C   UNL     1      43.752 -17.814   4.095  1.00  0.00     0.111 A 
HETATM    4  N   UNL     1      43.156 -17.886   2.927  1.00  0.00    -0.233 NA
HETATM    5  C   UNL     1      42.711 -16.619   2.668  1.00  0.00     0.089 A 
HETATM    6  C   UNL     1      43.078 -15.720   3.677  1.00  0.00     0.091 A 
HETATM    7  C   UNL     1      42.741 -14.356   3.596  1.00  0.00     0.065 A 
HETATM    8  C   UNL     1      41.934 -13.969   2.509  1.00  0.00     0.049 A 
HETATM    9  C   UNL     1      41.561 -14.858   1.495  1.00  0.00     0.036 A 
HETATM   10  C   UNL     1      41.957 -16.194   1.563  1.00  0.00     0.051 A 
ENDROOT
BRANCH   9  11
HETATM   11  C   UNL     1      40.735 -14.328   0.374  1.00  0.00     0.251 C 
HETATM   12  N   UNL     1      41.225 -13.236  -0.313  1.00  0.00    -0.357 N 
HETATM   13  H   UNL     1      42.031 -12.735   0.035  1.00  0.00     0.162 HD
HETATM   14  O   UNL     1      39.652 -14.846   0.122  1.00  0.00    -0.268 OA
BRANCH  12  15
HETATM   15  C   UNL     1      40.453 -12.626  -1.383  1.00  0.00     0.127 C 
BRANCH  15  16
HETATM   16  C   UNL     1      39.580 -11.470  -0.885  1.00  0.00     0.060 C 
BRANCH  16  17
HETATM   17  C   UNL     1      40.270 -10.643   0.151  1.00  0.00    -0.029 A 
HETATM   18  C   UNL     1      40.058 -10.716   1.566  1.00  0.00    -0.002 A 
HETATM   19  C   UNL     1      40.902  -9.782   2.166  1.00  0.00     0.042 A 
HETATM   20  C   UNL     1      39.219 -11.493   2.390  1.00  0.00     0.014 A 
HETATM   21  C   UNL     1      40.954  -9.588   3.552  1.00  0.00     0.030 A 
HETATM   22  N   UNL     1      41.600  -9.163   1.155  1.00  0.00    -0.365 N 
HETATM   23  C   UNL     1      40.115 -10.374   4.348  1.00  0.00     0.002 A 
HETATM   24  C   UNL     1      39.258 -11.313   3.778  1.00  0.00     0.001 A 
HETATM   25  H   UNL     1      42.287  -8.437   1.298  1.00  0.00     0.165 HD
HETATM   26  C   UNL     1      41.228  -9.671  -0.061  1.00  0.00     0.096 A 
ENDBRANCH  16  17
ENDBRANCH  15  16
ENDBRANCH  12  15
ENDBRANCH   9  11
BRANCH   7  27
HETATM   27  N   UNL     1      43.110 -13.331   4.482  1.00  0.00    -0.323 N 
HETATM   28  C   UNL     1      43.611 -12.088   4.126  1.00  0.00     0.251 C 
HETATM   29  O   UNL     1      43.959 -11.737   3.004  1.00  0.00    -0.270 OA
HETATM   30  H   UNL     1      42.615 -13.294   5.373  1.00  0.00     0.169 HD
BRANCH  28  31
HETATM   31  C   UNL     1      43.696 -11.157   5.353  1.00  0.00     0.213 C 
HETATM   32  O   UNL     1      45.082 -10.904   5.676  1.00  0.00    -0.376 OA
HETATM   33  C   UNL     1      45.377 -11.608   6.886  1.00  0.00     0.168 C 
HETATM   34  C   UNL     1      44.091 -11.598   7.671  1.00  0.00     0.029 C 
HETATM   35  C   UNL     1      43.043 -11.756   6.593  1.00  0.00     0.044 C 
ENDBRANCH  28  31
ENDBRANCH   7  27
BRANCH   3  36
HETATM   36  C   UNL     1      44.381 -19.019   4.787  1.00  0.00     0.056 C 
HETATM   37  C   UNL     1      43.491 -19.591   5.933  1.00  0.00     0.012 C 
HETATM   38  C   UNL     1      43.941 -20.994   5.489  1.00  0.00     0.002 C 
HETATM   39  C   UNL     1      44.142 -20.389   4.087  1.00  0.00     0.012 C 
ENDBRANCH   3  36
TORSDOF 7
ENDMDL
MODEL 3
REMARK VINA RESULT:      -9.6      2.711      9.598
REMARK  7 active torsions:
REMARK  status: ('A' for Active; 'I' for Inactive)
REMARK    1  A    between atoms: C_3  and  C_4 
REMARK    2  A    between atoms: C_11  and  N_12 
REMARK       I    between atoms: N_12  and  C_13 
REMARK    3  A    between atoms: C_13  and  C_14 
REMARK    4  A    between atoms: C_21  and  C_22 
REMARK       I    between atoms: C_22  and  N_23 
REMARK    5  A    between atoms: N_23  and  C_24 
REMARK    6  A    between atoms: C_24  and  C_25 
REMARK    7  A    between atoms: C_25  and  C_26 
ROOT
HETATM    1  C   UNL     1      40.548 -13.767   1.203  1.00  0.00     0.158 C 
HETATM    2  N   UNL     1      41.459 -12.763   1.698  1.00  0.00    -0.335 N 
HETATM    3  C   UNL     1      41.518 -11.482   1.193  1.00  0.00     0.111 A 
HETATM    4  N   UNL     1      42.188 -10.686   1.995  1.00  0.00    -0.233 NA
HETATM    5  C   UNL     1      42.614 -11.482   3.022  1.00  0.00     0.089 A 
HETATM    6  C   UNL     1      42.241 -12.819   2.836  1.00  0.00     0.091 A 
HETATM    7  C   UNL     1      42.600 -13.812   3.767  1.00  0.00     0.065 A 
HETATM    8  C   UNL     1      43.257 -13.376   4.933  1.00  0.00     0.049 A 
HETATM    9  C   UNL     1      43.636 -12.043   5.130  1.00  0.00     0.036 A 
HETATM   10  C   UNL     1      43.323 -11.084   4.166  1.00  0.00     0.051 A 
ENDROOT
BRANCH   9  11
HETATM   11  C   UNL     1      44.359 -11.704   6.387  1.00  0.00     0.251 C 
HETATM   12  N   UNL     1      45.541 -11.002   6.269  1.00  0.00    -0.357 N 
HETATM   13  H   UNL     1      45.963 -10.866   5.361  1.00  0.00     0.162 HD
HETATM   14  O   UNL     1      43.908 -12.079   7.465  1.00  0.00    -0.268 OA
BRANCH  12  15
HETATM   15  C   UNL     1      46.334 -10.681   7.444  1.00  0.00     0.127 C 
BRANCH  15  16
HETATM   16  C   UNL     1      46.053  -9.270   7.969  1.00  0.00     0.060 C 
BRANCH  16  17
HETATM   17  C   UNL     1      45.218  -9.281   9.209  1.00  0.00    -0.029 A 
HETATM   18  C   UNL     1      44.284  -8.269   9.604  1.00  0.00    -0.002 A 
HETATM   19  C   UNL     1      43.719  -8.670  10.814  1.00  0.00     0.042 A 
HETATM   20  C   UNL     1      43.871  -7.046   9.039  1.00  0.00     0.014 A 
HETATM   21  C   UNL     1      42.755  -7.910  11.488  1.00  0.00     0.030 A 
HETATM   22  N   UNL     1      44.288  -9.878  11.144  1.00  0.00    -0.365 N 
HETATM   23  C   UNL     1      42.359  -6.702  10.905  1.00  0.00     0.002 A 
HETATM   24  C   UNL     1      42.908  -6.273   9.699  1.00  0.00     0.001 A 
HETATM   25  H   UNL     1      44.066 -10.405  11.977  1.00  0.00     0.165 HD
HETATM   26  C   UNL     1      45.193 -10.255  10.187  1.00  0.00     0.096 A 
ENDBRANCH  16  17
ENDBRANCH  15  16
ENDBRANCH  12  15
ENDBRANCH   9  11
BRANCH   7  27
HETATM   27  N   UNL     1      42.371 -15.194   3.672  1.00  0.00    -0.323 N 
HETATM   28  C   UNL     1      42.959 -16.057   2.759  1.00  0.00     0.251 C 
HETATM   29  O   UNL     1      43.646 -15.738   1.795  1.00  0.00    -0.270 OA
HETATM   30  H   UNL     1      42.117 -15.678   4.534  1.00  0.00     0.169 HD
BRANCH  28  31
HETATM   31  C   UNL     1      42.631 -17.525   3.099  1.00  0.00     0.213 C 
HETATM   32  O   UNL     1      43.147 -17.847   4.410  1.00  0.00    -0.376 OA
HETATM   33  C   UNL     1      44.266 -18.721   4.228  1.00  0.00     0.168 C 
HETATM   34  C   UNL     1      43.942 -19.523   2.994  1.00  0.00     0.029 C 
HETATM   35  C   UNL     1      43.247 -18.510   2.113  1.00  0.00     0.044 C 
ENDBRANCH  28  31
ENDBRANCH   7  27
BRANCH   3  36
HETATM   36  C   UNL     1      40.838 -10.999  -0.085  1.00  0.00     0.056 C 
HETATM   37  C   UNL     1      41.373  -9.615  -0.569  1.00  0.00     0.012 C 
HETATM   38  C   UNL     1      41.246 -10.147  -2.007  1.00  0.00     0.002 C 
HETATM   39  C   UNL     1      41.439 -11.553  -1.410  1.00  0.00     0.012 C 
ENDBRANCH   3  36
TORSDOF 7
ENDMDL
MODEL 4
REMARK VINA RESULT:      -9.5      2.543      8.391
REMARK  7 active torsions:
REMARK  status: ('A' for Active; 'I' for Inactive)
REMARK    1  A    between atoms: C_3  and  C_4 
REMARK    2  A    between atoms: C_11  and  N_12 
REMARK       I    between atoms: N_12  and  C_13 
REMARK    3  A    between atoms: C_13  and  C_14 
REMARK    4  A    between atoms: C_21  and  C_22 
REMARK       I    between atoms: C_22  and  N_23 
REMARK    5  A    between atoms: N_23  and  C_24 
REMARK    6  A    between atoms: C_24  and  C_25 
REMARK    7  A    between atoms: C_25  and  C_26 
ROOT
HETATM    1  C   UNL     1      43.384 -16.024   1.566  1.00  0.00     0.158 C 
HETATM    2  N   UNL     1      42.767 -15.936   2.867  1.00  0.00    -0.335 N 
HETATM    3  C   UNL     1      43.158 -16.705   3.943  1.00  0.00     0.111 A 
HETATM    4  N   UNL     1      42.670 -16.232   5.067  1.00  0.00    -0.233 NA
HETATM    5  C   UNL     1      41.906 -15.157   4.706  1.00  0.00     0.089 A 
HETATM    6  C   UNL     1      41.877 -14.979   3.317  1.00  0.00     0.091 A 
HETATM    7  C   UNL     1      41.127 -13.942   2.731  1.00  0.00     0.065 A 
HETATM    8  C   UNL     1      40.500 -13.041   3.611  1.00  0.00     0.049 A 
HETATM    9  C   UNL     1      40.521 -13.209   5.001  1.00  0.00     0.036 A 
HETATM   10  C   UNL     1      41.220 -14.279   5.560  1.00  0.00     0.051 A 
ENDROOT
BRANCH   9  11
HETATM   11  C   UNL     1      39.791 -12.212   5.833  1.00  0.00     0.251 C 
HETATM   12  N   UNL     1      40.497 -11.109   6.266  1.00  0.00    -0.357 N 
HETATM   13  H   UNL     1      41.500 -11.069   6.149  1.00  0.00     0.162 HD
HETATM   14  O   UNL     1      38.617 -12.413   6.127  1.00  0.00    -0.268 OA
BRANCH  12  15
HETATM   15  C   UNL     1      39.871 -10.119   7.128  1.00  0.00     0.127 C 
BRANCH  15  16
HETATM   16  C   UNL     1      40.821  -8.971   7.481  1.00  0.00     0.060 C 
BRANCH  16  17
HETATM   17  C   UNL     1      41.458  -9.153   8.821  1.00  0.00    -0.029 A 
HETATM   18  C   UNL     1      42.861  -9.300   9.075  1.00  0.00    -0.002 A 
HETATM   19  C   UNL     1      43.026  -9.439  10.452  1.00  0.00     0.042 A 
HETATM   20  C   UNL     1      44.005  -9.331   8.252  1.00  0.00     0.014 A 
HETATM   21  C   UNL     1      44.281  -9.602  11.052  1.00  0.00     0.030 A 
HETATM   22  N   UNL     1      41.772  -9.380  11.016  1.00  0.00    -0.365 N 
HETATM   23  C   UNL     1      45.401  -9.624  10.215  1.00  0.00     0.002 A 
HETATM   24  C   UNL     1      45.267  -9.493   8.834  1.00  0.00     0.001 A 
HETATM   25  H   UNL     1      41.588  -9.453  12.007  1.00  0.00     0.165 HD
HETATM   26  C   UNL     1      40.822  -9.210  10.045  1.00  0.00     0.096 A 
ENDBRANCH  16  17
ENDBRANCH  15  16
ENDBRANCH  12  15
ENDBRANCH   9  11
BRANCH   7  27
HETATM   27  N   UNL     1      40.937 -13.695   1.361  1.00  0.00    -0.323 N 
HETATM   28  C   UNL     1      40.217 -14.489   0.482  1.00  0.00     0.251 C 
HETATM   29  O   UNL     1      39.764 -15.605   0.713  1.00  0.00    -0.270 OA
HETATM   30  H   UNL     1      40.941 -12.718   1.067  1.00  0.00     0.169 HD
BRANCH  28  31
HETATM   31  C   UNL     1      40.049 -13.788  -0.881  1.00  0.00     0.213 C 
HETATM   32  O   UNL     1      39.481 -12.473  -0.685  1.00  0.00    -0.376 OA
HETATM   33  C   UNL     1      38.133 -12.511  -1.165  1.00  0.00     0.168 C 
HETATM   34  C   UNL     1      38.150 -13.495  -2.307  1.00  0.00     0.029 C 
HETATM   35  C   UNL     1      39.123 -14.547  -1.824  1.00  0.00     0.044 C 
ENDBRANCH  28  31
ENDBRANCH   7  27
BRANCH   3  36
HETATM   36  C   UNL     1      44.098 -17.905   3.881  1.00  0.00     0.056 C 
HETATM   37  C   UNL     1      43.972 -18.837   5.126  1.00  0.00     0.012 C 
HETATM   38  C   UNL     1      44.164 -20.026   4.169  1.00  0.00     0.002 C 
HETATM   39  C   UNL     1      43.569 -19.125   3.071  1.00  0.00     0.012 C 
ENDBRANCH   3  36
TORSDOF 7
ENDMDL
MODEL 5
REMARK VINA RESULT:      -9.4      1.814      2.320
REMARK  7 active torsions:
REMARK  status: ('A' for Active; 'I' for Inactive)
REMARK    1  A    between atoms: C_3  and  C_4 
REMARK    2  A    between atoms: C_11  and  N_12 
REMARK       I    between atoms: N_12  and  C_13 
REMARK    3  A    between atoms: C_13  and  C_14 
REMARK    4  A    between atoms: C_21  and  C_22 
REMARK       I    between atoms: C_22  and  N_23 
REMARK    5  A    between atoms: N_23  and  C_24 
REMARK    6  A    between atoms: C_24  and  C_25 
REMARK    7  A    between atoms: C_25  and  C_26 
ROOT
HETATM    1  C   UNL     1      43.521 -15.366   6.278  1.00  0.00     0.158 C 
HETATM    2  N   UNL     1      43.171 -14.899   4.959  1.00  0.00    -0.335 N 
HETATM    3  C   UNL     1      42.750 -15.737   3.947  1.00  0.00     0.111 A 
HETATM    4  N   UNL     1      42.206 -15.057   2.964  1.00  0.00    -0.233 NA
HETATM    5  C   UNL     1      42.319 -13.743   3.326  1.00  0.00     0.089 A 
HETATM    6  C   UNL     1      42.992 -13.592   4.545  1.00  0.00     0.091 A 
HETATM    7  C   UNL     1      43.237 -12.318   5.089  1.00  0.00     0.065 A 
HETATM    8  C   UNL     1      42.684 -11.221   4.402  1.00  0.00     0.049 A 
HETATM    9  C   UNL     1      42.011 -11.358   3.183  1.00  0.00     0.036 A 
HETATM   10  C   UNL     1      41.830 -12.626   2.629  1.00  0.00     0.051 A 
ENDROOT
BRANCH   9  11
HETATM   11  C   UNL     1      41.500 -10.122   2.528  1.00  0.00     0.251 C 
HETATM   12  N   UNL     1      41.629 -10.031   1.157  1.00  0.00    -0.357 N 
HETATM   13  H   UNL     1      42.184 -10.708   0.652  1.00  0.00     0.162 HD
HETATM   14  O   UNL     1      41.019  -9.227   3.215  1.00  0.00    -0.268 OA
BRANCH  12  15
HETATM   15  C   UNL     1      41.205  -8.834   0.450  1.00  0.00     0.127 C 
BRANCH  15  16
HETATM   16  C   UNL     1      39.887  -9.038  -0.303  1.00  0.00     0.060 C 
BRANCH  16  17
HETATM   17  C   UNL     1      39.439 -10.464  -0.287  1.00  0.00    -0.029 A 
HETATM   18  C   UNL     1      39.858 -11.489  -1.195  1.00  0.00    -0.002 A 
HETATM   19  C   UNL     1      39.209 -12.667  -0.827  1.00  0.00     0.042 A 
HETATM   20  C   UNL     1      40.732 -11.518  -2.301  1.00  0.00     0.014 A 
HETATM   21  C   UNL     1      39.393 -13.878  -1.507  1.00  0.00     0.030 A 
HETATM   22  N   UNL     1      38.424 -12.370   0.262  1.00  0.00    -0.365 N 
HETATM   23  C   UNL     1      40.268 -13.881  -2.598  1.00  0.00     0.002 A 
HETATM   24  C   UNL     1      40.928 -12.720  -2.993  1.00  0.00     0.001 A 
HETATM   25  H   UNL     1      37.838 -13.039   0.742  1.00  0.00     0.165 HD
HETATM   26  C   UNL     1      38.552 -11.049   0.596  1.00  0.00     0.096 A 
ENDBRANCH  16  17
ENDBRANCH  15  16
ENDBRANCH  12  15
ENDBRANCH   9  11
BRANCH   7  27
HETATM   27  N   UNL     1      43.967 -12.011   6.250  1.00  0.00    -0.323 N 
HETATM   28  C   UNL     1      45.210 -11.399   6.293  1.00  0.00     0.251 C 
HETATM   29  O   UNL     1      45.941 -11.169   5.336  1.00  0.00    -0.270 OA
HETATM   30  H   UNL     1      43.426 -11.822   7.095  1.00  0.00     0.169 HD
BRANCH  28  31
HETATM   31  C   UNL     1      45.592 -11.032   7.741  1.00  0.00     0.213 C 
HETATM   32  O   UNL     1      44.450 -11.220   8.608  1.00  0.00    -0.376 OA
HETATM   33  C   UNL     1      43.985  -9.922   8.992  1.00  0.00     0.168 C 
HETATM   34  C   UNL     1      45.221  -9.061   9.044  1.00  0.00     0.029 C 
HETATM   35  C   UNL     1      46.038  -9.582   7.884  1.00  0.00     0.044 C 
ENDBRANCH  28  31
ENDBRANCH   7  27
BRANCH   3  36
HETATM   36  C   UNL     1      42.819 -17.260   3.970  1.00  0.00     0.056 C 
HETATM   37  C   UNL     1      42.794 -17.889   2.542  1.00  0.00     0.012 C 
HETATM   38  C   UNL     1      43.804 -18.929   3.057  1.00  0.00     0.002 C 
HETATM   39  C   UNL     1      44.252 -17.861   4.073  1.00  0.00     0.012 C 
ENDBRANCH   3  36
TORSDOF 7
ENDMDL
MODEL 6
REMARK VINA RESULT:      -9.4      2.427      5.809
REMARK  7 active torsions:
REMARK  status: ('A' for Active; 'I' for Inactive)
REMARK    1  A    between atoms: C_3  and  C_4 
REMARK    2  A    between atoms: C_11  and  N_12 
REMARK       I    between atoms: N_12  and  C_13 
REMARK    3  A    between atoms: C_13  and  C_14 
REMARK    4  A    between atoms: C_21  and  C_22 
REMARK       I    between atoms: C_22  and  N_23 
REMARK    5  A    between atoms: N_23  and  C_24 
REMARK    6  A    between atoms: C_24  and  C_25 
REMARK    7  A    between atoms: C_25  and  C_26 
ROOT
HETATM    1  C   UNL     1      43.904 -13.902   6.432  1.00  0.00     0.158 C 
HETATM    2  N   UNL     1      43.274 -12.653   6.079  1.00  0.00    -0.335 N 
HETATM    3  C   UNL     1      43.506 -11.473   6.753  1.00  0.00     0.111 A 
HETATM    4  N   UNL     1      43.070 -10.441   6.067  1.00  0.00    -0.233 NA
HETATM    5  C   UNL     1      42.500 -10.969   4.941  1.00  0.00     0.089 A 
HETATM    6  C   UNL     1      42.539 -12.369   4.943  1.00  0.00     0.091 A 
HETATM    7  C   UNL     1      41.983 -13.115   3.887  1.00  0.00     0.065 A 
HETATM    8  C   UNL     1      41.487 -12.384   2.791  1.00  0.00     0.049 A 
HETATM    9  C   UNL     1      41.442 -10.986   2.778  1.00  0.00     0.036 A 
HETATM   10  C   UNL     1      41.943 -10.265   3.862  1.00  0.00     0.051 A 
ENDROOT
BRANCH   9  11
HETATM   11  C   UNL     1      40.861 -10.320   1.578  1.00  0.00     0.251 C 
HETATM   12  N   UNL     1      41.729  -9.653   0.740  1.00  0.00    -0.357 N 
HETATM   13  H   UNL     1      42.689  -9.499   1.019  1.00  0.00     0.162 HD
HETATM   14  O   UNL     1      39.648 -10.357   1.393  1.00  0.00    -0.268 OA
BRANCH  12  15
HETATM   15  C   UNL     1      41.233  -8.931  -0.421  1.00  0.00     0.127 C 
BRANCH  15  16
HETATM   16  C   UNL     1      41.580  -9.635  -1.736  1.00  0.00     0.060 C 
BRANCH  16  17
HETATM   17  C   UNL     1      40.440 -10.445  -2.264  1.00  0.00    -0.029 A 
HETATM   18  C   UNL     1      40.131 -11.798  -1.907  1.00  0.00    -0.002 A 
HETATM   19  C   UNL     1      38.992 -12.170  -2.621  1.00  0.00     0.042 A 
HETATM   20  C   UNL     1      40.722 -12.739  -1.041  1.00  0.00     0.014 A 
HETATM   21  C   UNL     1      38.409 -13.438  -2.508  1.00  0.00     0.030 A 
HETATM   22  N   UNL     1      38.623 -11.087  -3.384  1.00  0.00    -0.365 N 
HETATM   23  C   UNL     1      39.012 -14.353  -1.639  1.00  0.00     0.002 A 
HETATM   24  C   UNL     1      40.153 -14.012  -0.916  1.00  0.00     0.001 A 
HETATM   25  H   UNL     1      37.827 -11.072  -4.005  1.00  0.00     0.165 HD
HETATM   26  C   UNL     1      39.487 -10.044  -3.179  1.00  0.00     0.096 A 
ENDBRANCH  16  17
ENDBRANCH  15  16
ENDBRANCH  12  15
ENDBRANCH   9  11
BRANCH   7  27
HETATM   27  N   UNL     1      41.873 -14.512   3.794  1.00  0.00    -0.323 N 
HETATM   28  C   UNL     1      42.704 -15.348   3.063  1.00  0.00     0.251 C 
HETATM   29  O   UNL     1      43.563 -14.999   2.261  1.00  0.00    -0.270 OA
HETATM   30  H   UNL     1      41.468 -14.995   4.596  1.00  0.00     0.169 HD
BRANCH  28  31
HETATM   31  C   UNL     1      42.408 -16.828   3.375  1.00  0.00     0.213 C 
HETATM   32  O   UNL     1      42.988 -17.181   4.651  1.00  0.00    -0.376 OA
HETATM   33  C   UNL     1      44.107 -18.036   4.392  1.00  0.00     0.168 C 
HETATM   34  C   UNL     1      43.734 -18.807   3.152  1.00  0.00     0.029 C 
HETATM   35  C   UNL     1      42.988 -17.778   2.334  1.00  0.00     0.044 C 
ENDBRANCH  28  31
ENDBRANCH   7  27
BRANCH   3  36
HETATM   36  C   UNL     1      44.239 -11.340   8.083  1.00  0.00     0.056 C 
HETATM   37  C   UNL     1      45.692 -10.795   7.922  1.00  0.00     0.012 C 
HETATM   38  C   UNL     1      45.465 -10.001   9.220  1.00  0.00     0.002 C 
HETATM   39  C   UNL     1      43.967 -10.022   8.867  1.00  0.00     0.012 C 
ENDBRANCH   3  36
TORSDOF 7
ENDMDL
MODEL 7
REMARK VINA RESULT:      -9.4      3.453      9.284
REMARK  7 active torsions:
REMARK  status: ('A' for Active; 'I' for Inactive)
REMARK    1  A    between atoms: C_3  and  C_4 
REMARK    2  A    between atoms: C_11  and  N_12 
REMARK       I    between atoms: N_12  and  C_13 
REMARK    3  A    between atoms: C_13  and  C_14 
REMARK    4  A    between atoms: C_21  and  C_22 
REMARK       I    between atoms: C_22  and  N_23 
REMARK    5  A    between atoms: N_23  and  C_24 
REMARK    6  A    between atoms: C_24  and  C_25 
REMARK    7  A    between atoms: C_25  and  C_26 
ROOT
HETATM    1  C   UNL     1      41.982 -15.203   1.191  1.00  0.00     0.158 C 
HETATM    2  N   UNL     1      41.787 -15.118   2.618  1.00  0.00    -0.335 N 
HETATM    3  C   UNL     1      42.571 -15.794   3.529  1.00  0.00     0.111 A 
HETATM    4  N   UNL     1      42.401 -15.322   4.743  1.00  0.00    -0.233 NA
HETATM    5  C   UNL     1      41.449 -14.347   4.623  1.00  0.00     0.089 A 
HETATM    6  C   UNL     1      40.977 -14.237   3.309  1.00  0.00     0.091 A 
HETATM    7  C   UNL     1      39.974 -13.309   2.971  1.00  0.00     0.065 A 
HETATM    8  C   UNL     1      39.551 -12.437   3.991  1.00  0.00     0.049 A 
HETATM    9  C   UNL     1      40.015 -12.538   5.308  1.00  0.00     0.036 A 
HETATM   10  C   UNL     1      40.965 -13.504   5.637  1.00  0.00     0.051 A 
ENDROOT
BRANCH   9  11
HETATM   11  C   UNL     1      39.469 -11.583   6.313  1.00  0.00     0.251 C 
HETATM   12  N   UNL     1      40.349 -10.681   6.874  1.00  0.00    -0.357 N 
HETATM   13  H   UNL     1      41.343 -10.776   6.718  1.00  0.00     0.162 HD
HETATM   14  O   UNL     1      38.284 -11.646   6.627  1.00  0.00    -0.268 OA
BRANCH  12  15
HETATM   15  C   UNL     1      39.906  -9.754   7.902  1.00  0.00     0.127 C 
BRANCH  15  16
HETATM   16  C   UNL     1      41.042  -9.340   8.842  1.00  0.00     0.060 C 
BRANCH  16  17
HETATM   17  C   UNL     1      40.648  -9.427  10.282  1.00  0.00    -0.029 A 
HETATM   18  C   UNL     1      41.444  -9.013  11.399  1.00  0.00    -0.002 A 
HETATM   19  C   UNL     1      40.704  -9.261  12.555  1.00  0.00     0.042 A 
HETATM   20  C   UNL     1      42.730  -8.452  11.529  1.00  0.00     0.014 A 
HETATM   21  C   UNL     1      41.185  -8.971  13.838  1.00  0.00     0.030 A 
HETATM   22  N   UNL     1      39.505  -9.806  12.157  1.00  0.00    -0.365 N 
HETATM   23  C   UNL     1      42.462  -8.410  13.940  1.00  0.00     0.002 A 
HETATM   24  C   UNL     1      43.226  -8.155  12.804  1.00  0.00     0.001 A 
HETATM   25  H   UNL     1      38.768 -10.086  12.789  1.00  0.00     0.165 HD
HETATM   26  C   UNL     1      39.460  -9.911  10.793  1.00  0.00     0.096 A 
ENDBRANCH  16  17
ENDBRANCH  15  16
ENDBRANCH  12  15
ENDBRANCH   9  11
BRANCH   7  27
HETATM   27  N   UNL     1      39.348 -13.145   1.725  1.00  0.00    -0.323 N 
HETATM   28  C   UNL     1      39.871 -12.471   0.632  1.00  0.00     0.251 C 
HETATM   29  O   UNL     1      40.884 -11.779   0.621  1.00  0.00    -0.270 OA
HETATM   30  H   UNL     1      38.700 -13.880   1.436  1.00  0.00     0.169 HD
BRANCH  28  31
HETATM   31  C   UNL     1      38.996 -12.687  -0.619  1.00  0.00     0.213 C 
HETATM   32  O   UNL     1      39.096 -14.063  -1.050  1.00  0.00    -0.376 OA
HETATM   33  C   UNL     1      39.857 -14.080  -2.262  1.00  0.00     0.168 C 
HETATM   34  C   UNL     1      39.531 -12.779  -2.949  1.00  0.00     0.029 C 
HETATM   35  C   UNL     1      39.419 -11.811  -1.793  1.00  0.00     0.044 C 
ENDBRANCH  28  31
ENDBRANCH   7  27
BRANCH   3  36
HETATM   36  C   UNL     1      43.573 -16.894   3.194  1.00  0.00     0.056 C 
HETATM   37  C   UNL     1      43.950 -17.766   4.432  1.00  0.00     0.012 C 
HETATM   38  C   UNL     1      43.965 -18.979   3.486  1.00  0.00     0.002 C 
HETATM   39  C   UNL     1      42.958 -18.203   2.618  1.00  0.00     0.012 C 
ENDBRANCH   3  36
TORSDOF 7
ENDMDL
MODEL 8
REMARK VINA RESULT:      -9.2      3.581      9.402
REMARK  7 active torsions:
REMARK  status: ('A' for Active; 'I' for Inactive)
REMARK    1  A    between atoms: C_3  and  C_4 
REMARK    2  A    between atoms: C_11  and  N_12 
REMARK       I    between atoms: N_12  and  C_13 
REMARK    3  A    between atoms: C_13  and  C_14 
REMARK    4  A    between atoms: C_21  and  C_22 
REMARK       I    between atoms: C_22  and  N_23 
REMARK    5  A    between atoms: N_23  and  C_24 
REMARK    6  A    between atoms: C_24  and  C_25 
REMARK    7  A    between atoms: C_25  and  C_26 
ROOT
HETATM    1  C   UNL     1      41.600 -14.567   2.596  1.00  0.00     0.158 C 
HETATM    2  N   UNL     1      42.175 -14.720   3.910  1.00  0.00    -0.335 N 
HETATM    3  C   UNL     1      42.752 -15.893   4.350  1.00  0.00     0.111 A 
HETATM    4  N   UNL     1      43.464 -15.692   5.435  1.00  0.00    -0.233 NA
HETATM    5  C   UNL     1      43.307 -14.367   5.732  1.00  0.00     0.089 A 
HETATM    6  C   UNL     1      42.438 -13.730   4.837  1.00  0.00     0.091 A 
HETATM    7  C   UNL     1      42.118 -12.366   4.978  1.00  0.00     0.065 A 
HETATM    8  C   UNL     1      42.793 -11.661   5.991  1.00  0.00     0.049 A 
HETATM    9  C   UNL     1      43.663 -12.286   6.892  1.00  0.00     0.036 A 
HETATM   10  C   UNL     1      43.920 -13.652   6.774  1.00  0.00     0.051 A 
ENDROOT
BRANCH   9  11
HETATM   11  C   UNL     1      44.293 -11.445   7.948  1.00  0.00     0.251 C 
HETATM   12  N   UNL     1      43.459 -10.881   8.891  1.00  0.00    -0.357 N 
HETATM   13  H   UNL     1      42.456 -10.917   8.770  1.00  0.00     0.162 HD
HETATM   14  O   UNL     1      45.505 -11.256   7.929  1.00  0.00    -0.268 OA
BRANCH  12  15
HETATM   15  C   UNL     1      43.990 -10.002   9.920  1.00  0.00     0.127 C 
BRANCH  15  16
HETATM   16  C   UNL     1      43.088  -8.791  10.174  1.00  0.00     0.060 C 
BRANCH  16  17
HETATM   17  C   UNL     1      42.170  -8.999  11.335  1.00  0.00    -0.029 A 
HETATM   18  C   UNL     1      42.316  -8.420  12.638  1.00  0.00    -0.002 A 
HETATM   19  C   UNL     1      41.248  -8.866  13.416  1.00  0.00     0.042 A 
HETATM   20  C   UNL     1      43.264  -7.557  13.224  1.00  0.00     0.014 A 
HETATM   21  C   UNL     1      41.077  -8.488  14.754  1.00  0.00     0.030 A 
HETATM   22  N   UNL     1      40.483  -9.685  12.619  1.00  0.00    -0.365 N 
HETATM   23  C   UNL     1      42.028  -7.628  15.311  1.00  0.00     0.002 A 
HETATM   24  C   UNL     1      43.108  -7.169  14.560  1.00  0.00     0.001 A 
HETATM   25  H   UNL     1      39.641 -10.152  12.923  1.00  0.00     0.165 HD
HETATM   26  C   UNL     1      41.028  -9.774  11.366  1.00  0.00     0.096 A 
ENDBRANCH  16  17
ENDBRANCH  15  16
ENDBRANCH  12  15
ENDBRANCH   9  11
BRANCH   7  27
HETATM   27  N   UNL     1      41.206 -11.621   4.214  1.00  0.00    -0.323 N 
HETATM   28  C   UNL     1      41.475 -10.989   3.009  1.00  0.00     0.251 C 
HETATM   29  O   UNL     1      42.579 -10.844   2.495  1.00  0.00    -0.270 OA
HETATM   30  H   UNL     1      40.223 -11.886   4.286  1.00  0.00     0.169 HD
BRANCH  28  31
HETATM   31  C   UNL     1      40.180 -10.457   2.365  1.00  0.00     0.213 C 
HETATM   32  O   UNL     1      40.355  -9.071   1.994  1.00  0.00    -0.376 OA
HETATM   33  C   UNL     1      39.572  -8.282   2.895  1.00  0.00     0.168 C 
HETATM   34  C   UNL     1      38.382  -9.142   3.237  1.00  0.00     0.029 C 
HETATM   35  C   UNL     1      38.982 -10.527   3.304  1.00  0.00     0.044 C 
ENDBRANCH  28  31
ENDBRANCH   7  27
BRANCH   3  36
HETATM   36  C   UNL     1      42.662 -17.244   3.649  1.00  0.00     0.056 C 
HETATM   37  C   UNL     1      43.485 -17.295   2.324  1.00  0.00     0.012 C 
HETATM   38  C   UNL     1      43.855 -18.743   2.691  1.00  0.00     0.002 C 
HETATM   39  C   UNL     1      43.655 -18.328   4.161  1.00  0.00     0.012 C 
ENDBRANCH   3  36
TORSDOF 7
ENDMDL
MODEL 9
REMARK VINA RESULT:      -9.2      2.128      5.589
REMARK  7 active torsions:
REMARK  status: ('A' for Active; 'I' for Inactive)
REMARK    1  A    between atoms: C_3  and  C_4 
REMARK    2  A    between atoms: C_11  and  N_12 
REMARK       I    between atoms: N_12  and  C_13 
REMARK    3  A    between atoms: C_13  and  C_14 
REMARK    4  A    between atoms: C_21  and  C_22 
REMARK       I    between atoms: C_22  and  N_23 
REMARK    5  A    between atoms: N_23  and  C_24 
REMARK    6  A    between atoms: C_24  and  C_25 
REMARK    7  A    between atoms: C_25  and  C_26 
ROOT
HETATM    1  C   UNL     1      44.110 -13.378   6.514  1.00  0.00     0.158 C 
HETATM    2  N   UNL     1      43.146 -12.304   6.481  1.00  0.00    -0.335 N 
HETATM    3  C   UNL     1      43.359 -11.079   7.076  1.00  0.00     0.111 A 
HETATM    4  N   UNL     1      42.492 -10.189   6.651  1.00  0.00    -0.233 NA
HETATM    5  C   UNL     1      41.669 -10.865   5.794  1.00  0.00     0.089 A 
HETATM    6  C   UNL     1      41.998 -12.223   5.715  1.00  0.00     0.091 A 
HETATM    7  C   UNL     1      41.259 -13.107   4.906  1.00  0.00     0.065 A 
HETATM    8  C   UNL     1      40.248 -12.537   4.110  1.00  0.00     0.049 A 
HETATM    9  C   UNL     1      39.909 -11.182   4.180  1.00  0.00     0.036 A 
HETATM   10  C   UNL     1      40.615 -10.333   5.034  1.00  0.00     0.051 A 
ENDROOT
BRANCH   9  11
HETATM   11  C   UNL     1      38.796 -10.697   3.316  1.00  0.00     0.251 C 
HETATM   12  N   UNL     1      38.478 -11.455   2.208  1.00  0.00    -0.357 N 
HETATM   13  H   UNL     1      39.079 -12.216   1.922  1.00  0.00     0.162 HD
HETATM   14  O   UNL     1      38.229  -9.645   3.592  1.00  0.00    -0.268 OA
BRANCH  12  15
HETATM   15  C   UNL     1      37.442 -11.021   1.285  1.00  0.00     0.127 C 
BRANCH  15  16
HETATM   16  C   UNL     1      38.020 -10.455  -0.015  1.00  0.00     0.060 C 
BRANCH  16  17
HETATM   17  C   UNL     1      37.685 -11.300  -1.201  1.00  0.00    -0.029 A 
HETATM   18  C   UNL     1      38.223 -12.596  -1.492  1.00  0.00    -0.002 A 
HETATM   19  C   UNL     1      37.645 -13.033  -2.683  1.00  0.00     0.042 A 
HETATM   20  C   UNL     1      39.154 -13.435  -0.847  1.00  0.00     0.014 A 
HETATM   21  C   UNL     1      37.947 -14.272  -3.261  1.00  0.00     0.030 A 
HETATM   22  N   UNL     1      36.788 -12.041  -3.103  1.00  0.00    -0.365 N 
HETATM   23  C   UNL     1      38.870 -15.088  -2.600  1.00  0.00     0.002 A 
HETATM   24  C   UNL     1      39.468 -14.677  -1.411  1.00  0.00     0.001 A 
HETATM   25  H   UNL     1      36.231 -12.087  -3.944  1.00  0.00     0.165 HD
HETATM   26  C   UNL     1      36.805 -10.994  -2.221  1.00  0.00     0.096 A 
ENDBRANCH  16  17
ENDBRANCH  15  16
ENDBRANCH  12  15
ENDBRANCH   9  11
BRANCH   7  27
HETATM   27  N   UNL     1      41.419 -14.498   4.794  1.00  0.00    -0.323 N 
HETATM   28  C   UNL     1      42.283 -15.151   3.928  1.00  0.00     0.251 C 
HETATM   29  O   UNL     1      42.926 -14.640   3.018  1.00  0.00    -0.270 OA
HETATM   30  H   UNL     1      41.243 -15.049   5.634  1.00  0.00     0.169 HD
BRANCH  28  31
HETATM   31  C   UNL     1      42.339 -16.660   4.242  1.00  0.00     0.213 C 
HETATM   32  O   UNL     1      43.022 -16.870   5.498  1.00  0.00    -0.376 OA
HETATM   33  C   UNL     1      44.297 -17.450   5.202  1.00  0.00     0.168 C 
HETATM   34  C   UNL     1      44.071 -18.287   3.970  1.00  0.00     0.029 C 
HETATM   35  C   UNL     1      43.087 -17.456   3.179  1.00  0.00     0.044 C 
ENDBRANCH  28  31
ENDBRANCH   7  27
BRANCH   3  36
HETATM   36  C   UNL     1      44.490 -10.747   8.043  1.00  0.00     0.056 C 
HETATM   37  C   UNL     1      45.845 -10.471   7.319  1.00  0.00     0.012 C 
HETATM   38  C   UNL     1      46.100  -9.371   8.364  1.00  0.00     0.002 C 
HETATM   39  C   UNL     1      44.570  -9.257   8.490  1.00  0.00     0.012 C 
ENDBRANCH   3  36
TORSDOF 7
ENDMDL
MODEL 10
REMARK VINA RESULT:      -9.2      2.632      3.544
REMARK  7 active torsions:
REMARK  status: ('A' for Active; 'I' for Inactive)
REMARK    1  A    between atoms: C_3  and  C_4 
REMARK    2  A    between atoms: C_11  and  N_12 
REMARK       I    between atoms: N_12  and  C_13 
REMARK    3  A    between atoms: C_13  and  C_14 
REMARK    4  A    between atoms: C_21  and  C_22 
REMARK       I    between atoms: C_22  and  N_23 
REMARK    5  A    between atoms: N_23  and  C_24 
REMARK    6  A    between atoms: C_24  and  C_25 
REMARK    7  A    between atoms: C_25  and  C_26 
ROOT
HETATM    1  C   UNL     1      43.907 -15.472   6.044  1.00  0.00     0.158 C 
HETATM    2  N   UNL     1      43.597 -15.957   4.721  1.00  0.00    -0.335 N 
HETATM    3  C   UNL     1      43.654 -17.291   4.373  1.00  0.00     0.111 A 
HETATM    4  N   UNL     1      43.042 -17.508   3.232  1.00  0.00    -0.233 NA
HETATM    5  C   UNL     1      42.619 -16.279   2.807  1.00  0.00     0.089 A 
HETATM    6  C   UNL     1      43.015 -15.259   3.680  1.00  0.00     0.091 A 
HETATM    7  C   UNL     1      42.704 -13.912   3.416  1.00  0.00     0.065 A 
HETATM    8  C   UNL     1      41.892 -13.660   2.295  1.00  0.00     0.049 A 
HETATM    9  C   UNL     1      41.490 -14.670   1.415  1.00  0.00     0.036 A 
HETATM   10  C   UNL     1      41.860 -15.993   1.661  1.00  0.00     0.051 A 
ENDROOT
BRANCH   9  11
HETATM   11  C   UNL     1      40.661 -14.280   0.240  1.00  0.00     0.251 C 
HETATM   12  N   UNL     1      40.959 -13.082  -0.376  1.00  0.00    -0.357 N 
HETATM   13  H   UNL     1      41.608 -12.437   0.052  1.00  0.00     0.162 HD
HETATM   14  O   UNL     1      39.738 -15.005  -0.117  1.00  0.00    -0.268 OA
BRANCH  12  15
HETATM   15  C   UNL     1      40.162 -12.604  -1.494  1.00  0.00     0.127 C 
BRANCH  15  16
HETATM   16  C   UNL     1      39.548 -11.227  -1.225  1.00  0.00     0.060 C 
BRANCH  16  17
HETATM   17  C   UNL     1      40.588 -10.179  -0.991  1.00  0.00    -0.029 A 
HETATM   18  C   UNL     1      41.155  -9.318  -1.986  1.00  0.00    -0.002 A 
HETATM   19  C   UNL     1      42.078  -8.490  -1.348  1.00  0.00     0.042 A 
HETATM   20  C   UNL     1      40.965  -9.172  -3.375  1.00  0.00     0.014 A 
HETATM   21  C   UNL     1      42.820  -7.517  -2.029  1.00  0.00     0.030 A 
HETATM   22  N   UNL     1      42.074  -8.834  -0.016  1.00  0.00    -0.365 N 
HETATM   23  C   UNL     1      42.611  -7.389  -3.406  1.00  0.00     0.002 A 
HETATM   24  C   UNL     1      41.699  -8.205  -4.072  1.00  0.00     0.001 A 
HETATM   25  H   UNL     1      42.651  -8.396   0.687  1.00  0.00     0.165 HD
HETATM   26  C   UNL     1      41.183  -9.849   0.210  1.00  0.00     0.096 A 
ENDBRANCH  16  17
ENDBRANCH  15  16
ENDBRANCH  12  15
ENDBRANCH   9  11
BRANCH   7  27
HETATM   27  N   UNL     1      43.104 -12.784   4.151  1.00  0.00    -0.323 N 
HETATM   28  C   UNL     1      42.580 -12.376   5.368  1.00  0.00     0.251 C 
HETATM   29  O   UNL     1      41.587 -12.833   5.923  1.00  0.00    -0.270 OA
HETATM   30  H   UNL     1      44.075 -12.486   4.042  1.00  0.00     0.169 HD
BRANCH  28  31
HETATM   31  C   UNL     1      43.414 -11.226   5.968  1.00  0.00     0.213 C 
HETATM   32  O   UNL     1      44.671 -11.117   5.262  1.00  0.00    -0.376 OA
HETATM   33  C   UNL     1      45.700 -11.580   6.141  1.00  0.00     0.168 C 
HETATM   34  C   UNL     1      45.230 -11.211   7.525  1.00  0.00     0.029 C 
HETATM   35  C   UNL     1      43.739 -11.440   7.442  1.00  0.00     0.044 C 
ENDBRANCH  28  31
ENDBRANCH   7  27
BRANCH   3  36
HETATM   36  C   UNL     1      44.267 -18.403   5.217  1.00  0.00     0.056 C 
HETATM   37  C   UNL     1      43.240 -19.060   6.192  1.00  0.00     0.012 C 
HETATM   38  C   UNL     1      43.923 -20.406   5.895  1.00  0.00     0.002 C 
HETATM   39  C   UNL     1      44.324 -19.802   4.536  1.00  0.00     0.012 C 
ENDBRANCH   3  36
TORSDOF 7
ENDMDL
