MODEL 1
REMARK VINA RESULT:     -10.6      0.000      0.000
REMARK  6 active torsions:
REMARK  status: ('A' for Active; 'I' for Inactive)
REMARK    1  A    between atoms: C_2  and  C_3 
REMARK    2  A    between atoms: C_3  and  C_4 
REMARK    3  A    between atoms: C_6  and  N_7 
REMARK    4  A    between atoms: C_9  and  C_10 
REMARK    5  A    between atoms: C_16  and  N_17 
REMARK       I    between atoms: N_17  and  C_18 
REMARK    6  A    between atoms: C_18  and  C_19 
ROOT
HETATM    1  N   UNL     1      40.616 -13.505   2.039  1.00  0.00    -0.044 N 
HETATM    2  N   UNL     1      39.633 -13.130   1.173  1.00  0.00    -0.148 NA
HETATM    3  C   UNL     1      39.831 -13.915   0.108  1.00  0.00     0.115 A 
HETATM    4  C   UNL     1      40.897 -14.821   0.301  1.00  0.00     0.087 A 
HETATM    5  C   UNL     1      41.385 -14.556   1.560  1.00  0.00     0.152 A 
ENDROOT
BRANCH   5   6
HETATM    6  N   UNL     1      42.423 -15.181   2.255  1.00  0.00    -0.310 N 
HETATM    7  C   UNL     1      42.230 -16.239   3.216  1.00  0.00     0.236 C 
HETATM    8  O   UNL     1      41.109 -16.690   3.418  1.00  0.00    -0.272 OA
HETATM    9  H   UNL     1      43.367 -14.822   2.085  1.00  0.00     0.170 HD
BRANCH   7  10
HETATM   10  C   UNL     1      43.467 -16.776   3.928  1.00  0.00     0.149 C 
HETATM   11  C   UNL     1      43.637 -18.263   3.736  1.00  0.00    -0.007 A 
HETATM   12  C   UNL     1      43.577 -19.120   4.837  1.00  0.00     0.083 A 
HETATM   13  C   UNL     1      43.862 -18.806   2.460  1.00  0.00     0.011 A 
HETATM   14  C   UNL     1      43.737 -20.496   4.671  1.00  0.00     0.038 A 
HETATM   15  O   UNL     1      43.352 -18.689   6.121  1.00  0.00    -0.310 OA
HETATM   16  C   UNL     1      43.950 -21.029   3.401  1.00  0.00     0.003 A 
HETATM   17  C   UNL     1      44.012 -20.183   2.295  1.00  0.00     0.001 A 
HETATM   18  C   UNL     1      43.395 -17.343   6.380  1.00  0.00     0.083 A 
HETATM   19  C   UNL     1      43.464 -16.369   5.381  1.00  0.00    -0.007 A 
HETATM   20  C   UNL     1      43.376 -16.975   7.726  1.00  0.00     0.038 A 
HETATM   21  C   UNL     1      43.539 -15.016   5.752  1.00  0.00     0.011 A 
HETATM   22  C   UNL     1      43.529 -14.651   7.098  1.00  0.00     0.001 A 
HETATM   23  C   UNL     1      43.444 -15.629   8.085  1.00  0.00     0.003 A 
ENDBRANCH   7  10
ENDBRANCH   5   6
BRANCH   1  24
HETATM   24  C   UNL     1      40.756 -12.846   3.269  1.00  0.00     0.732 A 
HETATM   25  N   UNL     1      41.826 -12.188   3.592  1.00  0.00    -0.067 NA
HETATM   26  C   UNL     1      41.787 -11.564   4.825  1.00  0.00     0.059 A 
HETATM   27  C   UNL     1      40.764 -11.676   5.688  1.00  0.00     0.102 A 
HETATM   28  C   UNL     1      39.588 -12.472   5.303  1.00  0.00     0.261 A 
HETATM   29  N   UNL     1      39.645 -12.992   4.051  1.00  0.00    -0.152 N 
HETATM   30  O   UNL     1      38.644 -12.636   6.063  1.00  0.00    -0.268 OA
HETATM   31  H   UNL     1      38.857 -13.543   3.720  1.00  0.00     0.187 HD
BRANCH  26  32
HETATM   32  C   UNL     1      42.983 -10.707   5.175  1.00  0.00     0.060 C 
BRANCH  32  33
HETATM   33  C   UNL     1      44.287 -11.508   5.123  1.00  0.00     0.002 C 
HETATM   34  C   UNL     1      45.104 -11.330   6.392  1.00  0.00     0.005 C 
ENDBRANCH  32  33
ENDBRANCH  26  32
ENDBRANCH   1  24
BRANCH   3  35
HETATM   35  C   UNL     1      39.008 -13.822  -1.132  1.00  0.00     0.105 A 
HETATM   36  O   UNL     1      38.086 -12.840  -1.371  1.00  0.00    -0.320 OA
HETATM   37  C   UNL     1      37.533 -13.091  -2.585  1.00  0.00     0.142 A 
HETATM   38  C   UNL     1      38.085 -14.219  -3.141  1.00  0.00     0.027 A 
HETATM   39  C   UNL     1      39.037 -14.692  -2.205  1.00  0.00     0.041 A 
ENDBRANCH   3  35
TORSDOF 6
ENDMDL
MODEL 2
REMARK VINA RESULT:      -9.9      1.889      7.611
REMARK  6 active torsions:
REMARK  status: ('A' for Active; 'I' for Inactive)
REMARK    1  A    between atoms: C_2  and  C_3 
REMARK    2  A    between atoms: C_3  and  C_4 
REMARK    3  A    between atoms: C_6  and  N_7 
REMARK    4  A    between atoms: C_9  and  C_10 
REMARK    5  A    between atoms: C_16  and  N_17 
REMARK       I    between atoms: N_17  and  C_18 
REMARK    6  A    between atoms: C_18  and  C_19 
ROOT
HETATM    1  N   UNL     1      42.654 -15.331   3.590  1.00  0.00    -0.044 N 
HETATM    2  N   UNL     1      43.042 -16.498   4.176  1.00  0.00    -0.148 NA
HETATM    3  C   UNL     1      43.157 -17.348   3.149  1.00  0.00     0.115 A 
HETATM    4  C   UNL     1      42.894 -16.726   1.908  1.00  0.00     0.087 A 
HETATM    5  C   UNL     1      42.585 -15.419   2.207  1.00  0.00     0.152 A 
ENDROOT
BRANCH   5   6
HETATM    6  N   UNL     1      42.269 -14.366   1.345  1.00  0.00    -0.310 N 
HETATM    7  C   UNL     1      40.928 -13.901   1.094  1.00  0.00     0.236 C 
HETATM    8  O   UNL     1      39.983 -14.389   1.703  1.00  0.00    -0.272 OA
HETATM    9  H   UNL     1      43.052 -13.940   0.840  1.00  0.00     0.170 HD
BRANCH   7  10
HETATM   10  C   UNL     1      40.752 -12.775   0.080  1.00  0.00     0.149 C 
HETATM   11  C   UNL     1      40.415 -11.460   0.739  1.00  0.00    -0.007 A 
HETATM   12  C   UNL     1      39.187 -10.845   0.481  1.00  0.00     0.083 A 
HETATM   13  C   UNL     1      41.322 -10.834   1.610  1.00  0.00     0.011 A 
HETATM   14  C   UNL     1      38.868  -9.626   1.081  1.00  0.00     0.038 A 
HETATM   15  O   UNL     1      38.231 -11.380  -0.345  1.00  0.00    -0.310 OA
HETATM   16  C   UNL     1      39.769  -9.016   1.952  1.00  0.00     0.003 A 
HETATM   17  C   UNL     1      40.996  -9.621   2.217  1.00  0.00     0.001 A 
HETATM   18  C   UNL     1      38.564 -12.459  -1.124  1.00  0.00     0.083 A 
HETATM   19  C   UNL     1      39.759 -13.168  -0.985  1.00  0.00    -0.007 A 
HETATM   20  C   UNL     1      37.632 -12.826  -2.096  1.00  0.00     0.038 A 
HETATM   21  C   UNL     1      40.020 -14.240  -1.855  1.00  0.00     0.011 A 
HETATM   22  C   UNL     1      39.093 -14.599  -2.833  1.00  0.00     0.001 A 
HETATM   23  C   UNL     1      37.897 -13.895  -2.952  1.00  0.00     0.003 A 
ENDBRANCH   7  10
ENDBRANCH   5   6
BRANCH   1  24
HETATM   24  C   UNL     1      42.378 -14.207   4.382  1.00  0.00     0.732 A 
HETATM   25  N   UNL     1      43.287 -13.340   4.707  1.00  0.00    -0.067 NA
HETATM   26  C   UNL     1      42.842 -12.270   5.460  1.00  0.00     0.059 A 
HETATM   27  C   UNL     1      41.583 -12.145   5.912  1.00  0.00     0.102 A 
HETATM   28  C   UNL     1      40.593 -13.176   5.562  1.00  0.00     0.261 A 
HETATM   29  N   UNL     1      41.064 -14.159   4.752  1.00  0.00    -0.152 N 
HETATM   30  O   UNL     1      39.443 -13.131   5.974  1.00  0.00    -0.268 OA
HETATM   31  H   UNL     1      40.426 -14.895   4.464  1.00  0.00     0.187 HD
BRANCH  26  32
HETATM   32  C   UNL     1      43.864 -11.197   5.760  1.00  0.00     0.060 C 
BRANCH  32  33
HETATM   33  C   UNL     1      45.085 -11.766   6.488  1.00  0.00     0.002 C 
HETATM   34  C   UNL     1      45.653 -10.773   7.490  1.00  0.00     0.005 C 
ENDBRANCH  32  33
ENDBRANCH  26  32
ENDBRANCH   1  24
BRANCH   3  35
HETATM   35  C   UNL     1      43.519 -18.784   3.320  1.00  0.00     0.105 A 
HETATM   36  O   UNL     1      43.954 -19.331   4.496  1.00  0.00    -0.320 OA
HETATM   37  C   UNL     1      44.196 -20.647   4.265  1.00  0.00     0.142 A 
HETATM   38  C   UNL     1      43.920 -20.964   2.957  1.00  0.00     0.027 A 
HETATM   39  C   UNL     1      43.483 -19.763   2.346  1.00  0.00     0.041 A 
ENDBRANCH   3  35
TORSDOF 6
ENDMDL
MODEL 3
REMARK VINA RESULT:      -9.5      2.163      7.846
REMARK  6 active torsions:
REMARK  status: ('A' for Active; 'I' for Inactive)
REMARK    1  A    between atoms: C_2  and  C_3 
REMARK    2  A    between atoms: C_3  and  C_4 
REMARK    3  A    between atoms: C_6  and  N_7 
REMARK    4  A    between atoms: C_9  and  C_10 
REMARK    5  A    between atoms: C_16  and  N_17 
REMARK       I    between atoms: N_17  and  C_18 
REMARK    6  A    between atoms: C_18  and  C_19 
ROOT
HETATM    1  N   UNL     1      42.739 -15.189   3.566  1.00  0.00    -0.044 N 
HETATM    2  N   UNL     1      43.130 -16.348   4.167  1.00  0.00    -0.148 NA
HETATM    3  C   UNL     1      43.187 -17.226   3.159  1.00  0.00     0.115 A 
HETATM    4  C   UNL     1      42.885 -16.631   1.914  1.00  0.00     0.087 A 
HETATM    5  C   UNL     1      42.612 -15.311   2.190  1.00  0.00     0.152 A 
ENDROOT
BRANCH   5   6
HETATM    6  N   UNL     1      42.281 -14.276   1.313  1.00  0.00    -0.310 N 
HETATM    7  C   UNL     1      40.935 -13.966   0.899  1.00  0.00     0.236 C 
HETATM    8  O   UNL     1      39.988 -14.585   1.371  1.00  0.00    -0.272 OA
HETATM    9  H   UNL     1      43.062 -13.741   0.921  1.00  0.00     0.170 HD
BRANCH   7  10
HETATM   10  C   UNL     1      40.751 -12.836  -0.109  1.00  0.00     0.149 C 
HETATM   11  C   UNL     1      40.482 -11.511   0.562  1.00  0.00    -0.007 A 
HETATM   12  C   UNL     1      39.265 -10.858   0.354  1.00  0.00     0.083 A 
HETATM   13  C   UNL     1      41.445 -10.913   1.392  1.00  0.00     0.011 A 
HETATM   14  C   UNL     1      39.009  -9.630   0.965  1.00  0.00     0.038 A 
HETATM   15  O   UNL     1      38.259 -11.364  -0.431  1.00  0.00    -0.310 OA
HETATM   16  C   UNL     1      39.964  -9.048   1.796  1.00  0.00     0.003 A 
HETATM   17  C   UNL     1      41.182  -9.690   2.010  1.00  0.00     0.001 A 
HETATM   18  C   UNL     1      38.525 -12.453  -1.221  1.00  0.00     0.083 A 
HETATM   19  C   UNL     1      39.702 -13.199  -1.131  1.00  0.00    -0.007 A 
HETATM   20  C   UNL     1      37.543 -12.791  -2.153  1.00  0.00     0.038 A 
HETATM   21  C   UNL     1      39.894 -14.279  -2.009  1.00  0.00     0.011 A 
HETATM   22  C   UNL     1      38.916 -14.609  -2.947  1.00  0.00     0.001 A 
HETATM   23  C   UNL     1      37.738 -13.868  -3.016  1.00  0.00     0.003 A 
ENDBRANCH   7  10
ENDBRANCH   5   6
BRANCH   1  24
HETATM   24  C   UNL     1      42.517 -14.039   4.337  1.00  0.00     0.732 A 
HETATM   25  N   UNL     1      41.481 -13.277   4.175  1.00  0.00    -0.067 NA
HETATM   26  C   UNL     1      41.393 -12.204   5.044  1.00  0.00     0.059 A 
HETATM   27  C   UNL     1      42.337 -11.895   5.948  1.00  0.00     0.102 A 
HETATM   28  C   UNL     1      43.522 -12.759   6.067  1.00  0.00     0.261 A 
HETATM   29  N   UNL     1      43.516 -13.842   5.249  1.00  0.00    -0.152 N 
HETATM   30  O   UNL     1      44.428 -12.506   6.849  1.00  0.00    -0.268 OA
HETATM   31  H   UNL     1      44.302 -14.485   5.292  1.00  0.00     0.187 HD
BRANCH  26  32
HETATM   32  C   UNL     1      40.140 -11.365   4.940  1.00  0.00     0.060 C 
BRANCH  32  33
HETATM   33  C   UNL     1      39.119 -11.738   6.018  1.00  0.00     0.002 C 
HETATM   34  C   UNL     1      39.017 -10.663   7.088  1.00  0.00     0.005 C 
ENDBRANCH  32  33
ENDBRANCH  26  32
ENDBRANCH   1  24
BRANCH   3  35
HETATM   35  C   UNL     1      43.529 -18.664   3.353  1.00  0.00     0.105 A 
HETATM   36  O   UNL     1      43.957 -19.197   4.538  1.00  0.00    -0.320 OA
HETATM   37  C   UNL     1      44.180 -20.520   4.328  1.00  0.00     0.142 A 
HETATM   38  C   UNL     1      43.899 -20.855   3.026  1.00  0.00     0.027 A 
HETATM   39  C   UNL     1      43.479 -19.658   2.396  1.00  0.00     0.041 A 
ENDBRANCH   3  35
TORSDOF 6
ENDMDL
MODEL 4
REMARK VINA RESULT:      -9.5      1.363      2.220
REMARK  6 active torsions:
REMARK  status: ('A' for Active; 'I' for Inactive)
REMARK    1  A    between atoms: C_2  and  C_3 
REMARK    2  A    between atoms: C_3  and  C_4 
REMARK    3  A    between atoms: C_6  and  N_7 
REMARK    4  A    between atoms: C_9  and  C_10 
REMARK    5  A    between atoms: C_16  and  N_17 
REMARK       I    between atoms: N_17  and  C_18 
REMARK    6  A    between atoms: C_18  and  C_19 
ROOT
HETATM    1  N   UNL     1      40.630 -13.271   1.748  1.00  0.00    -0.044 N 
HETATM    2  N   UNL     1      39.649 -12.946   0.859  1.00  0.00    -0.148 NA
HETATM    3  C   UNL     1      39.796 -13.845  -0.120  1.00  0.00     0.115 A 
HETATM    4  C   UNL     1      40.827 -14.771   0.153  1.00  0.00     0.087 A 
HETATM    5  C   UNL     1      41.347 -14.397   1.371  1.00  0.00     0.152 A 
ENDROOT
BRANCH   5   6
HETATM    6  N   UNL     1      42.371 -14.990   2.114  1.00  0.00    -0.310 N 
HETATM    7  C   UNL     1      42.160 -16.017   3.104  1.00  0.00     0.236 C 
HETATM    8  O   UNL     1      41.036 -16.470   3.290  1.00  0.00    -0.272 OA
HETATM    9  H   UNL     1      43.317 -14.630   1.957  1.00  0.00     0.170 HD
BRANCH   7  10
HETATM   10  C   UNL     1      43.381 -16.521   3.867  1.00  0.00     0.149 C 
HETATM   11  C   UNL     1      43.555 -18.015   3.744  1.00  0.00    -0.007 A 
HETATM   12  C   UNL     1      43.471 -18.822   4.881  1.00  0.00     0.083 A 
HETATM   13  C   UNL     1      43.809 -18.613   2.499  1.00  0.00     0.011 A 
HETATM   14  C   UNL     1      43.636 -20.204   4.780  1.00  0.00     0.038 A 
HETATM   15  O   UNL     1      43.217 -18.335   6.139  1.00  0.00    -0.310 OA
HETATM   16  C   UNL     1      43.877 -20.792   3.539  1.00  0.00     0.003 A 
HETATM   17  C   UNL     1      43.963 -19.996   2.399  1.00  0.00     0.001 A 
HETATM   18  C   UNL     1      43.255 -16.978   6.339  1.00  0.00     0.083 A 
HETATM   19  C   UNL     1      43.345 -16.050   5.299  1.00  0.00    -0.007 A 
HETATM   20  C   UNL     1      43.206 -16.551   7.666  1.00  0.00     0.038 A 
HETATM   21  C   UNL     1      43.411 -14.681   5.611  1.00  0.00     0.011 A 
HETATM   22  C   UNL     1      43.372 -14.257   6.939  1.00  0.00     0.001 A 
HETATM   23  C   UNL     1      43.265 -15.191   7.967  1.00  0.00     0.003 A 
ENDBRANCH   7  10
ENDBRANCH   5   6
BRANCH   1  24
HETATM   24  C   UNL     1      40.819 -12.494   2.900  1.00  0.00     0.732 A 
HETATM   25  N   UNL     1      39.851 -12.202   3.713  1.00  0.00    -0.067 NA
HETATM   26  C   UNL     1      40.213 -11.458   4.821  1.00  0.00     0.059 A 
HETATM   27  C   UNL     1      41.452 -10.984   5.031  1.00  0.00     0.102 A 
HETATM   28  C   UNL     1      42.511 -11.297   4.059  1.00  0.00     0.261 A 
HETATM   29  N   UNL     1      42.120 -12.098   3.036  1.00  0.00    -0.152 N 
HETATM   30  O   UNL     1      43.648 -10.863   4.183  1.00  0.00    -0.268 OA
HETATM   31  H   UNL     1      42.808 -12.361   2.336  1.00  0.00     0.187 HD
BRANCH  26  32
HETATM   32  C   UNL     1      39.120 -11.198   5.833  1.00  0.00     0.060 C 
BRANCH  32  33
HETATM   33  C   UNL     1      38.826  -9.702   5.974  1.00  0.00     0.002 C 
HETATM   34  C   UNL     1      38.042  -9.171   4.784  1.00  0.00     0.005 C 
ENDBRANCH  32  33
ENDBRANCH  26  32
ENDBRANCH   1  24
BRANCH   3  35
HETATM   35  C   UNL     1      38.957 -13.846  -1.353  1.00  0.00     0.105 A 
HETATM   36  O   UNL     1      39.077 -14.761  -2.363  1.00  0.00    -0.320 OA
HETATM   37  C   UNL     1      38.163 -14.437  -3.312  1.00  0.00     0.142 A 
HETATM   38  C   UNL     1      37.447 -13.328  -2.933  1.00  0.00     0.027 A 
HETATM   39  C   UNL     1      37.958 -12.946  -1.668  1.00  0.00     0.041 A 
ENDBRANCH   3  35
TORSDOF 6
ENDMDL
MODEL 5
REMARK VINA RESULT:      -9.3      2.928      8.294
REMARK  6 active torsions:
REMARK  status: ('A' for Active; 'I' for Inactive)
REMARK    1  A    between atoms: C_2  and  C_3 
REMARK    2  A    between atoms: C_3  and  C_4 
REMARK    3  A    between atoms: C_6  and  N_7 
REMARK    4  A    between atoms: C_9  and  C_10 
REMARK    5  A    between atoms: C_16  and  N_17 
REMARK       I    between atoms: N_17  and  C_18 
REMARK    6  A    between atoms: C_18  and  C_19 
ROOT
HETATM    1  N   UNL     1      43.120 -13.135   6.255  1.00  0.00    -0.044 N 
HETATM    2  N   UNL     1      43.893 -12.805   7.328  1.00  0.00    -0.148 NA
HETATM    3  C   UNL     1      43.668 -11.497   7.493  1.00  0.00     0.115 A 
HETATM    4  C   UNL     1      42.724 -10.996   6.569  1.00  0.00     0.087 A 
HETATM    5  C   UNL     1      42.367 -12.069   5.785  1.00  0.00     0.152 A 
ENDROOT
BRANCH   5   6
HETATM    6  N   UNL     1      41.447 -12.129   4.736  1.00  0.00    -0.310 N 
HETATM    7  C   UNL     1      41.751 -11.769   3.373  1.00  0.00     0.236 C 
HETATM    8  O   UNL     1      42.892 -11.447   3.061  1.00  0.00    -0.272 OA
HETATM    9  H   UNL     1      40.493 -12.411   4.981  1.00  0.00     0.170 HD
BRANCH   7  10
HETATM   10  C   UNL     1      40.615 -11.840   2.357  1.00  0.00     0.149 C 
HETATM   11  C   UNL     1      40.353 -13.250   1.890  1.00  0.00    -0.007 A 
HETATM   12  C   UNL     1      40.543 -13.588   0.548  1.00  0.00     0.083 A 
HETATM   13  C   UNL     1      39.910 -14.237   2.786  1.00  0.00     0.011 A 
HETATM   14  C   UNL     1      40.298 -14.888   0.105  1.00  0.00     0.038 A 
HETATM   15  O   UNL     1      40.981 -12.699  -0.401  1.00  0.00    -0.310 OA
HETATM   16  C   UNL     1      39.869 -15.865   1.002  1.00  0.00     0.003 A 
HETATM   17  C   UNL     1      39.676 -15.539   2.343  1.00  0.00     0.001 A 
HETATM   18  C   UNL     1      41.038 -11.367  -0.079  1.00  0.00     0.083 A 
HETATM   19  C   UNL     1      40.860 -10.881   1.218  1.00  0.00    -0.007 A 
HETATM   20  C   UNL     1      41.279 -10.489  -1.136  1.00  0.00     0.038 A 
HETATM   21  C   UNL     1      40.903  -9.494   1.439  1.00  0.00     0.011 A 
HETATM   22  C   UNL     1      41.135  -8.617   0.379  1.00  0.00     0.001 A 
HETATM   23  C   UNL     1      41.327  -9.114  -0.908  1.00  0.00     0.003 A 
ENDBRANCH   7  10
ENDBRANCH   5   6
BRANCH   1  24
HETATM   24  C   UNL     1      43.144 -14.443   5.750  1.00  0.00     0.732 A 
HETATM   25  N   UNL     1      43.076 -14.705   4.481  1.00  0.00    -0.067 NA
HETATM   26  C   UNL     1      43.150 -16.044   4.149  1.00  0.00     0.059 A 
HETATM   27  C   UNL     1      43.205 -17.038   5.052  1.00  0.00     0.102 A 
HETATM   28  C   UNL     1      43.230 -16.700   6.484  1.00  0.00     0.261 A 
HETATM   29  N   UNL     1      43.240 -15.369   6.750  1.00  0.00    -0.152 N 
HETATM   30  O   UNL     1      43.245 -17.564   7.349  1.00  0.00    -0.268 OA
HETATM   31  H   UNL     1      43.269 -15.071   7.721  1.00  0.00     0.187 HD
BRANCH  26  32
HETATM   32  C   UNL     1      43.178 -16.362   2.671  1.00  0.00     0.060 C 
BRANCH  32  33
HETATM   33  C   UNL     1      42.547 -17.725   2.374  1.00  0.00     0.002 C 
HETATM   34  C   UNL     1      43.600 -18.815   2.248  1.00  0.00     0.005 C 
ENDBRANCH  32  33
ENDBRANCH  26  32
ENDBRANCH   1  24
BRANCH   3  35
HETATM   35  C   UNL     1      44.351 -10.681   8.537  1.00  0.00     0.105 A 
HETATM   36  O   UNL     1      43.775 -10.311   9.721  1.00  0.00    -0.320 OA
HETATM   37  C   UNL     1      44.688  -9.572  10.401  1.00  0.00     0.142 A 
HETATM   38  C   UNL     1      45.851  -9.460   9.679  1.00  0.00     0.027 A 
HETATM   39  C   UNL     1      45.635 -10.175   8.476  1.00  0.00     0.041 A 
ENDBRANCH   3  35
TORSDOF 6
ENDMDL
MODEL 6
REMARK VINA RESULT:      -9.2      2.136      6.831
REMARK  6 active torsions:
REMARK  status: ('A' for Active; 'I' for Inactive)
REMARK    1  A    between atoms: C_2  and  C_3 
REMARK    2  A    between atoms: C_3  and  C_4 
REMARK    3  A    between atoms: C_6  and  N_7 
REMARK    4  A    between atoms: C_9  and  C_10 
REMARK    5  A    between atoms: C_16  and  N_17 
REMARK       I    between atoms: N_17  and  C_18 
REMARK    6  A    between atoms: C_18  and  C_19 
ROOT
HETATM    1  N   UNL     1      42.386 -15.060   3.746  1.00  0.00    -0.044 N 
HETATM    2  N   UNL     1      42.972 -16.210   4.184  1.00  0.00    -0.148 NA
HETATM    3  C   UNL     1      42.843 -17.047   3.148  1.00  0.00     0.115 A 
HETATM    4  C   UNL     1      42.223 -16.433   2.037  1.00  0.00     0.087 A 
HETATM    5  C   UNL     1      41.947 -15.144   2.433  1.00  0.00     0.152 A 
ENDROOT
BRANCH   5   6
HETATM    6  N   UNL     1      41.361 -14.104   1.708  1.00  0.00    -0.310 N 
HETATM    7  C   UNL     1      39.958 -13.772   1.762  1.00  0.00     0.236 C 
HETATM    8  O   UNL     1      39.212 -14.373   2.526  1.00  0.00    -0.272 OA
HETATM    9  H   UNL     1      41.976 -13.584   1.076  1.00  0.00     0.170 HD
BRANCH   7  10
HETATM   10  C   UNL     1      39.469 -12.640   0.864  1.00  0.00     0.149 C 
HETATM   11  C   UNL     1      39.979 -12.771  -0.550  1.00  0.00    -0.007 A 
HETATM   12  C   UNL     1      40.823 -11.793  -1.081  1.00  0.00     0.083 A 
HETATM   13  C   UNL     1      39.613 -13.865  -1.352  1.00  0.00     0.011 A 
HETATM   14  C   UNL     1      41.296 -11.902  -2.389  1.00  0.00     0.038 A 
HETATM   15  O   UNL     1      41.245 -10.693  -0.376  1.00  0.00    -0.310 OA
HETATM   16  C   UNL     1      40.937 -12.995  -3.176  1.00  0.00     0.003 A 
HETATM   17  C   UNL     1      40.096 -13.977  -2.656  1.00  0.00     0.001 A 
HETATM   18  C   UNL     1      40.654 -10.419   0.831  1.00  0.00     0.083 A 
HETATM   19  C   UNL     1      39.783 -11.299   1.478  1.00  0.00    -0.007 A 
HETATM   20  C   UNL     1      40.963  -9.183   1.400  1.00  0.00     0.038 A 
HETATM   21  C   UNL     1      39.203 -10.910   2.698  1.00  0.00     0.011 A 
HETATM   22  C   UNL     1      39.505  -9.670   3.260  1.00  0.00     0.001 A 
HETATM   23  C   UNL     1      40.388  -8.807   2.613  1.00  0.00     0.003 A 
ENDBRANCH   7  10
ENDBRANCH   5   6
BRANCH   1  24
HETATM   24  C   UNL     1      42.285 -13.955   4.604  1.00  0.00     0.732 A 
HETATM   25  N   UNL     1      43.301 -13.208   4.905  1.00  0.00    -0.067 NA
HETATM   26  C   UNL     1      43.024 -12.136   5.733  1.00  0.00     0.059 A 
HETATM   27  C   UNL     1      41.816 -11.901   6.273  1.00  0.00     0.102 A 
HETATM   28  C   UNL     1      40.700 -12.802   5.945  1.00  0.00     0.261 A 
HETATM   29  N   UNL     1      41.009 -13.786   5.063  1.00  0.00    -0.152 N 
HETATM   30  O   UNL     1      39.589 -12.655   6.435  1.00  0.00    -0.268 OA
HETATM   31  H   UNL     1      40.277 -14.435   4.786  1.00  0.00     0.187 HD
BRANCH  26  32
HETATM   32  C   UNL     1      44.174 -11.195   6.011  1.00  0.00     0.060 C 
BRANCH  32  33
HETATM   33  C   UNL     1      44.655 -11.302   7.460  1.00  0.00     0.002 C 
HETATM   34  C   UNL     1      46.070 -10.769   7.622  1.00  0.00     0.005 C 
ENDBRANCH  32  33
ENDBRANCH  26  32
ENDBRANCH   1  24
BRANCH   3  35
HETATM   35  C   UNL     1      43.303 -18.464   3.188  1.00  0.00     0.105 A 
HETATM   36  O   UNL     1      43.876 -19.055   4.281  1.00  0.00    -0.320 OA
HETATM   37  C   UNL     1      44.173 -20.335   3.940  1.00  0.00     0.142 A 
HETATM   38  C   UNL     1      43.798 -20.586   2.643  1.00  0.00     0.027 A 
HETATM   39  C   UNL     1      43.236 -19.380   2.157  1.00  0.00     0.041 A 
ENDBRANCH   3  35
TORSDOF 6
ENDMDL
MODEL 7
REMARK VINA RESULT:      -9.2      1.967      3.712
REMARK  6 active torsions:
REMARK  status: ('A' for Active; 'I' for Inactive)
REMARK    1  A    between atoms: C_2  and  C_3 
REMARK    2  A    between atoms: C_3  and  C_4 
REMARK    3  A    between atoms: C_6  and  N_7 
REMARK    4  A    between atoms: C_9  and  C_10 
REMARK    5  A    between atoms: C_16  and  N_17 
REMARK       I    between atoms: N_17  and  C_18 
REMARK    6  A    between atoms: C_18  and  C_19 
ROOT
HETATM    1  N   UNL     1      41.678 -12.234   2.307  1.00  0.00    -0.044 N 
HETATM    2  N   UNL     1      41.570 -11.370   1.259  1.00  0.00    -0.148 NA
HETATM    3  C   UNL     1      41.227 -12.156   0.232  1.00  0.00     0.115 A 
HETATM    4  C   UNL     1      41.068 -13.504   0.620  1.00  0.00     0.087 A 
HETATM    5  C   UNL     1      41.348 -13.538   1.967  1.00  0.00     0.152 A 
ENDROOT
BRANCH   5   6
HETATM    6  N   UNL     1      41.315 -14.620   2.849  1.00  0.00    -0.310 N 
HETATM    7  C   UNL     1      42.405 -15.546   3.034  1.00  0.00     0.236 C 
HETATM    8  O   UNL     1      43.466 -15.371   2.447  1.00  0.00    -0.272 OA
HETATM    9  H   UNL     1      40.438 -14.769   3.357  1.00  0.00     0.170 HD
BRANCH   7  10
HETATM   10  C   UNL     1      42.186 -16.708   3.998  1.00  0.00     0.149 C 
HETATM   11  C   UNL     1      42.571 -16.356   5.414  1.00  0.00    -0.007 A 
HETATM   12  C   UNL     1      43.615 -17.039   6.042  1.00  0.00     0.083 A 
HETATM   13  C   UNL     1      41.890 -15.350   6.120  1.00  0.00     0.011 A 
HETATM   14  C   UNL     1      43.976 -16.725   7.353  1.00  0.00     0.038 A 
HETATM   15  O   UNL     1      44.346 -18.029   5.436  1.00  0.00    -0.310 OA
HETATM   16  C   UNL     1      43.303 -15.719   8.044  1.00  0.00     0.003 A 
HETATM   17  C   UNL     1      42.260 -15.031   7.426  1.00  0.00     0.001 A 
HETATM   18  C   UNL     1      43.910 -18.526   4.234  1.00  0.00     0.083 A 
HETATM   19  C   UNL     1      42.872 -17.953   3.496  1.00  0.00    -0.007 A 
HETATM   20  C   UNL     1      44.561 -19.670   3.769  1.00  0.00     0.038 A 
HETATM   21  C   UNL     1      42.477 -18.559   2.291  1.00  0.00     0.011 A 
HETATM   22  C   UNL     1      43.122 -19.708   1.833  1.00  0.00     0.001 A 
HETATM   23  C   UNL     1      44.167 -20.261   2.570  1.00  0.00     0.003 A 
ENDBRANCH   7  10
ENDBRANCH   5   6
BRANCH   1  24
HETATM   24  C   UNL     1      42.083 -11.763   3.564  1.00  0.00     0.732 A 
HETATM   25  N   UNL     1      42.975 -12.371   4.285  1.00  0.00    -0.067 NA
HETATM   26  C   UNL     1      43.287 -11.755   5.482  1.00  0.00     0.059 A 
HETATM   27  C   UNL     1      42.674 -10.650   5.938  1.00  0.00     0.102 A 
HETATM   28  C   UNL     1      41.633 -10.019   5.111  1.00  0.00     0.261 A 
HETATM   29  N   UNL     1      41.425 -10.617   3.911  1.00  0.00    -0.152 N 
HETATM   30  O   UNL     1      41.018  -9.032   5.492  1.00  0.00    -0.268 OA
HETATM   31  H   UNL     1      40.727 -10.221   3.288  1.00  0.00     0.187 HD
BRANCH  26  32
HETATM   32  C   UNL     1      44.398 -12.391   6.287  1.00  0.00     0.060 C 
BRANCH  32  33
HETATM   33  C   UNL     1      45.601 -11.454   6.429  1.00  0.00     0.002 C 
HETATM   34  C   UNL     1      45.721 -10.906   7.842  1.00  0.00     0.005 C 
ENDBRANCH  32  33
ENDBRANCH  26  32
ENDBRANCH   1  24
BRANCH   3  35
HETATM   35  C   UNL     1      41.045 -11.643  -1.156  1.00  0.00     0.105 A 
HETATM   36  O   UNL     1      40.758 -12.434  -2.235  1.00  0.00    -0.320 OA
HETATM   37  C   UNL     1      40.678 -11.624  -3.321  1.00  0.00     0.142 A 
HETATM   38  C   UNL     1      40.905 -10.317  -2.963  1.00  0.00     0.027 A 
HETATM   39  C   UNL     1      41.141 -10.328  -1.567  1.00  0.00     0.041 A 
ENDBRANCH   3  35
TORSDOF 6
ENDMDL
MODEL 8
REMARK VINA RESULT:      -9.1      2.116      7.248
REMARK  6 active torsions:
REMARK  status: ('A' for Active; 'I' for Inactive)
REMARK    1  A    between atoms: C_2  and  C_3 
REMARK    2  A    between atoms: C_3  and  C_4 
REMARK    3  A    between atoms: C_6  and  N_7 
REMARK    4  A    between atoms: C_9  and  C_10 
REMARK    5  A    between atoms: C_16  and  N_17 
REMARK       I    between atoms: N_17  and  C_18 
REMARK    6  A    between atoms: C_18  and  C_19 
ROOT
HETATM    1  N   UNL     1      41.791 -15.034   2.223  1.00  0.00    -0.044 N 
HETATM    2  N   UNL     1      41.806 -16.388   2.066  1.00  0.00    -0.148 NA
HETATM    3  C   UNL     1      42.781 -16.793   2.888  1.00  0.00     0.115 A 
HETATM    4  C   UNL     1      43.357 -15.720   3.605  1.00  0.00     0.087 A 
HETATM    5  C   UNL     1      42.696 -14.592   3.176  1.00  0.00     0.152 A 
ENDROOT
BRANCH   5   6
HETATM    6  N   UNL     1      42.858 -13.265   3.584  1.00  0.00    -0.310 N 
HETATM    7  C   UNL     1      42.358 -12.735   4.827  1.00  0.00     0.236 C 
HETATM    8  O   UNL     1      41.805 -13.474   5.634  1.00  0.00    -0.272 OA
HETATM    9  H   UNL     1      43.331 -12.640   2.924  1.00  0.00     0.170 HD
BRANCH   7  10
HETATM   10  C   UNL     1      42.572 -11.249   5.095  1.00  0.00     0.149 C 
HETATM   11  C   UNL     1      43.641 -11.004   6.133  1.00  0.00    -0.007 A 
HETATM   12  C   UNL     1      43.311 -10.386   7.341  1.00  0.00     0.083 A 
HETATM   13  C   UNL     1      44.973 -11.382   5.900  1.00  0.00     0.011 A 
HETATM   14  C   UNL     1      44.293 -10.150   8.305  1.00  0.00     0.038 A 
HETATM   15  O   UNL     1      42.038  -9.989   7.666  1.00  0.00    -0.310 OA
HETATM   16  C   UNL     1      45.611 -10.538   8.072  1.00  0.00     0.003 A 
HETATM   17  C   UNL     1      45.951 -11.155   6.870  1.00  0.00     0.001 A 
HETATM   18  C   UNL     1      41.076  -9.999   6.688  1.00  0.00     0.083 A 
HETATM   19  C   UNL     1      41.265 -10.573   5.430  1.00  0.00    -0.007 A 
HETATM   20  C   UNL     1      39.865  -9.386   7.012  1.00  0.00     0.038 A 
HETATM   21  C   UNL     1      40.228 -10.502   4.485  1.00  0.00     0.011 A 
HETATM   22  C   UNL     1      39.021  -9.881   4.806  1.00  0.00     0.001 A 
HETATM   23  C   UNL     1      38.838  -9.326   6.070  1.00  0.00     0.003 A 
ENDBRANCH   7  10
ENDBRANCH   5   6
BRANCH   1  24
HETATM   24  C   UNL     1      40.912 -14.250   1.462  1.00  0.00     0.732 A 
HETATM   25  N   UNL     1      40.058 -13.435   1.998  1.00  0.00    -0.067 NA
HETATM   26  C   UNL     1      39.292 -12.708   1.105  1.00  0.00     0.059 A 
HETATM   27  C   UNL     1      39.343 -12.869  -0.228  1.00  0.00     0.102 A 
HETATM   28  C   UNL     1      40.292 -13.840  -0.794  1.00  0.00     0.261 A 
HETATM   29  N   UNL     1      41.076 -14.464   0.122  1.00  0.00    -0.152 N 
HETATM   30  O   UNL     1      40.356 -14.052  -1.997  1.00  0.00    -0.268 OA
HETATM   31  H   UNL     1      41.761 -15.139  -0.207  1.00  0.00     0.187 HD
BRANCH  26  32
HETATM   32  C   UNL     1      38.365 -11.677   1.709  1.00  0.00     0.060 C 
BRANCH  32  33
HETATM   33  C   UNL     1      37.358 -11.153   0.682  1.00  0.00     0.002 C 
HETATM   34  C   UNL     1      36.846  -9.771   1.054  1.00  0.00     0.005 C 
ENDBRANCH  32  33
ENDBRANCH  26  32
ENDBRANCH   1  24
BRANCH   3  35
HETATM   35  C   UNL     1      43.197 -18.219   3.012  1.00  0.00     0.105 A 
HETATM   36  O   UNL     1      43.810 -18.747   4.116  1.00  0.00    -0.320 OA
HETATM   37  C   UNL     1      44.046 -20.058   3.858  1.00  0.00     0.142 A 
HETATM   38  C   UNL     1      43.592 -20.392   2.606  1.00  0.00     0.027 A 
HETATM   39  C   UNL     1      43.044 -19.206   2.059  1.00  0.00     0.041 A 
ENDBRANCH   3  35
TORSDOF 6
ENDMDL
MODEL 9
REMARK VINA RESULT:      -8.3     15.459     18.404
REMARK  6 active torsions:
REMARK  status: ('A' for Active; 'I' for Inactive)
REMARK    1  A    between atoms: C_2  and  C_3 
REMARK    2  A    between atoms: C_3  and  C_4 
REMARK    3  A    between atoms: C_6  and  N_7 
REMARK    4  A    between atoms: C_9  and  C_10 
REMARK    5  A    between atoms: C_16  and  N_17 
REMARK       I    between atoms: N_17  and  C_18 
REMARK    6  A    between atoms: C_18  and  C_19 
ROOT
HETATM    1  N   UNL     1      50.006 -31.036   0.495  1.00  0.00    -0.044 N 
HETATM    2  N   UNL     1      51.269 -31.434   0.175  1.00  0.00    -0.148 NA
HETATM    3  C   UNL     1      51.240 -31.543  -1.158  1.00  0.00     0.115 A 
HETATM    4  C   UNL     1      49.988 -31.173  -1.698  1.00  0.00     0.087 A 
HETATM    5  C   UNL     1      49.205 -30.833  -0.619  1.00  0.00     0.152 A 
ENDROOT
BRANCH   5   6
HETATM    6  N   UNL     1      47.887 -30.371  -0.595  1.00  0.00    -0.310 N 
HETATM    7  C   UNL     1      47.520 -28.980  -0.501  1.00  0.00     0.236 C 
HETATM    8  O   UNL     1      48.386 -28.113  -0.505  1.00  0.00    -0.272 OA
HETATM    9  H   UNL     1      47.153 -31.085  -0.605  1.00  0.00     0.170 HD
BRANCH   7  10
HETATM   10  C   UNL     1      46.032 -28.648  -0.430  1.00  0.00     0.149 C 
HETATM   11  C   UNL     1      45.336 -29.383   0.688  1.00  0.00    -0.007 A 
HETATM   12  C   UNL     1      44.329 -30.306   0.396  1.00  0.00     0.083 A 
HETATM   13  C   UNL     1      45.679 -29.150   2.030  1.00  0.00     0.011 A 
HETATM   14  C   UNL     1      43.675 -30.987   1.423  1.00  0.00     0.038 A 
HETATM   15  O   UNL     1      43.928 -30.611  -0.881  1.00  0.00    -0.310 OA
HETATM   16  C   UNL     1      44.028 -30.759   2.752  1.00  0.00     0.003 A 
HETATM   17  C   UNL     1      45.032 -29.840   3.055  1.00  0.00     0.001 A 
HETATM   18  C   UNL     1      44.379 -29.830  -1.915  1.00  0.00     0.083 A 
HETATM   19  C   UNL     1      45.375 -28.862  -1.771  1.00  0.00    -0.007 A 
HETATM   20  C   UNL     1      43.776 -30.045  -3.155  1.00  0.00     0.038 A 
HETATM   21  C   UNL     1      45.743 -28.090  -2.886  1.00  0.00     0.011 A 
HETATM   22  C   UNL     1      45.132 -28.300  -4.123  1.00  0.00     0.001 A 
HETATM   23  C   UNL     1      44.151 -29.280  -4.259  1.00  0.00     0.003 A 
ENDBRANCH   7  10
ENDBRANCH   5   6
BRANCH   1  24
HETATM   24  C   UNL     1      49.644 -30.869   1.840  1.00  0.00     0.732 A 
HETATM   25  N   UNL     1      49.469 -31.869   2.647  1.00  0.00    -0.067 NA
HETATM   26  C   UNL     1      49.151 -31.530   3.949  1.00  0.00     0.059 A 
HETATM   27  C   UNL     1      48.948 -30.269   4.366  1.00  0.00     0.102 A 
HETATM   28  C   UNL     1      49.108 -29.165   3.406  1.00  0.00     0.261 A 
HETATM   29  N   UNL     1      49.502 -29.549   2.165  1.00  0.00    -0.152 N 
HETATM   30  O   UNL     1      48.902 -28.002   3.722  1.00  0.00    -0.268 OA
HETATM   31  H   UNL     1      49.642 -28.832   1.459  1.00  0.00     0.187 HD
BRANCH  26  32
HETATM   32  C   UNL     1      49.047 -32.677   4.929  1.00  0.00     0.060 C 
BRANCH  32  33
HETATM   33  C   UNL     1      50.004 -32.501   6.110  1.00  0.00     0.002 C 
HETATM   34  C   UNL     1      51.456 -32.637   5.680  1.00  0.00     0.005 C 
ENDBRANCH  32  33
ENDBRANCH  26  32
ENDBRANCH   1  24
BRANCH   3  35
HETATM   35  C   UNL     1      52.407 -32.009  -1.960  1.00  0.00     0.105 A 
HETATM   36  O   UNL     1      52.494 -31.906  -3.322  1.00  0.00    -0.320 OA
HETATM   37  C   UNL     1      53.684 -32.443  -3.692  1.00  0.00     0.142 A 
HETATM   38  C   UNL     1      54.375 -32.888  -2.592  1.00  0.00     0.027 A 
HETATM   39  C   UNL     1      53.552 -32.609  -1.473  1.00  0.00     0.041 A 
ENDBRANCH   3  35
TORSDOF 6
ENDMDL
MODEL 10
REMARK VINA RESULT:      -8.2      2.872      8.099
REMARK  6 active torsions:
REMARK  status: ('A' for Active; 'I' for Inactive)
REMARK    1  A    between atoms: C_2  and  C_3 
REMARK    2  A    between atoms: C_3  and  C_4 
REMARK    3  A    between atoms: C_6  and  N_7 
REMARK    4  A    between atoms: C_9  and  C_10 
REMARK    5  A    between atoms: C_16  and  N_17 
REMARK       I    between atoms: N_17  and  C_18 
REMARK    6  A    between atoms: C_18  and  C_19 
ROOT
HETATM    1  N   UNL     1      40.829 -14.860   1.392  1.00  0.00    -0.044 N 
HETATM    2  N   UNL     1      41.703 -15.904   1.353  1.00  0.00    -0.148 NA
HETATM    3  C   UNL     1      41.808 -16.279   2.632  1.00  0.00     0.115 A 
HETATM    4  C   UNL     1      40.976 -15.519   3.483  1.00  0.00     0.087 A 
HETATM    5  C   UNL     1      40.337 -14.616   2.666  1.00  0.00     0.152 A 
ENDROOT
BRANCH   5   6
HETATM    6  N   UNL     1      39.386 -13.646   2.993  1.00  0.00    -0.310 N 
HETATM    7  C   UNL     1      39.700 -12.267   3.271  1.00  0.00     0.236 C 
HETATM    8  O   UNL     1      40.853 -11.864   3.161  1.00  0.00    -0.272 OA
HETATM    9  H   UNL     1      38.416 -13.967   3.075  1.00  0.00     0.170 HD
BRANCH   7  10
HETATM   10  C   UNL     1      38.548 -11.349   3.668  1.00  0.00     0.149 C 
HETATM   11  C   UNL     1      38.055 -10.517   2.509  1.00  0.00    -0.007 A 
HETATM   12  C   UNL     1      38.163  -9.125   2.553  1.00  0.00     0.083 A 
HETATM   13  C   UNL     1      37.478 -11.122   1.380  1.00  0.00     0.011 A 
HETATM   14  C   UNL     1      37.705  -8.347   1.490  1.00  0.00     0.038 A 
HETATM   15  O   UNL     1      38.719  -8.442   3.606  1.00  0.00    -0.310 OA
HETATM   16  C   UNL     1      37.144  -8.954   0.367  1.00  0.00     0.003 A 
HETATM   17  C   UNL     1      37.031 -10.342   0.313  1.00  0.00     0.001 A 
HETATM   18  C   UNL     1      38.994  -9.126   4.763  1.00  0.00     0.083 A 
HETATM   19  C   UNL     1      38.920 -10.517   4.870  1.00  0.00    -0.007 A 
HETATM   20  C   UNL     1      39.352  -8.350   5.865  1.00  0.00     0.038 A 
HETATM   21  C   UNL     1      39.189 -11.120   6.110  1.00  0.00     0.011 A 
HETATM   22  C   UNL     1      39.537 -10.342   7.214  1.00  0.00     0.001 A 
HETATM   23  C   UNL     1      39.623  -8.957   7.091  1.00  0.00     0.003 A 
ENDBRANCH   7  10
ENDBRANCH   5   6
BRANCH   1  24
HETATM   24  C   UNL     1      40.513 -14.165   0.215  1.00  0.00     0.732 A 
HETATM   25  N   UNL     1      40.985 -12.986  -0.050  1.00  0.00    -0.067 NA
HETATM   26  C   UNL     1      40.605 -12.457  -1.269  1.00  0.00     0.059 A 
HETATM   27  C   UNL     1      39.746 -13.056  -2.110  1.00  0.00     0.102 A 
HETATM   28  C   UNL     1      39.195 -14.373  -1.750  1.00  0.00     0.261 A 
HETATM   29  N   UNL     1      39.665 -14.881  -0.583  1.00  0.00    -0.152 N 
HETATM   30  O   UNL     1      38.383 -14.947  -2.461  1.00  0.00    -0.268 OA
HETATM   31  H   UNL     1      39.332 -15.793  -0.284  1.00  0.00     0.187 HD
BRANCH  26  32
HETATM   32  C   UNL     1      41.228 -11.130  -1.641  1.00  0.00     0.060 C 
BRANCH  32  33
HETATM   33  C   UNL     1      40.371  -9.952  -1.170  1.00  0.00     0.002 C 
HETATM   34  C   UNL     1      39.657  -9.279  -2.332  1.00  0.00     0.005 C 
ENDBRANCH  32  33
ENDBRANCH  26  32
ENDBRANCH   1  24
BRANCH   3  35
HETATM   35  C   UNL     1      42.713 -17.375   3.085  1.00  0.00     0.105 A 
HETATM   36  O   UNL     1      43.341 -17.399   4.300  1.00  0.00    -0.320 OA
HETATM   37  C   UNL     1      44.083 -18.535   4.348  1.00  0.00     0.142 A 
HETATM   38  C   UNL     1      43.942 -19.251   3.185  1.00  0.00     0.027 A 
HETATM   39  C   UNL     1      43.059 -18.504   2.369  1.00  0.00     0.041 A 
ENDBRANCH   3  35
TORSDOF 6
ENDMDL
