MODEL 1
REMARK VINA RESULT:      -8.3      0.000      0.000
REMARK  5 active torsions:
REMARK  status: ('A' for Active; 'I' for Inactive)
REMARK    1  A    between atoms: C_3  and  O_4 
REMARK    2  A    between atoms: O_4  and  C_5 
REMARK    3  A    between atoms: C_5  and  C_6 
REMARK       I    between atoms: C_6  and  N_7 
REMARK    4  A    between atoms: N_7  and  C_8 
REMARK    5  A    between atoms: C_14  and  C_15 
ROOT
HETATM    1  C   UNL     1      43.997 -18.423   4.552  1.00  0.00     0.137 A 
HETATM    2  N   UNL     1      44.426 -19.713   4.742  1.00  0.00    -0.262 N 
HETATM    3  H   UNL     1      44.875 -20.082   5.577  1.00  0.00     0.191 HD
HETATM    4  N   UNL     1      44.214 -20.519   3.687  1.00  0.00    -0.177 NA
HETATM    5  C   UNL     1      43.614 -19.725   2.792  1.00  0.00     0.065 A 
HETATM    6  C   UNL     1      43.194 -20.278   1.480  1.00  0.00     0.073 C 
HETATM    7  C   UNL     1      43.458 -18.396   3.281  1.00  0.00     0.046 A 
ENDROOT
BRANCH   1   8
HETATM    8  N   UNL     1      44.127 -17.424   5.504  1.00  0.00    -0.309 N 
HETATM    9  C   UNL     1      43.667 -17.591   6.806  1.00  0.00     0.247 C 
HETATM   10  O   UNL     1      43.170 -18.638   7.222  1.00  0.00    -0.271 OA
HETATM   11  H   UNL     1      44.553 -16.552   5.214  1.00  0.00     0.170 HD
BRANCH   9  12
HETATM   12  C   UNL     1      43.840 -16.338   7.666  1.00  0.00     0.278 C 
BRANCH  12  13
HETATM   13  O   UNL     1      42.622 -15.607   7.686  1.00  0.00    -0.342 OA
BRANCH  13  14
HETATM   14  C   UNL     1      42.390 -14.736   6.658  1.00  0.00     0.075 A 
HETATM   15  C   UNL     1      41.146 -14.872   6.015  1.00  0.00    -0.029 A 
HETATM   16  C   UNL     1      40.162 -15.920   6.458  1.00  0.00     0.051 C 
HETATM   17  C   UNL     1      40.816 -14.009   4.960  1.00  0.00     0.009 A 
HETATM   18  C   UNL     1      41.711 -13.024   4.545  1.00  0.00     0.001 A 
HETATM   19  C   UNL     1      42.938 -12.888   5.187  1.00  0.00     0.003 A 
HETATM   20  C   UNL     1      43.277 -13.738   6.244  1.00  0.00     0.037 A 
ENDBRANCH  13  14
ENDBRANCH  12  13
ENDBRANCH   9  12
ENDBRANCH   1   8
BRANCH   7  21
HETATM   21  C   UNL     1      42.877 -17.231   2.645  1.00  0.00    -0.020 A 
HETATM   22  C   UNL     1      43.695 -16.211   2.140  1.00  0.00     0.014 A 
HETATM   23  C   UNL     1      43.126 -15.084   1.541  1.00  0.00     0.020 A 
HETATM   24  C   UNL     1      41.739 -14.974   1.452  1.00  0.00     0.011 A 
HETATM   25 BR   UNL     1      40.969 -13.446   0.649  1.00  0.00    -0.051 Br
HETATM   26  C   UNL     1      40.916 -15.979   1.957  1.00  0.00     0.020 A 
HETATM   27  C   UNL     1      41.484 -17.106   2.553  1.00  0.00     0.014 A 
ENDBRANCH   7  21
TORSDOF 5
ENDMDL
MODEL 2
REMARK VINA RESULT:      -7.9      2.050      5.495
REMARK  5 active torsions:
REMARK  status: ('A' for Active; 'I' for Inactive)
REMARK    1  A    between atoms: C_3  and  O_4 
REMARK    2  A    between atoms: O_4  and  C_5 
REMARK    3  A    between atoms: C_5  and  C_6 
REMARK       I    between atoms: C_6  and  N_7 
REMARK    4  A    between atoms: N_7  and  C_8 
REMARK    5  A    between atoms: C_14  and  C_15 
ROOT
HETATM    1  C   UNL     1      43.252 -13.854   6.199  1.00  0.00     0.137 A 
HETATM    2  N   UNL     1      43.615 -13.079   7.272  1.00  0.00    -0.262 N 
HETATM    3  H   UNL     1      44.140 -13.388   8.087  1.00  0.00     0.191 HD
HETATM    4  N   UNL     1      43.204 -11.802   7.188  1.00  0.00    -0.177 NA
HETATM    5  C   UNL     1      42.566 -11.748   6.012  1.00  0.00     0.065 A 
HETATM    6  C   UNL     1      41.982 -10.464   5.549  1.00  0.00     0.073 C 
HETATM    7  C   UNL     1      42.560 -13.010   5.351  1.00  0.00     0.046 A 
ENDROOT
BRANCH   1   8
HETATM    8  N   UNL     1      43.561 -15.199   6.085  1.00  0.00    -0.309 N 
HETATM    9  C   UNL     1      42.826 -16.176   6.748  1.00  0.00     0.247 C 
HETATM   10  O   UNL     1      41.830 -15.933   7.428  1.00  0.00    -0.271 OA
HETATM   11  H   UNL     1      44.359 -15.451   5.515  1.00  0.00     0.170 HD
BRANCH   9  12
HETATM   12  C   UNL     1      43.387 -17.586   6.547  1.00  0.00     0.278 C 
BRANCH  12  13
HETATM   13  O   UNL     1      44.197 -17.610   5.380  1.00  0.00    -0.342 OA
BRANCH  13  14
HETATM   14  C   UNL     1      43.964 -18.604   4.469  1.00  0.00     0.075 A 
HETATM   15  C   UNL     1      43.503 -18.179   3.210  1.00  0.00    -0.029 A 
HETATM   16  C   UNL     1      43.291 -16.717   2.922  1.00  0.00     0.051 C 
HETATM   17  C   UNL     1      43.255 -19.129   2.208  1.00  0.00     0.009 A 
HETATM   18  C   UNL     1      43.459 -20.486   2.455  1.00  0.00     0.001 A 
HETATM   19  C   UNL     1      43.921 -20.903   3.699  1.00  0.00     0.003 A 
HETATM   20  C   UNL     1      44.177 -19.965   4.704  1.00  0.00     0.037 A 
ENDBRANCH  13  14
ENDBRANCH  12  13
ENDBRANCH   9  12
ENDBRANCH   1   8
BRANCH   7  21
HETATM   21  C   UNL     1      41.982 -13.394   4.080  1.00  0.00    -0.020 A 
HETATM   22  C   UNL     1      42.622 -13.069   2.877  1.00  0.00     0.014 A 
HETATM   23  C   UNL     1      42.051 -13.433   1.655  1.00  0.00     0.020 A 
HETATM   24  C   UNL     1      40.835 -14.115   1.635  1.00  0.00     0.011 A 
HETATM   25 BR   UNL     1      40.057 -14.599  -0.018  1.00  0.00    -0.051 Br
HETATM   26  C   UNL     1      40.186 -14.437   2.826  1.00  0.00     0.020 A 
HETATM   27  C   UNL     1      40.759 -14.077   4.048  1.00  0.00     0.014 A 
ENDBRANCH   7  21
TORSDOF 5
ENDMDL
MODEL 3
REMARK VINA RESULT:      -7.9      1.283      2.069
REMARK  5 active torsions:
REMARK  status: ('A' for Active; 'I' for Inactive)
REMARK    1  A    between atoms: C_3  and  O_4 
REMARK    2  A    between atoms: O_4  and  C_5 
REMARK    3  A    between atoms: C_5  and  C_6 
REMARK       I    between atoms: C_6  and  N_7 
REMARK    4  A    between atoms: N_7  and  C_8 
REMARK    5  A    between atoms: C_14  and  C_15 
ROOT
HETATM    1  C   UNL     1      43.819 -17.215   4.660  1.00  0.00     0.137 A 
HETATM    2  N   UNL     1      44.476 -18.336   5.105  1.00  0.00    -0.262 N 
HETATM    3  H   UNL     1      44.997 -18.424   5.975  1.00  0.00     0.191 HD
HETATM    4  N   UNL     1      44.396 -19.384   4.267  1.00  0.00    -0.177 NA
HETATM    5  C   UNL     1      43.649 -18.927   3.253  1.00  0.00     0.065 A 
HETATM    6  C   UNL     1      43.315 -19.826   2.120  1.00  0.00     0.073 C 
HETATM    7  C   UNL     1      43.265 -17.569   3.446  1.00  0.00     0.046 A 
ENDROOT
BRANCH   1   8
HETATM    8  N   UNL     1      43.783 -16.020   5.360  1.00  0.00    -0.309 N 
HETATM    9  C   UNL     1      43.022 -15.873   6.515  1.00  0.00     0.247 C 
HETATM   10  O   UNL     1      42.379 -16.790   7.027  1.00  0.00    -0.271 OA
HETATM   11  H   UNL     1      44.316 -15.242   4.990  1.00  0.00     0.170 HD
BRANCH   9  12
HETATM   12  C   UNL     1      43.063 -14.452   7.082  1.00  0.00     0.278 C 
BRANCH  12  13
HETATM   13  O   UNL     1      43.111 -13.518   6.012  1.00  0.00    -0.342 OA
BRANCH  13  14
HETATM   14  C   UNL     1      41.925 -13.152   5.438  1.00  0.00     0.075 A 
HETATM   15  C   UNL     1      42.003 -12.724   4.101  1.00  0.00    -0.029 A 
HETATM   16  C   UNL     1      43.324 -12.684   3.382  1.00  0.00     0.051 C 
HETATM   17  C   UNL     1      40.832 -12.346   3.428  1.00  0.00     0.009 A 
HETATM   18  C   UNL     1      39.598 -12.390   4.075  1.00  0.00     0.001 A 
HETATM   19  C   UNL     1      39.523 -12.820   5.397  1.00  0.00     0.003 A 
HETATM   20  C   UNL     1      40.682 -13.204   6.077  1.00  0.00     0.037 A 
ENDBRANCH  13  14
ENDBRANCH  12  13
ENDBRANCH   9  12
ENDBRANCH   1   8
BRANCH   7  21
HETATM   21  C   UNL     1      42.474 -16.695   2.603  1.00  0.00    -0.020 A 
HETATM   22  C   UNL     1      43.083 -15.932   1.597  1.00  0.00     0.014 A 
HETATM   23  C   UNL     1      42.315 -15.082   0.797  1.00  0.00     0.020 A 
HETATM   24  C   UNL     1      40.940 -14.988   1.008  1.00  0.00     0.011 A 
HETATM   25 BR   UNL     1      39.903 -13.832  -0.069  1.00  0.00    -0.051 Br
HETATM   26  C   UNL     1      40.325 -15.737   2.009  1.00  0.00     0.020 A 
HETATM   27  C   UNL     1      41.092 -16.590   2.807  1.00  0.00     0.014 A 
ENDBRANCH   7  21
TORSDOF 5
ENDMDL
MODEL 4
REMARK VINA RESULT:      -7.7      1.229      2.135
REMARK  5 active torsions:
REMARK  status: ('A' for Active; 'I' for Inactive)
REMARK    1  A    between atoms: C_3  and  O_4 
REMARK    2  A    between atoms: O_4  and  C_5 
REMARK    3  A    between atoms: C_5  and  C_6 
REMARK       I    between atoms: C_6  and  N_7 
REMARK    4  A    between atoms: N_7  and  C_8 
REMARK    5  A    between atoms: C_14  and  C_15 
ROOT
HETATM    1  C   UNL     1      44.060 -17.931   4.517  1.00  0.00     0.137 A 
HETATM    2  N   UNL     1      44.575 -19.162   4.838  1.00  0.00    -0.262 N 
HETATM    3  H   UNL     1      45.124 -19.388   5.665  1.00  0.00     0.191 HD
HETATM    4  N   UNL     1      44.305 -20.119   3.935  1.00  0.00    -0.177 NA
HETATM    5  C   UNL     1      43.576 -19.487   3.006  1.00  0.00     0.065 A 
HETATM    6  C   UNL     1      43.060 -20.241   1.836  1.00  0.00     0.073 C 
HETATM    7  C   UNL     1      43.397 -18.109   3.318  1.00  0.00     0.046 A 
ENDROOT
BRANCH   1   8
HETATM    8  N   UNL     1      44.228 -16.801   5.301  1.00  0.00    -0.309 N 
HETATM    9  C   UNL     1      43.464 -16.583   6.442  1.00  0.00     0.247 C 
HETATM   10  O   UNL     1      42.634 -17.386   6.869  1.00  0.00    -0.271 OA
HETATM   11  H   UNL     1      44.917 -16.121   5.003  1.00  0.00     0.170 HD
BRANCH   9  12
HETATM   12  C   UNL     1      43.758 -15.238   7.111  1.00  0.00     0.278 C 
BRANCH  12  13
HETATM   13  O   UNL     1      42.773 -14.291   6.723  1.00  0.00    -0.342 OA
BRANCH  13  14
HETATM   14  C   UNL     1      43.076 -13.450   5.688  1.00  0.00     0.075 A 
HETATM   15  C   UNL     1      43.738 -12.262   6.044  1.00  0.00    -0.029 A 
HETATM   16  C   UNL     1      44.075 -11.969   7.481  1.00  0.00     0.051 C 
HETATM   17  C   UNL     1      44.104 -11.349   5.043  1.00  0.00     0.009 A 
HETATM   18  C   UNL     1      43.812 -11.612   3.705  1.00  0.00     0.001 A 
HETATM   19  C   UNL     1      43.162 -12.791   3.356  1.00  0.00     0.003 A 
HETATM   20  C   UNL     1      42.797 -13.712   4.343  1.00  0.00     0.037 A 
ENDBRANCH  13  14
ENDBRANCH  12  13
ENDBRANCH   9  12
ENDBRANCH   1   8
BRANCH   7  21
HETATM   21  C   UNL     1      42.693 -17.072   2.592  1.00  0.00    -0.020 A 
HETATM   22  C   UNL     1      41.330 -16.842   2.819  1.00  0.00     0.014 A 
HETATM   23  C   UNL     1      40.655 -15.848   2.104  1.00  0.00     0.020 A 
HETATM   24  C   UNL     1      41.342 -15.090   1.157  1.00  0.00     0.011 A 
HETATM   25 BR   UNL     1      40.429 -13.752   0.185  1.00  0.00    -0.051 Br
HETATM   26  C   UNL     1      42.697 -15.315   0.919  1.00  0.00     0.020 A 
HETATM   27  C   UNL     1      43.372 -16.306   1.635  1.00  0.00     0.014 A 
ENDBRANCH   7  21
TORSDOF 5
ENDMDL
MODEL 5
REMARK VINA RESULT:      -7.5      2.212      5.500
REMARK  5 active torsions:
REMARK  status: ('A' for Active; 'I' for Inactive)
REMARK    1  A    between atoms: C_3  and  O_4 
REMARK    2  A    between atoms: O_4  and  C_5 
REMARK    3  A    between atoms: C_5  and  C_6 
REMARK       I    between atoms: C_6  and  N_7 
REMARK    4  A    between atoms: N_7  and  C_8 
REMARK    5  A    between atoms: C_14  and  C_15 
ROOT
HETATM    1  C   UNL     1      42.594 -13.871   6.078  1.00  0.00     0.137 A 
HETATM    2  N   UNL     1      43.086 -13.076   7.083  1.00  0.00    -0.262 N 
HETATM    3  H   UNL     1      43.417 -13.390   7.993  1.00  0.00     0.191 HD
HETATM    4  N   UNL     1      43.103 -11.766   6.784  1.00  0.00    -0.177 NA
HETATM    5  C   UNL     1      42.618 -11.715   5.536  1.00  0.00     0.065 A 
HETATM    6  C   UNL     1      42.505 -10.409   4.841  1.00  0.00     0.073 C 
HETATM    7  C   UNL     1      42.276 -13.009   5.047  1.00  0.00     0.046 A 
ENDROOT
BRANCH   1   8
HETATM    8  N   UNL     1      42.477 -15.248   6.178  1.00  0.00    -0.309 N 
HETATM    9  C   UNL     1      43.578 -16.058   6.433  1.00  0.00     0.247 C 
HETATM   10  O   UNL     1      44.710 -15.621   6.642  1.00  0.00    -0.271 OA
HETATM   11  H   UNL     1      41.559 -15.653   6.037  1.00  0.00     0.170 HD
BRANCH   9  12
HETATM   12  C   UNL     1      43.238 -17.550   6.423  1.00  0.00     0.278 C 
BRANCH  12  13
HETATM   13  O   UNL     1      44.226 -18.255   5.685  1.00  0.00    -0.342 OA
BRANCH  13  14
HETATM   14  C   UNL     1      43.887 -18.698   4.437  1.00  0.00     0.075 A 
HETATM   15  C   UNL     1      43.975 -20.088   4.240  1.00  0.00    -0.029 A 
HETATM   16  C   UNL     1      44.417 -20.996   5.355  1.00  0.00     0.051 C 
HETATM   17  C   UNL     1      43.628 -20.633   2.995  1.00  0.00     0.009 A 
HETATM   18  C   UNL     1      43.203 -19.806   1.955  1.00  0.00     0.001 A 
HETATM   19  C   UNL     1      43.111 -18.432   2.155  1.00  0.00     0.003 A 
HETATM   20  C   UNL     1      43.448 -17.878   3.393  1.00  0.00     0.037 A 
ENDBRANCH  13  14
ENDBRANCH  12  13
ENDBRANCH   9  12
ENDBRANCH   1   8
BRANCH   7  21
HETATM   21  C   UNL     1      41.718 -13.405   3.770  1.00  0.00    -0.020 A 
HETATM   22  C   UNL     1      42.541 -13.922   2.761  1.00  0.00     0.014 A 
HETATM   23  C   UNL     1      41.997 -14.290   1.528  1.00  0.00     0.020 A 
HETATM   24  C   UNL     1      40.631 -14.134   1.301  1.00  0.00     0.011 A 
HETATM   25 BR   UNL     1      39.895 -14.624  -0.370  1.00  0.00    -0.051 Br
HETATM   26  C   UNL     1      39.803 -13.615   2.294  1.00  0.00     0.020 A 
HETATM   27  C   UNL     1      40.346 -13.250   3.529  1.00  0.00     0.014 A 
ENDBRANCH   7  21
TORSDOF 5
ENDMDL
MODEL 6
REMARK VINA RESULT:      -7.4      3.846      5.699
REMARK  5 active torsions:
REMARK  status: ('A' for Active; 'I' for Inactive)
REMARK    1  A    between atoms: C_3  and  O_4 
REMARK    2  A    between atoms: O_4  and  C_5 
REMARK    3  A    between atoms: C_5  and  C_6 
REMARK       I    between atoms: C_6  and  N_7 
REMARK    4  A    between atoms: N_7  and  C_8 
REMARK    5  A    between atoms: C_14  and  C_15 
ROOT
HETATM    1  C   UNL     1      39.258 -13.068   1.892  1.00  0.00     0.137 A 
HETATM    2  N   UNL     1      38.556 -12.226   1.066  1.00  0.00    -0.262 N 
HETATM    3  H   UNL     1      37.880 -11.523   1.356  1.00  0.00     0.191 HD
HETATM    4  N   UNL     1      38.821 -12.398  -0.241  1.00  0.00    -0.177 NA
HETATM    5  C   UNL     1      39.737 -13.374  -0.256  1.00  0.00     0.065 A 
HETATM    6  C   UNL     1      40.304 -13.832  -1.550  1.00  0.00     0.073 C 
HETATM    7  C   UNL     1      40.044 -13.836   1.056  1.00  0.00     0.046 A 
ENDROOT
BRANCH   1   8
HETATM    8  N   UNL     1      39.131 -13.070   3.272  1.00  0.00    -0.309 N 
HETATM    9  C   UNL     1      39.554 -11.994   4.046  1.00  0.00     0.247 C 
HETATM   10  O   UNL     1      40.013 -10.955   3.573  1.00  0.00    -0.271 OA
HETATM   11  H   UNL     1      38.735 -13.895   3.706  1.00  0.00     0.170 HD
BRANCH   9  12
HETATM   12  C   UNL     1      39.393 -12.239   5.548  1.00  0.00     0.278 C 
BRANCH  12  13
HETATM   13  O   UNL     1      40.665 -12.502   6.123  1.00  0.00    -0.342 OA
BRANCH  13  14
HETATM   14  C   UNL     1      41.145 -13.780   6.040  1.00  0.00     0.075 A 
HETATM   15  C   UNL     1      42.471 -13.903   5.588  1.00  0.00    -0.029 A 
HETATM   16  C   UNL     1      43.278 -12.685   5.229  1.00  0.00     0.051 C 
HETATM   17  C   UNL     1      43.051 -15.177   5.489  1.00  0.00     0.009 A 
HETATM   18  C   UNL     1      42.322 -16.315   5.831  1.00  0.00     0.001 A 
HETATM   19  C   UNL     1      41.012 -16.189   6.283  1.00  0.00     0.003 A 
HETATM   20  C   UNL     1      40.424 -14.925   6.392  1.00  0.00     0.037 A 
ENDBRANCH  13  14
ENDBRANCH  12  13
ENDBRANCH   9  12
ENDBRANCH   1   8
BRANCH   7  21
HETATM   21  C   UNL     1      40.960 -14.871   1.489  1.00  0.00    -0.020 A 
HETATM   22  C   UNL     1      42.345 -14.675   1.416  1.00  0.00     0.014 A 
HETATM   23  C   UNL     1      43.222 -15.683   1.825  1.00  0.00     0.020 A 
HETATM   24  C   UNL     1      42.713 -16.892   2.299  1.00  0.00     0.011 A 
HETATM   25 BR   UNL     1      43.898 -18.259   2.843  1.00  0.00    -0.051 Br
HETATM   26  C   UNL     1      41.337 -17.101   2.370  1.00  0.00     0.020 A 
HETATM   27  C   UNL     1      40.461 -16.091   1.965  1.00  0.00     0.014 A 
ENDBRANCH   7  21
TORSDOF 5
ENDMDL
MODEL 7
REMARK VINA RESULT:      -7.2      3.382      5.250
REMARK  5 active torsions:
REMARK  status: ('A' for Active; 'I' for Inactive)
REMARK    1  A    between atoms: C_3  and  O_4 
REMARK    2  A    between atoms: O_4  and  C_5 
REMARK    3  A    between atoms: C_5  and  C_6 
REMARK       I    between atoms: C_6  and  N_7 
REMARK    4  A    between atoms: N_7  and  C_8 
REMARK    5  A    between atoms: C_14  and  C_15 
ROOT
HETATM    1  C   UNL     1      41.588 -12.090   3.008  1.00  0.00     0.137 A 
HETATM    2  N   UNL     1      41.115 -10.912   2.486  1.00  0.00    -0.262 N 
HETATM    3  H   UNL     1      41.027 -10.026   2.978  1.00  0.00     0.191 HD
HETATM    4  N   UNL     1      40.737 -10.999   1.199  1.00  0.00    -0.177 NA
HETATM    5  C   UNL     1      40.990 -12.274   0.876  1.00  0.00     0.065 A 
HETATM    6  C   UNL     1      40.720 -12.753  -0.503  1.00  0.00     0.073 C 
HETATM    7  C   UNL     1      41.520 -13.006   1.977  1.00  0.00     0.046 A 
ENDROOT
BRANCH   1   8
HETATM    8  N   UNL     1      42.020 -12.228   4.318  1.00  0.00    -0.309 N 
HETATM    9  C   UNL     1      43.327 -11.934   4.691  1.00  0.00     0.247 C 
HETATM   10  O   UNL     1      44.170 -11.483   3.916  1.00  0.00    -0.271 OA
HETATM   11  H   UNL     1      41.354 -12.574   4.998  1.00  0.00     0.170 HD
BRANCH   9  12
HETATM   12  C   UNL     1      43.610 -12.233   6.165  1.00  0.00     0.278 C 
BRANCH  12  13
HETATM   13  O   UNL     1      42.668 -13.182   6.644  1.00  0.00    -0.342 OA
BRANCH  13  14
HETATM   14  C   UNL     1      42.925 -14.504   6.405  1.00  0.00     0.075 A 
HETATM   15  C   UNL     1      41.797 -15.312   6.177  1.00  0.00    -0.029 A 
HETATM   16  C   UNL     1      40.412 -14.724   6.202  1.00  0.00     0.051 C 
HETATM   17  C   UNL     1      41.969 -16.677   5.905  1.00  0.00     0.009 A 
HETATM   18  C   UNL     1      43.246 -17.235   5.865  1.00  0.00     0.001 A 
HETATM   19  C   UNL     1      44.360 -16.432   6.085  1.00  0.00     0.003 A 
HETATM   20  C   UNL     1      44.203 -15.069   6.351  1.00  0.00     0.037 A 
ENDBRANCH  13  14
ENDBRANCH  12  13
ENDBRANCH   9  12
ENDBRANCH   1   8
BRANCH   7  21
HETATM   21  C   UNL     1      41.919 -14.396   2.068  1.00  0.00    -0.020 A 
HETATM   22  C   UNL     1      43.261 -14.765   1.906  1.00  0.00     0.014 A 
HETATM   23  C   UNL     1      43.635 -16.110   1.982  1.00  0.00     0.020 A 
HETATM   24  C   UNL     1      42.666 -17.085   2.214  1.00  0.00     0.011 A 
HETATM   25 BR   UNL     1      43.171 -18.904   2.309  1.00  0.00    -0.051 Br
HETATM   26  C   UNL     1      41.328 -16.730   2.370  1.00  0.00     0.020 A 
HETATM   27  C   UNL     1      40.954 -15.386   2.297  1.00  0.00     0.014 A 
ENDBRANCH   7  21
TORSDOF 5
ENDMDL
MODEL 8
REMARK VINA RESULT:      -7.1      2.486      5.346
REMARK  5 active torsions:
REMARK  status: ('A' for Active; 'I' for Inactive)
REMARK    1  A    between atoms: C_3  and  O_4 
REMARK    2  A    between atoms: O_4  and  C_5 
REMARK    3  A    between atoms: C_5  and  C_6 
REMARK       I    between atoms: C_6  and  N_7 
REMARK    4  A    between atoms: N_7  and  C_8 
REMARK    5  A    between atoms: C_14  and  C_15 
ROOT
HETATM    1  C   UNL     1      43.402 -12.938   6.464  1.00  0.00     0.137 A 
HETATM    2  N   UNL     1      43.850 -12.305   7.597  1.00  0.00    -0.262 N 
HETATM    3  H   UNL     1      44.450 -12.707   8.315  1.00  0.00     0.191 HD
HETATM    4  N   UNL     1      43.419 -11.039   7.722  1.00  0.00    -0.177 NA
HETATM    5  C   UNL     1      42.678 -10.843   6.623  1.00  0.00     0.065 A 
HETATM    6  C   UNL     1      42.041  -9.522   6.390  1.00  0.00     0.073 C 
HETATM    7  C   UNL     1      42.628 -12.005   5.801  1.00  0.00     0.046 A 
ENDROOT
BRANCH   1   8
HETATM    8  N   UNL     1      43.715 -14.249   6.144  1.00  0.00    -0.309 N 
HETATM    9  C   UNL     1      43.510 -15.290   7.044  1.00  0.00     0.247 C 
HETATM   10  O   UNL     1      42.993 -15.140   8.150  1.00  0.00    -0.271 OA
HETATM   11  H   UNL     1      44.122 -14.426   5.233  1.00  0.00     0.170 HD
BRANCH   9  12
HETATM   12  C   UNL     1      43.998 -16.641   6.516  1.00  0.00     0.278 C 
BRANCH  12  13
HETATM   13  O   UNL     1      42.920 -17.322   5.890  1.00  0.00    -0.342 OA
BRANCH  13  14
HETATM   14  C   UNL     1      42.634 -16.996   4.593  1.00  0.00     0.075 A 
HETATM   15  C   UNL     1      41.362 -16.437   4.372  1.00  0.00    -0.029 A 
HETATM   16  C   UNL     1      40.406 -16.226   5.515  1.00  0.00     0.051 C 
HETATM   17  C   UNL     1      40.991 -16.056   3.074  1.00  0.00     0.009 A 
HETATM   18  C   UNL     1      41.870 -16.231   2.007  1.00  0.00     0.001 A 
HETATM   19  C   UNL     1      43.130 -16.779   2.229  1.00  0.00     0.003 A 
HETATM   20  C   UNL     1      43.514 -17.157   3.519  1.00  0.00     0.037 A 
ENDBRANCH  13  14
ENDBRANCH  12  13
ENDBRANCH   9  12
ENDBRANCH   1   8
BRANCH   7  21
HETATM   21  C   UNL     1      41.943 -12.230   4.545  1.00  0.00    -0.020 A 
HETATM   22  C   UNL     1      42.660 -12.289   3.342  1.00  0.00     0.014 A 
HETATM   23  C   UNL     1      41.990 -12.494   2.133  1.00  0.00     0.020 A 
HETATM   24  C   UNL     1      40.602 -12.633   2.126  1.00  0.00     0.011 A 
HETATM   25 BR   UNL     1      39.695 -12.901   0.490  1.00  0.00    -0.051 Br
HETATM   26  C   UNL     1      39.879 -12.570   3.316  1.00  0.00     0.020 A 
HETATM   27  C   UNL     1      40.549 -12.368   4.525  1.00  0.00     0.014 A 
ENDBRANCH   7  21
TORSDOF 5
ENDMDL
MODEL 9
REMARK VINA RESULT:      -7.1      4.688      7.907
REMARK  5 active torsions:
REMARK  status: ('A' for Active; 'I' for Inactive)
REMARK    1  A    between atoms: C_3  and  O_4 
REMARK    2  A    between atoms: O_4  and  C_5 
REMARK    3  A    between atoms: C_5  and  C_6 
REMARK       I    between atoms: C_6  and  N_7 
REMARK    4  A    between atoms: N_7  and  C_8 
REMARK    5  A    between atoms: C_14  and  C_15 
ROOT
HETATM    1  C   UNL     1      44.160 -11.956   7.282  1.00  0.00     0.137 A 
HETATM    2  N   UNL     1      45.225 -12.049   6.421  1.00  0.00    -0.262 N 
HETATM    3  H   UNL     1      45.355 -12.752   5.697  1.00  0.00     0.191 HD
HETATM    4  N   UNL     1      46.158 -11.098   6.601  1.00  0.00    -0.177 NA
HETATM    5  C   UNL     1      45.670 -10.357   7.605  1.00  0.00     0.065 A 
HETATM    6  C   UNL     1      46.427  -9.172   8.081  1.00  0.00     0.073 C 
HETATM    7  C   UNL     1      44.421 -10.855   8.075  1.00  0.00     0.046 A 
ENDROOT
BRANCH   1   8
HETATM    8  N   UNL     1      43.093 -12.839   7.279  1.00  0.00    -0.309 N 
HETATM    9  C   UNL     1      43.256 -14.182   6.956  1.00  0.00     0.247 C 
HETATM   10  O   UNL     1      44.348 -14.693   6.708  1.00  0.00    -0.271 OA
HETATM   11  H   UNL     1      42.176 -12.469   7.501  1.00  0.00     0.170 HD
BRANCH   9  12
HETATM   12  C   UNL     1      41.937 -14.957   6.938  1.00  0.00     0.278 C 
BRANCH  12  13
HETATM   13  O   UNL     1      42.145 -16.229   6.340  1.00  0.00    -0.342 OA
BRANCH  13  14
HETATM   14  C   UNL     1      41.927 -16.339   4.994  1.00  0.00     0.075 A 
HETATM   15  C   UNL     1      42.898 -17.062   4.278  1.00  0.00    -0.029 A 
HETATM   16  C   UNL     1      44.086 -17.661   4.982  1.00  0.00     0.051 C 
HETATM   17  C   UNL     1      42.745 -17.240   2.895  1.00  0.00     0.009 A 
HETATM   18  C   UNL     1      41.644 -16.704   2.230  1.00  0.00     0.001 A 
HETATM   19  C   UNL     1      40.682 -15.995   2.943  1.00  0.00     0.003 A 
HETATM   20  C   UNL     1      40.819 -15.815   4.322  1.00  0.00     0.037 A 
ENDBRANCH  13  14
ENDBRANCH  12  13
ENDBRANCH   9  12
ENDBRANCH   1   8
BRANCH   7  21
HETATM   21  C   UNL     1      43.564 -10.369   9.137  1.00  0.00    -0.020 A 
HETATM   22  C   UNL     1      43.844 -10.673  10.475  1.00  0.00     0.014 A 
HETATM   23  C   UNL     1      43.005 -10.212  11.493  1.00  0.00     0.020 A 
HETATM   24  C   UNL     1      41.881  -9.452  11.171  1.00  0.00     0.011 A 
HETATM   25 BR   UNL     1      40.741  -8.835  12.546  1.00  0.00    -0.051 Br
HETATM   26  C   UNL     1      41.589  -9.149   9.843  1.00  0.00     0.020 A 
HETATM   27  C   UNL     1      42.430  -9.608   8.826  1.00  0.00     0.014 A 
ENDBRANCH   7  21
TORSDOF 5
ENDMDL
MODEL 10
REMARK VINA RESULT:      -7.0      3.542      4.982
REMARK  5 active torsions:
REMARK  status: ('A' for Active; 'I' for Inactive)
REMARK    1  A    between atoms: C_3  and  O_4 
REMARK    2  A    between atoms: O_4  and  C_5 
REMARK    3  A    between atoms: C_5  and  C_6 
REMARK       I    between atoms: C_6  and  N_7 
REMARK    4  A    between atoms: N_7  and  C_8 
REMARK    5  A    between atoms: C_14  and  C_15 
ROOT
HETATM    1  C   UNL     1      43.269 -14.912   5.827  1.00  0.00     0.137 A 
HETATM    2  N   UNL     1      44.071 -15.578   6.720  1.00  0.00    -0.262 N 
HETATM    3  H   UNL     1      44.375 -15.235   7.629  1.00  0.00     0.191 HD
HETATM    4  N   UNL     1      44.471 -16.789   6.296  1.00  0.00    -0.177 NA
HETATM    5  C   UNL     1      43.893 -16.915   5.095  1.00  0.00     0.065 A 
HETATM    6  C   UNL     1      44.086 -18.161   4.311  1.00  0.00     0.073 C 
HETATM    7  C   UNL     1      43.131 -15.762   4.748  1.00  0.00     0.046 A 
ENDROOT
BRANCH   1   8
HETATM    8  N   UNL     1      42.755 -13.645   6.055  1.00  0.00    -0.309 N 
HETATM    9  C   UNL     1      43.569 -12.585   6.439  1.00  0.00     0.247 C 
HETATM   10  O   UNL     1      44.792 -12.672   6.549  1.00  0.00    -0.271 OA
HETATM   11  H   UNL     1      41.755 -13.519   5.954  1.00  0.00     0.170 HD
BRANCH   9  12
HETATM   12  C   UNL     1      42.786 -11.299   6.715  1.00  0.00     0.278 C 
BRANCH  12  13
HETATM   13  O   UNL     1      43.690 -10.260   7.061  1.00  0.00    -0.342 OA
BRANCH  13  14
HETATM   14  C   UNL     1      43.803  -9.935   8.385  1.00  0.00     0.075 A 
HETATM   15  C   UNL     1      45.115  -9.754   8.857  1.00  0.00    -0.029 A 
HETATM   16  C   UNL     1      46.294  -9.916   7.936  1.00  0.00     0.051 C 
HETATM   17  C   UNL     1      45.324  -9.401  10.199  1.00  0.00     0.009 A 
HETATM   18  C   UNL     1      44.242  -9.233  11.062  1.00  0.00     0.001 A 
HETATM   19  C   UNL     1      42.945  -9.407  10.591  1.00  0.00     0.003 A 
HETATM   20  C   UNL     1      42.723  -9.754   9.255  1.00  0.00     0.037 A 
ENDBRANCH  13  14
ENDBRANCH  12  13
ENDBRANCH   9  12
ENDBRANCH   1   8
BRANCH   7  21
HETATM   21  C   UNL     1      42.363 -15.477   3.553  1.00  0.00    -0.020 A 
HETATM   22  C   UNL     1      41.080 -16.016   3.384  1.00  0.00     0.014 A 
HETATM   23  C   UNL     1      40.350 -15.746   2.223  1.00  0.00     0.020 A 
HETATM   24  C   UNL     1      40.906 -14.944   1.228  1.00  0.00     0.011 A 
HETATM   25 BR   UNL     1      39.924 -14.586  -0.346  1.00  0.00    -0.051 Br
HETATM   26  C   UNL     1      42.184 -14.408   1.382  1.00  0.00     0.020 A 
HETATM   27  C   UNL     1      42.912 -14.675   2.544  1.00  0.00     0.014 A 
ENDBRANCH   7  21
TORSDOF 5
ENDMDL
