MODEL 1
REMARK VINA RESULT:      -7.8      0.000      0.000
REMARK  5 active torsions:
REMARK  status: ('A' for Active; 'I' for Inactive)
REMARK    1  A    between atoms: C_2  and  O_3 
REMARK    2  A    between atoms: O_3  and  C_4 
REMARK    3  A    between atoms: C_4  and  C_5 
REMARK    4  A    between atoms: C_6  and  C_7 
REMARK    5  A    between atoms: C_22  and  N_23 
ROOT
HETATM    1  C   UNL     1      43.104 -15.450   5.773  1.00  0.00     0.075 A 
HETATM    2  C   UNL     1      42.817 -15.512   4.393  1.00  0.00     0.011 A 
HETATM    3  C   UNL     1      43.029 -16.750   3.745  1.00  0.00     0.074 A 
HETATM    4  C   UNL     1      43.510 -17.832   4.484  1.00  0.00     0.096 A 
HETATM    5  N   UNL     1      43.781 -17.753   5.811  1.00  0.00    -0.250 NA
HETATM    6  C   UNL     1      43.584 -16.573   6.446  1.00  0.00     0.048 A 
HETATM    7  C   UNL     1      43.915 -16.555   7.911  1.00  0.00     0.071 C 
HETATM    8  C   UNL     1      42.769 -16.992   2.301  1.00  0.00     0.260 A 
HETATM    9  O   UNL     1      42.299 -16.151   1.547  1.00  0.00    -0.267 OA
HETATM   10  N   UNL     1      43.079 -18.240   1.815  1.00  0.00    -0.312 N 
HETATM   11  C   UNL     1      43.554 -19.304   2.532  1.00  0.00     0.102 A 
HETATM   12  C   UNL     1      43.765 -19.137   3.855  1.00  0.00     0.098 A 
HETATM   13  C   UNL     1      44.250 -20.290   4.718  1.00  0.00     0.025 C 
HETATM   14  N   UNL     1      44.652 -21.246   5.435  1.00  0.00    -0.096 N 
HETATM   15  H   UNL     1      42.857 -18.379   0.836  1.00  0.00     0.170 HD
ENDROOT
BRANCH  11  16
HETATM   16  N   UNL     1      43.763 -20.469   1.836  1.00  0.00    -0.287 NA
HETATM   17  H   UNL     1      44.498 -20.404   1.137  1.00  0.00     0.125 HD
HETATM   18  H   UNL     1      43.854 -21.314   2.399  1.00  0.00     0.125 HD
ENDBRANCH  11  16
BRANCH   2  19
HETATM   19  C   UNL     1      42.320 -14.316   3.693  1.00  0.00    -0.024 A 
HETATM   20  C   UNL     1      43.214 -13.370   3.165  1.00  0.00     0.014 A 
HETATM   21  C   UNL     1      42.743 -12.230   2.507  1.00  0.00     0.024 A 
HETATM   22  C   UNL     1      41.372 -12.022   2.381  1.00  0.00     0.034 A 
HETATM   23 CL   UNL     1      40.791 -10.618   1.574  1.00  0.00    -0.084 Cl
HETATM   24  C   UNL     1      40.468 -12.942   2.906  1.00  0.00     0.024 A 
HETATM   25  C   UNL     1      40.940 -14.084   3.559  1.00  0.00     0.014 A 
ENDBRANCH   2  19
BRANCH   1  26
HETATM   26  C   UNL     1      42.962 -14.189   6.516  1.00  0.00     0.296 C 
HETATM   27  O   UNL     1      41.903 -13.779   6.952  1.00  0.00    -0.259 OA
BRANCH  26  28
HETATM   28  O   UNL     1      44.178 -13.600   6.566  1.00  0.00    -0.318 OA
BRANCH  28  29
HETATM   29  C   UNL     1      44.206 -12.237   7.019  1.00  0.00     0.174 C 
HETATM   30  C   UNL     1      45.403 -11.542   6.401  1.00  0.00     0.034 C 
ENDBRANCH  28  29
ENDBRANCH  26  28
ENDBRANCH   1  26
TORSDOF 5
ENDMDL
MODEL 2
REMARK VINA RESULT:      -7.3      4.313      6.879
REMARK  5 active torsions:
REMARK  status: ('A' for Active; 'I' for Inactive)
REMARK    1  A    between atoms: C_2  and  O_3 
REMARK    2  A    between atoms: O_3  and  C_4 
REMARK    3  A    between atoms: C_4  and  C_5 
REMARK    4  A    between atoms: C_6  and  C_7 
REMARK    5  A    between atoms: C_22  and  N_23 
ROOT
HETATM    1  C   UNL     1      41.607 -11.929   1.789  1.00  0.00     0.075 A 
HETATM    2  C   UNL     1      41.205 -13.274   1.651  1.00  0.00     0.011 A 
HETATM    3  C   UNL     1      40.418 -13.601   0.524  1.00  0.00     0.074 A 
HETATM    4  C   UNL     1      40.075 -12.595  -0.382  1.00  0.00     0.096 A 
HETATM    5  N   UNL     1      40.470 -11.306  -0.232  1.00  0.00    -0.250 NA
HETATM    6  C   UNL     1      41.224 -10.977   0.844  1.00  0.00     0.048 A 
HETATM    7  C   UNL     1      41.616  -9.532   0.952  1.00  0.00     0.071 C 
HETATM    8  C   UNL     1      39.919 -14.969   0.221  1.00  0.00     0.260 A 
HETATM    9  O   UNL     1      40.186 -15.952   0.898  1.00  0.00    -0.267 OA
HETATM   10  N   UNL     1      39.120 -15.107  -0.889  1.00  0.00    -0.312 N 
HETATM   11  C   UNL     1      38.777 -14.125  -1.778  1.00  0.00     0.102 A 
HETATM   12  C   UNL     1      39.244 -12.877  -1.561  1.00  0.00     0.098 A 
HETATM   13  C   UNL     1      38.936 -11.750  -2.534  1.00  0.00     0.025 C 
HETATM   14  N   UNL     1      38.682 -10.816  -3.341  1.00  0.00    -0.096 N 
HETATM   15  H   UNL     1      38.827 -16.057  -1.083  1.00  0.00     0.170 HD
ENDROOT
BRANCH  11  16
HETATM   16  N   UNL     1      37.989 -14.505  -2.837  1.00  0.00    -0.287 NA
HETATM   17  H   UNL     1      37.265 -15.176  -2.591  1.00  0.00     0.125 HD
HETATM   18  H   UNL     1      37.619 -13.748  -3.412  1.00  0.00     0.125 HD
ENDBRANCH  11  16
BRANCH   2  19
HETATM   19  C   UNL     1      41.607 -14.267   2.661  1.00  0.00    -0.024 A 
HETATM   20  C   UNL     1      42.851 -14.914   2.576  1.00  0.00     0.014 A 
HETATM   21  C   UNL     1      43.231 -15.863   3.530  1.00  0.00     0.024 A 
HETATM   22  C   UNL     1      42.364 -16.180   4.572  1.00  0.00     0.034 A 
HETATM   23 CL   UNL     1      42.829 -17.350   5.745  1.00  0.00    -0.084 Cl
HETATM   24  C   UNL     1      41.122 -15.559   4.670  1.00  0.00     0.024 A 
HETATM   25  C   UNL     1      40.746 -14.606   3.719  1.00  0.00     0.014 A 
ENDBRANCH   2  19
BRANCH   1  26
HETATM   26  C   UNL     1      42.383 -11.490   2.958  1.00  0.00     0.296 C 
HETATM   27  O   UNL     1      43.599 -11.471   2.991  1.00  0.00    -0.259 OA
BRANCH  26  28
HETATM   28  O   UNL     1      41.509 -11.177   3.941  1.00  0.00    -0.318 OA
BRANCH  28  29
HETATM   29  C   UNL     1      42.077 -10.883   5.227  1.00  0.00     0.174 C 
HETATM   30  C   UNL     1      42.173 -12.170   6.023  1.00  0.00     0.034 C 
ENDBRANCH  28  29
ENDBRANCH  26  28
ENDBRANCH   1  26
TORSDOF 5
ENDMDL
MODEL 3
REMARK VINA RESULT:      -7.3      4.869      7.511
REMARK  5 active torsions:
REMARK  status: ('A' for Active; 'I' for Inactive)
REMARK    1  A    between atoms: C_2  and  O_3 
REMARK    2  A    between atoms: O_3  and  C_4 
REMARK    3  A    between atoms: C_4  and  C_5 
REMARK    4  A    between atoms: C_6  and  C_7 
REMARK    5  A    between atoms: C_22  and  N_23 
ROOT
HETATM    1  C   UNL     1      39.974 -12.305   2.877  1.00  0.00     0.075 A 
HETATM    2  C   UNL     1      40.144 -13.208   1.807  1.00  0.00     0.011 A 
HETATM    3  C   UNL     1      39.443 -12.933   0.612  1.00  0.00     0.074 A 
HETATM    4  C   UNL     1      38.622 -11.805   0.548  1.00  0.00     0.096 A 
HETATM    5  N   UNL     1      38.470 -10.948   1.588  1.00  0.00    -0.250 NA
HETATM    6  C   UNL     1      39.135 -11.199   2.741  1.00  0.00     0.048 A 
HETATM    7  C   UNL     1      38.911 -10.216   3.854  1.00  0.00     0.071 C 
HETATM    8  C   UNL     1      39.517 -13.773  -0.613  1.00  0.00     0.260 A 
HETATM    9  O   UNL     1      40.234 -14.759  -0.716  1.00  0.00    -0.267 OA
HETATM   10  N   UNL     1      38.728 -13.395  -1.675  1.00  0.00    -0.312 N 
HETATM   11  C   UNL     1      37.919 -12.294  -1.742  1.00  0.00     0.102 A 
HETATM   12  C   UNL     1      37.856 -11.483  -0.665  1.00  0.00     0.098 A 
HETATM   13  C   UNL     1      37.011 -10.219  -0.690  1.00  0.00     0.025 C 
HETATM   14  N   UNL     1      36.311  -9.171  -0.710  1.00  0.00    -0.096 N 
HETATM   15  H   UNL     1      38.830 -13.970  -2.501  1.00  0.00     0.170 HD
ENDROOT
BRANCH  11  16
HETATM   16  N   UNL     1      37.245 -12.099  -2.923  1.00  0.00    -0.287 NA
HETATM   17  H   UNL     1      37.440 -12.805  -3.628  1.00  0.00     0.125 HD
HETATM   18  H   UNL     1      36.246 -11.916  -2.841  1.00  0.00     0.125 HD
ENDBRANCH  11  16
BRANCH   2  19
HETATM   19  C   UNL     1      41.025 -14.377   1.967  1.00  0.00    -0.024 A 
HETATM   20  C   UNL     1      40.513 -15.606   2.414  1.00  0.00     0.014 A 
HETATM   21  C   UNL     1      41.350 -16.714   2.574  1.00  0.00     0.024 A 
HETATM   22  C   UNL     1      42.709 -16.599   2.298  1.00  0.00     0.034 A 
HETATM   23 CL   UNL     1      43.741 -17.962   2.498  1.00  0.00    -0.084 Cl
HETATM   24  C   UNL     1      43.241 -15.387   1.864  1.00  0.00     0.024 A 
HETATM   25  C   UNL     1      42.402 -14.281   1.699  1.00  0.00     0.014 A 
ENDBRANCH   2  19
BRANCH   1  26
HETATM   26  C   UNL     1      40.625 -12.541   4.174  1.00  0.00     0.296 C 
HETATM   27  O   UNL     1      41.744 -12.150   4.448  1.00  0.00    -0.259 OA
BRANCH  26  28
HETATM   28  O   UNL     1      39.783 -13.280   4.931  1.00  0.00    -0.318 OA
BRANCH  28  29
HETATM   29  C   UNL     1      40.295 -13.734   6.194  1.00  0.00     0.174 C 
HETATM   30  C   UNL     1      40.514 -15.232   6.121  1.00  0.00     0.034 C 
ENDBRANCH  28  29
ENDBRANCH  26  28
ENDBRANCH   1  26
TORSDOF 5
ENDMDL
MODEL 4
REMARK VINA RESULT:      -7.2      2.124      4.326
REMARK  5 active torsions:
REMARK  status: ('A' for Active; 'I' for Inactive)
REMARK    1  A    between atoms: C_2  and  O_3 
REMARK    2  A    between atoms: O_3  and  C_4 
REMARK    3  A    between atoms: C_4  and  C_5 
REMARK    4  A    between atoms: C_6  and  C_7 
REMARK    5  A    between atoms: C_22  and  N_23 
ROOT
HETATM    1  C   UNL     1      42.874 -14.796   3.466  1.00  0.00     0.075 A 
HETATM    2  C   UNL     1      42.812 -14.663   4.870  1.00  0.00     0.011 A 
HETATM    3  C   UNL     1      43.033 -15.826   5.639  1.00  0.00     0.074 A 
HETATM    4  C   UNL     1      43.291 -17.034   4.989  1.00  0.00     0.096 A 
HETATM    5  N   UNL     1      43.346 -17.144   3.638  1.00  0.00    -0.250 NA
HETATM    6  C   UNL     1      43.135 -16.037   2.886  1.00  0.00     0.048 A 
HETATM    7  C   UNL     1      43.199 -16.234   1.399  1.00  0.00     0.071 C 
HETATM    8  C   UNL     1      43.014 -15.861   7.126  1.00  0.00     0.260 A 
HETATM    9  O   UNL     1      42.852 -14.869   7.824  1.00  0.00    -0.267 OA
HETATM   10  N   UNL     1      43.196 -17.087   7.721  1.00  0.00    -0.312 N 
HETATM   11  C   UNL     1      43.445 -18.275   7.090  1.00  0.00     0.102 A 
HETATM   12  C   UNL     1      43.511 -18.278   5.742  1.00  0.00     0.098 A 
HETATM   13  C   UNL     1      43.828 -19.555   4.980  1.00  0.00     0.025 C 
HETATM   14  N   UNL     1      44.091 -20.614   4.349  1.00  0.00    -0.096 N 
HETATM   15  H   UNL     1      43.211 -17.066   8.734  1.00  0.00     0.170 HD
ENDROOT
BRANCH  11  16
HETATM   16  N   UNL     1      43.624 -19.372   7.896  1.00  0.00    -0.287 NA
HETATM   17  H   UNL     1      42.887 -19.502   8.583  1.00  0.00     0.125 HD
HETATM   18  H   UNL     1      43.851 -20.244   7.419  1.00  0.00     0.125 HD
ENDBRANCH  11  16
BRANCH   2  19
HETATM   19  C   UNL     1      42.525 -13.349   5.469  1.00  0.00    -0.024 A 
HETATM   20  C   UNL     1      43.570 -12.486   5.841  1.00  0.00     0.014 A 
HETATM   21  C   UNL     1      43.298 -11.242   6.418  1.00  0.00     0.024 A 
HETATM   22  C   UNL     1      41.980 -10.855   6.637  1.00  0.00     0.034 A 
HETATM   23 CL   UNL     1      41.645  -9.324   7.350  1.00  0.00    -0.084 Cl
HETATM   24  C   UNL     1      40.929 -11.699   6.287  1.00  0.00     0.024 A 
HETATM   25  C   UNL     1      41.201 -12.940   5.705  1.00  0.00     0.014 A 
ENDBRANCH   2  19
BRANCH   1  26
HETATM   26  C   UNL     1      42.605 -13.649   2.587  1.00  0.00     0.296 C 
HETATM   27  O   UNL     1      43.424 -12.785   2.337  1.00  0.00    -0.259 OA
BRANCH  26  28
HETATM   28  O   UNL     1      41.318 -13.733   2.180  1.00  0.00    -0.318 OA
BRANCH  28  29
HETATM   29  C   UNL     1      40.602 -12.492   2.077  1.00  0.00     0.174 C 
HETATM   30  C   UNL     1      39.209 -12.684   2.645  1.00  0.00     0.034 C 
ENDBRANCH  28  29
ENDBRANCH  26  28
ENDBRANCH   1  26
TORSDOF 5
ENDMDL
MODEL 5
REMARK VINA RESULT:      -7.1      4.638      8.120
REMARK  5 active torsions:
REMARK  status: ('A' for Active; 'I' for Inactive)
REMARK    1  A    between atoms: C_2  and  O_3 
REMARK    2  A    between atoms: O_3  and  C_4 
REMARK    3  A    between atoms: C_4  and  C_5 
REMARK    4  A    between atoms: C_6  and  C_7 
REMARK    5  A    between atoms: C_22  and  N_23 
ROOT
HETATM    1  C   UNL     1      39.969 -12.429   1.560  1.00  0.00     0.075 A 
HETATM    2  C   UNL     1      40.375 -13.149   2.704  1.00  0.00     0.011 A 
HETATM    3  C   UNL     1      40.046 -12.601   3.963  1.00  0.00     0.074 A 
HETATM    4  C   UNL     1      39.352 -11.391   4.019  1.00  0.00     0.096 A 
HETATM    5  N   UNL     1      38.970 -10.711   2.908  1.00  0.00    -0.250 NA
HETATM    6  C   UNL     1      39.280 -11.224   1.693  1.00  0.00     0.048 A 
HETATM    7  C   UNL     1      38.837 -10.414   0.509  1.00  0.00     0.071 C 
HETATM    8  C   UNL     1      40.388 -13.233   5.265  1.00  0.00     0.260 A 
HETATM    9  O   UNL     1      40.947 -14.317   5.366  1.00  0.00    -0.267 OA
HETATM   10  N   UNL     1      40.041 -12.541   6.402  1.00  0.00    -0.312 N 
HETATM   11  C   UNL     1      39.365 -11.353   6.463  1.00  0.00     0.102 A 
HETATM   12  C   UNL     1      39.000 -10.767   5.303  1.00  0.00     0.098 A 
HETATM   13  C   UNL     1      38.209  -9.469   5.301  1.00  0.00     0.025 C 
HETATM   14  N   UNL     1      37.553  -8.393   5.299  1.00  0.00    -0.096 N 
HETATM   15  H   UNL     1      40.259 -13.018   7.268  1.00  0.00     0.170 HD
ENDROOT
BRANCH  11  16
HETATM   16  N   UNL     1      39.100 -10.862   7.718  1.00  0.00    -0.287 NA
HETATM   17  H   UNL     1      38.159 -10.490   7.823  1.00  0.00     0.125 HD
HETATM   18  H   UNL     1      39.352 -11.469   8.497  1.00  0.00     0.125 HD
ENDBRANCH  11  16
BRANCH   2  19
HETATM   19  C   UNL     1      41.111 -14.415   2.549  1.00  0.00    -0.024 A 
HETATM   20  C   UNL     1      40.428 -15.642   2.515  1.00  0.00     0.014 A 
HETATM   21  C   UNL     1      41.127 -16.846   2.377  1.00  0.00     0.024 A 
HETATM   22  C   UNL     1      42.515 -16.832   2.283  1.00  0.00     0.034 A 
HETATM   23 CL   UNL     1      43.376 -18.313   2.116  1.00  0.00    -0.084 Cl
HETATM   24  C   UNL     1      43.213 -15.627   2.326  1.00  0.00     0.024 A 
HETATM   25  C   UNL     1      42.514 -14.425   2.458  1.00  0.00     0.014 A 
ENDBRANCH   2  19
BRANCH   1  26
HETATM   26  C   UNL     1      40.315 -12.899   0.211  1.00  0.00     0.296 C 
HETATM   27  O   UNL     1      41.309 -12.542  -0.393  1.00  0.00    -0.259 OA
BRANCH  26  28
HETATM   28  O   UNL     1      39.327 -13.723  -0.205  1.00  0.00    -0.318 OA
BRANCH  28  29
HETATM   29  C   UNL     1      38.829 -13.499  -1.534  1.00  0.00     0.174 C 
HETATM   30  C   UNL     1      39.053 -14.751  -2.358  1.00  0.00     0.034 C 
ENDBRANCH  28  29
ENDBRANCH  26  28
ENDBRANCH   1  26
TORSDOF 5
ENDMDL
MODEL 6
REMARK VINA RESULT:      -7.0      4.621      7.763
REMARK  5 active torsions:
REMARK  status: ('A' for Active; 'I' for Inactive)
REMARK    1  A    between atoms: C_2  and  O_3 
REMARK    2  A    between atoms: O_3  and  C_4 
REMARK    3  A    between atoms: C_4  and  C_5 
REMARK    4  A    between atoms: C_6  and  C_7 
REMARK    5  A    between atoms: C_22  and  N_23 
ROOT
HETATM    1  C   UNL     1      40.866 -11.507   6.040  1.00  0.00     0.075 A 
HETATM    2  C   UNL     1      42.161 -12.061   6.123  1.00  0.00     0.011 A 
HETATM    3  C   UNL     1      43.156 -11.286   6.758  1.00  0.00     0.074 A 
HETATM    4  C   UNL     1      42.822 -10.027   7.260  1.00  0.00     0.096 A 
HETATM    5  N   UNL     1      41.571  -9.509   7.171  1.00  0.00    -0.250 NA
HETATM    6  C   UNL     1      40.606 -10.240   6.564  1.00  0.00     0.048 A 
HETATM    7  C   UNL     1      39.249  -9.601   6.491  1.00  0.00     0.071 C 
HETATM    8  C   UNL     1      44.567 -11.723   6.939  1.00  0.00     0.260 A 
HETATM    9  O   UNL     1      44.985 -12.819   6.596  1.00  0.00    -0.267 OA
HETATM   10  N   UNL     1      45.423 -10.825   7.533  1.00  0.00    -0.312 N 
HETATM   11  C   UNL     1      45.103  -9.588   8.022  1.00  0.00     0.102 A 
HETATM   12  C   UNL     1      43.824  -9.172   7.914  1.00  0.00     0.098 A 
HETATM   13  C   UNL     1      43.392  -7.828   8.478  1.00  0.00     0.025 C 
HETATM   14  N   UNL     1      43.033  -6.713   8.945  1.00  0.00    -0.096 N 
HETATM   15  H   UNL     1      46.366 -11.169   7.670  1.00  0.00     0.170 HD
ENDROOT
BRANCH  11  16
HETATM   16  N   UNL     1      46.123  -8.876   8.604  1.00  0.00    -0.287 NA
HETATM   17  H   UNL     1      46.930  -8.745   8.000  1.00  0.00     0.125 HD
HETATM   18  H   UNL     1      45.854  -8.008   9.065  1.00  0.00     0.125 HD
ENDBRANCH  11  16
BRANCH   2  19
HETATM   19  C   UNL     1      42.425 -13.395   5.557  1.00  0.00    -0.024 A 
HETATM   20  C   UNL     1      42.865 -13.538   4.232  1.00  0.00     0.014 A 
HETATM   21  C   UNL     1      43.107 -14.805   3.692  1.00  0.00     0.024 A 
HETATM   22  C   UNL     1      42.901 -15.940   4.471  1.00  0.00     0.034 A 
HETATM   23 CL   UNL     1      43.196 -17.500   3.807  1.00  0.00    -0.084 Cl
HETATM   24  C   UNL     1      42.453 -15.821   5.785  1.00  0.00     0.024 A 
HETATM   25  C   UNL     1      42.217 -14.554   6.325  1.00  0.00     0.014 A 
ENDBRANCH   2  19
BRANCH   1  26
HETATM   26  C   UNL     1      39.782 -12.221   5.351  1.00  0.00     0.296 C 
HETATM   27  O   UNL     1      39.014 -12.981   5.909  1.00  0.00    -0.259 OA
BRANCH  26  28
HETATM   28  O   UNL     1      39.850 -11.905   4.038  1.00  0.00    -0.318 OA
BRANCH  28  29
HETATM   29  C   UNL     1      38.940 -12.601   3.169  1.00  0.00     0.174 C 
HETATM   30  C   UNL     1      39.656 -13.793   2.567  1.00  0.00     0.034 C 
ENDBRANCH  28  29
ENDBRANCH  26  28
ENDBRANCH   1  26
TORSDOF 5
ENDMDL
MODEL 7
REMARK VINA RESULT:      -7.0      4.022      7.215
REMARK  5 active torsions:
REMARK  status: ('A' for Active; 'I' for Inactive)
REMARK    1  A    between atoms: C_2  and  O_3 
REMARK    2  A    between atoms: O_3  and  C_4 
REMARK    3  A    between atoms: C_4  and  C_5 
REMARK    4  A    between atoms: C_6  and  C_7 
REMARK    5  A    between atoms: C_22  and  N_23 
ROOT
HETATM    1  C   UNL     1      40.855 -12.231   3.767  1.00  0.00     0.075 A 
HETATM    2  C   UNL     1      41.831 -13.061   4.356  1.00  0.00     0.011 A 
HETATM    3  C   UNL     1      42.540 -12.541   5.462  1.00  0.00     0.074 A 
HETATM    4  C   UNL     1      42.253 -11.251   5.909  1.00  0.00     0.096 A 
HETATM    5  N   UNL     1      41.311 -10.465   5.329  1.00  0.00    -0.250 NA
HETATM    6  C   UNL     1      40.624 -10.949   4.267  1.00  0.00     0.048 A 
HETATM    7  C   UNL     1      39.605 -10.022   3.668  1.00  0.00     0.071 C 
HETATM    8  C   UNL     1      43.592 -13.286   6.205  1.00  0.00     0.260 A 
HETATM    9  O   UNL     1      43.908 -14.441   5.956  1.00  0.00    -0.267 OA
HETATM   10  N   UNL     1      44.223 -12.614   7.226  1.00  0.00    -0.312 N 
HETATM   11  C   UNL     1      43.950 -11.348   7.666  1.00  0.00     0.102 A 
HETATM   12  C   UNL     1      42.973 -10.655   7.044  1.00  0.00     0.098 A 
HETATM   13  C   UNL     1      42.589  -9.260   7.512  1.00  0.00     0.025 C 
HETATM   14  N   UNL     1      42.270  -8.104   7.900  1.00  0.00    -0.096 N 
HETATM   15  H   UNL     1      44.909 -13.163   7.731  1.00  0.00     0.170 HD
ENDROOT
BRANCH  11  16
HETATM   16  N   UNL     1      44.693 -10.894   8.728  1.00  0.00    -0.287 NA
HETATM   17  H   UNL     1      44.945  -9.911   8.663  1.00  0.00     0.125 HD
HETATM   18  H   UNL     1      44.338 -11.129   9.654  1.00  0.00     0.125 HD
ENDBRANCH  11  16
BRANCH   2  19
HETATM   19  C   UNL     1      42.073 -14.408   3.812  1.00  0.00    -0.024 A 
HETATM   20  C   UNL     1      41.371 -15.519   4.308  1.00  0.00     0.014 A 
HETATM   21  C   UNL     1      41.606 -16.800   3.798  1.00  0.00     0.024 A 
HETATM   22  C   UNL     1      42.552 -16.980   2.794  1.00  0.00     0.034 A 
HETATM   23 CL   UNL     1      42.844 -18.556   2.167  1.00  0.00    -0.084 Cl
HETATM   24  C   UNL     1      43.268 -15.894   2.295  1.00  0.00     0.024 A 
HETATM   25  C   UNL     1      43.028 -14.614   2.802  1.00  0.00     0.014 A 
ENDBRANCH   2  19
BRANCH   1  26
HETATM   26  C   UNL     1      40.107 -12.670   2.580  1.00  0.00     0.296 C 
HETATM   27  O   UNL     1      39.072 -13.307   2.634  1.00  0.00    -0.259 OA
BRANCH  26  28
HETATM   28  O   UNL     1      40.799 -12.279   1.487  1.00  0.00    -0.318 OA
BRANCH  28  29
HETATM   29  C   UNL     1      40.024 -11.999   0.310  1.00  0.00     0.174 C 
HETATM   30  C   UNL     1      40.498 -12.900  -0.813  1.00  0.00     0.034 C 
ENDBRANCH  28  29
ENDBRANCH  26  28
ENDBRANCH   1  26
TORSDOF 5
ENDMDL
MODEL 8
REMARK VINA RESULT:      -6.9      2.317      4.392
REMARK  5 active torsions:
REMARK  status: ('A' for Active; 'I' for Inactive)
REMARK    1  A    between atoms: C_2  and  O_3 
REMARK    2  A    between atoms: O_3  and  C_4 
REMARK    3  A    between atoms: C_4  and  C_5 
REMARK    4  A    between atoms: C_6  and  C_7 
REMARK    5  A    between atoms: C_22  and  N_23 
ROOT
HETATM    1  C   UNL     1      41.087 -14.340   2.653  1.00  0.00     0.075 A 
HETATM    2  C   UNL     1      41.937 -14.335   3.779  1.00  0.00     0.011 A 
HETATM    3  C   UNL     1      42.644 -15.524   4.059  1.00  0.00     0.074 A 
HETATM    4  C   UNL     1      42.469 -16.633   3.230  1.00  0.00     0.096 A 
HETATM    5  N   UNL     1      41.647 -16.621   2.152  1.00  0.00    -0.250 NA
HETATM    6  C   UNL     1      40.960 -15.488   1.870  1.00  0.00     0.048 A 
HETATM    7  C   UNL     1      40.060 -15.549   0.669  1.00  0.00     0.071 C 
HETATM    8  C   UNL     1      43.588 -15.686   5.198  1.00  0.00     0.260 A 
HETATM    9  O   UNL     1      43.876 -14.785   5.973  1.00  0.00    -0.267 OA
HETATM   10  N   UNL     1      44.156 -16.929   5.362  1.00  0.00    -0.312 N 
HETATM   11  C   UNL     1      43.984 -18.020   4.556  1.00  0.00     0.102 A 
HETATM   12  C   UNL     1      43.168 -17.901   3.488  1.00  0.00     0.098 A 
HETATM   13  C   UNL     1      42.969 -19.062   2.527  1.00  0.00     0.025 C 
HETATM   14  N   UNL     1      42.804 -20.025   1.729  1.00  0.00    -0.096 N 
HETATM   15  H   UNL     1      44.817 -16.992   6.126  1.00  0.00     0.170 HD
ENDROOT
BRANCH  11  16
HETATM   16  N   UNL     1      44.681 -19.152   4.900  1.00  0.00    -0.287 NA
HETATM   17  H   UNL     1      45.626 -18.969   5.229  1.00  0.00     0.125 HD
HETATM   18  H   UNL     1      44.193 -19.809   5.508  1.00  0.00     0.125 HD
ENDBRANCH  11  16
BRANCH   2  19
HETATM   19  C   UNL     1      42.054 -13.120   4.603  1.00  0.00    -0.024 A 
HETATM   20  C   UNL     1      41.128 -12.853   5.624  1.00  0.00     0.014 A 
HETATM   21  C   UNL     1      41.234 -11.696   6.401  1.00  0.00     0.024 A 
HETATM   22  C   UNL     1      42.261 -10.790   6.155  1.00  0.00     0.034 A 
HETATM   23 CL   UNL     1      42.391  -9.363   7.109  1.00  0.00    -0.084 Cl
HETATM   24  C   UNL     1      43.184 -11.029   5.140  1.00  0.00     0.024 A 
HETATM   25  C   UNL     1      43.081 -12.189   4.368  1.00  0.00     0.014 A 
ENDBRANCH   2  19
BRANCH   1  26
HETATM   26  C   UNL     1      40.273 -13.163   2.316  1.00  0.00     0.296 C 
HETATM   27  O   UNL     1      39.129 -13.003   2.699  1.00  0.00    -0.259 OA
BRANCH  26  28
HETATM   28  O   UNL     1      41.007 -12.372   1.502  1.00  0.00    -0.318 OA
BRANCH  28  29
HETATM   29  C   UNL     1      40.466 -11.071   1.223  1.00  0.00     0.174 C 
HETATM   30  C   UNL     1      41.007 -10.088   2.244  1.00  0.00     0.034 C 
ENDBRANCH  28  29
ENDBRANCH  26  28
ENDBRANCH   1  26
TORSDOF 5
ENDMDL
MODEL 9
REMARK VINA RESULT:      -6.7      4.159      6.921
REMARK  5 active torsions:
REMARK  status: ('A' for Active; 'I' for Inactive)
REMARK    1  A    between atoms: C_2  and  O_3 
REMARK    2  A    between atoms: O_3  and  C_4 
REMARK    3  A    between atoms: C_4  and  C_5 
REMARK    4  A    between atoms: C_6  and  C_7 
REMARK    5  A    between atoms: C_22  and  N_23 
ROOT
HETATM    1  C   UNL     1      41.016 -14.220   2.301  1.00  0.00     0.075 A 
HETATM    2  C   UNL     1      41.434 -12.874   2.255  1.00  0.00     0.011 A 
HETATM    3  C   UNL     1      41.182 -12.159   1.063  1.00  0.00     0.074 A 
HETATM    4  C   UNL     1      40.548 -12.807   0.001  1.00  0.00     0.096 A 
HETATM    5  N   UNL     1      40.155 -14.104   0.063  1.00  0.00    -0.250 NA
HETATM    6  C   UNL     1      40.390 -14.803   1.198  1.00  0.00     0.048 A 
HETATM    7  C   UNL     1      39.938 -16.235   1.192  1.00  0.00     0.071 C 
HETATM    8  C   UNL     1      41.546 -10.732   0.851  1.00  0.00     0.260 A 
HETATM    9  O   UNL     1      42.056 -10.029   1.712  1.00  0.00    -0.267 OA
HETATM   10  N   UNL     1      41.277 -10.201  -0.389  1.00  0.00    -0.312 N 
HETATM   11  C   UNL     1      40.662 -10.832  -1.435  1.00  0.00     0.102 A 
HETATM   12  C   UNL     1      40.278 -12.116  -1.268  1.00  0.00     0.098 A 
HETATM   13  C   UNL     1      39.550 -12.861  -2.374  1.00  0.00     0.025 C 
HETATM   14  N   UNL     1      38.945 -13.479  -3.292  1.00  0.00    -0.096 N 
HETATM   15  H   UNL     1      41.508  -9.219  -0.485  1.00  0.00     0.170 HD
ENDROOT
BRANCH  11  16
HETATM   16  N   UNL     1      40.471 -10.088  -2.573  1.00  0.00    -0.287 NA
HETATM   17  H   UNL     1      39.883  -9.270  -2.435  1.00  0.00     0.125 HD
HETATM   18  H   UNL     1      41.310  -9.862  -3.104  1.00  0.00     0.125 HD
ENDBRANCH  11  16
BRANCH   2  19
HETATM   19  C   UNL     1      42.102 -12.274   3.422  1.00  0.00    -0.024 A 
HETATM   20  C   UNL     1      41.352 -11.720   4.473  1.00  0.00     0.014 A 
HETATM   21  C   UNL     1      41.986 -11.142   5.577  1.00  0.00     0.024 A 
HETATM   22  C   UNL     1      43.376 -11.106   5.635  1.00  0.00     0.034 A 
HETATM   23 CL   UNL     1      44.157 -10.393   6.992  1.00  0.00    -0.084 Cl
HETATM   24  C   UNL     1      44.139 -11.639   4.599  1.00  0.00     0.024 A 
HETATM   25  C   UNL     1      43.504 -12.221   3.498  1.00  0.00     0.014 A 
ENDBRANCH   2  19
BRANCH   1  26
HETATM   26  C   UNL     1      41.284 -15.054   3.481  1.00  0.00     0.296 C 
HETATM   27  O   UNL     1      40.509 -15.175   4.411  1.00  0.00    -0.259 OA
BRANCH  26  28
HETATM   28  O   UNL     1      42.519 -15.585   3.340  1.00  0.00    -0.318 OA
BRANCH  28  29
HETATM   29  C   UNL     1      42.651 -16.981   3.656  1.00  0.00     0.174 C 
HETATM   30  C   UNL     1      43.119 -17.719   2.417  1.00  0.00     0.034 C 
ENDBRANCH  28  29
ENDBRANCH  26  28
ENDBRANCH   1  26
TORSDOF 5
ENDMDL
MODEL 10
REMARK VINA RESULT:      -6.6      4.561      7.066
REMARK  5 active torsions:
REMARK  status: ('A' for Active; 'I' for Inactive)
REMARK    1  A    between atoms: C_2  and  O_3 
REMARK    2  A    between atoms: O_3  and  C_4 
REMARK    3  A    between atoms: C_4  and  C_5 
REMARK    4  A    between atoms: C_6  and  C_7 
REMARK    5  A    between atoms: C_22  and  N_23 
ROOT
HETATM    1  C   UNL     1      41.778 -13.171   3.559  1.00  0.00     0.075 A 
HETATM    2  C   UNL     1      40.750 -12.584   2.793  1.00  0.00     0.011 A 
HETATM    3  C   UNL     1      39.923 -11.638   3.439  1.00  0.00     0.074 A 
HETATM    4  C   UNL     1      40.151 -11.338   4.783  1.00  0.00     0.096 A 
HETATM    5  N   UNL     1      41.145 -11.915   5.505  1.00  0.00    -0.250 NA
HETATM    6  C   UNL     1      41.946 -12.824   4.900  1.00  0.00     0.048 A 
HETATM    7  C   UNL     1      43.017 -13.430   5.761  1.00  0.00     0.071 C 
HETATM    8  C   UNL     1      38.802 -10.918   2.777  1.00  0.00     0.260 A 
HETATM    9  O   UNL     1      38.522 -11.043   1.593  1.00  0.00    -0.267 OA
HETATM   10  N   UNL     1      38.060 -10.068   3.563  1.00  0.00    -0.312 N 
HETATM   11  C   UNL     1      38.275  -9.774   4.881  1.00  0.00     0.102 A 
HETATM   12  C   UNL     1      39.309 -10.376   5.508  1.00  0.00     0.098 A 
HETATM   13  C   UNL     1      39.631 -10.059   6.959  1.00  0.00     0.025 C 
HETATM   14  N   UNL     1      39.899  -9.797   8.163  1.00  0.00    -0.096 N 
HETATM   15  H   UNL     1      37.328  -9.571   3.071  1.00  0.00     0.170 HD
ENDROOT
BRANCH  11  16
HETATM   16  N   UNL     1      37.419  -8.866   5.456  1.00  0.00    -0.287 NA
HETATM   17  H   UNL     1      36.887  -9.241   6.237  1.00  0.00     0.125 HD
HETATM   18  H   UNL     1      37.818  -7.955   5.677  1.00  0.00     0.125 HD
ENDBRANCH  11  16
BRANCH   2  19
HETATM   19  C   UNL     1      40.578 -12.966   1.381  1.00  0.00    -0.024 A 
HETATM   20  C   UNL     1      41.113 -12.174   0.353  1.00  0.00     0.014 A 
HETATM   21  C   UNL     1      40.943 -12.532  -0.988  1.00  0.00     0.024 A 
HETATM   22  C   UNL     1      40.226 -13.681  -1.311  1.00  0.00     0.034 A 
HETATM   23 CL   UNL     1      40.013 -14.121  -2.961  1.00  0.00    -0.084 Cl
HETATM   24  C   UNL     1      39.677 -14.475  -0.307  1.00  0.00     0.024 A 
HETATM   25  C   UNL     1      39.853 -14.119   1.033  1.00  0.00     0.014 A 
ENDBRANCH   2  19
BRANCH   1  26
HETATM   26  C   UNL     1      42.653 -14.203   2.983  1.00  0.00     0.296 C 
HETATM   27  O   UNL     1      43.600 -13.957   2.260  1.00  0.00    -0.259 OA
BRANCH  26  28
HETATM   28  O   UNL     1      42.179 -15.409   3.369  1.00  0.00    -0.318 OA
BRANCH  28  29
HETATM   29  C   UNL     1      42.125 -16.425   2.355  1.00  0.00     0.174 C 
HETATM   30  C   UNL     1      43.228 -17.432   2.614  1.00  0.00     0.034 C 
ENDBRANCH  28  29
ENDBRANCH  26  28
ENDBRANCH   1  26
TORSDOF 5
ENDMDL
