MODEL 1
REMARK VINA RESULT:      -8.4      0.000      0.000
REMARK  5 active torsions:
REMARK  status: ('A' for Active; 'I' for Inactive)
REMARK    1  A    between atoms: C_3  and  N_4 
REMARK       I    between atoms: N_4  and  C_5 
REMARK       I    between atoms: C_5  and  N_6 
REMARK    2  A    between atoms: N_6  and  C_7 
REMARK    3  A    between atoms: C_7  and  C_8 
REMARK    4  A    between atoms: C_11  and  N_12 
REMARK       I    between atoms: N_12  and  C_13 
REMARK    5  A    between atoms: C_13  and  C_14 
ROOT
HETATM    1  C   UNL     1      42.255 -12.000   5.687  1.00  0.00    -0.040 A 
HETATM    2  C   UNL     1      41.330 -12.645   4.859  1.00  0.00     0.011 A 
HETATM    3  C   UNL     1      41.506 -13.986   4.496  1.00  0.00     0.030 A 
HETATM    4  C   UNL     1      42.606 -14.709   4.957  1.00  0.00     0.035 A 
HETATM    5  C   UNL     1      43.521 -14.069   5.804  1.00  0.00     0.030 A 
HETATM    6  C   UNL     1      43.347 -12.731   6.170  1.00  0.00     0.011 A 
ENDROOT
BRANCH   1   7
HETATM    7  C   UNL     1      42.060 -10.559   6.073  1.00  0.00     0.162 C 
BRANCH   7   8
HETATM    8  N   UNL     1      41.567 -10.447   7.427  1.00  0.00    -0.339 N 
HETATM    9  C   UNL     1      42.144  -9.522   8.272  1.00  0.00     0.321 C 
HETATM   10  N   UNL     1      41.586  -9.604   9.527  1.00  0.00    -0.307 N 
HETATM   11  O   UNL     1      42.999  -8.732   7.900  1.00  0.00    -0.247 OA
HETATM   12  H   UNL     1      40.611  -9.871   9.492  1.00  0.00     0.170 HD
HETATM   13  H   UNL     1      41.266 -11.304   7.867  1.00  0.00     0.164 HD
BRANCH  10  14
HETATM   14  C   UNL     1      41.986  -8.869  10.669  1.00  0.00     0.059 A 
HETATM   15  C   UNL     1      42.997  -9.232  11.573  1.00  0.00    -0.032 A 
HETATM   16  C   UNL     1      43.780 -10.511  11.514  1.00  0.00     0.050 C 
HETATM   17  C   UNL     1      43.288  -8.352  12.632  1.00  0.00     0.028 A 
HETATM   18  C   UNL     1      42.537  -7.199  12.792  1.00  0.00     0.117 A 
HETATM   19  N   UNL     1      41.517  -6.858  11.984  1.00  0.00    -0.271 NA
HETATM   20  C   UNL     1      41.271  -7.698  10.951  1.00  0.00     0.146 A 
ENDBRANCH  10  14
ENDBRANCH   7   8
ENDBRANCH   1   7
BRANCH   4  21
HETATM   21  N   UNL     1      42.865 -16.058   4.629  1.00  0.00    -0.323 N 
HETATM   22  C   UNL     1      43.265 -16.562   3.403  1.00  0.00     0.257 C 
HETATM   23  O   UNL     1      43.506 -15.909   2.393  1.00  0.00    -0.267 OA
HETATM   24  H   UNL     1      42.803 -16.704   5.402  1.00  0.00     0.169 HD
BRANCH  22  25
HETATM   25  C   UNL     1      43.436 -18.037   3.331  1.00  0.00     0.049 A 
HETATM   26  C   UNL     1      43.986 -18.694   4.426  1.00  0.00     0.133 A 
HETATM   27  N   UNL     1      44.195 -20.035   4.483  1.00  0.00    -0.272 NA
HETATM   28  C   UNL     1      43.854 -20.750   3.392  1.00  0.00     0.116 A 
HETATM   29  C   UNL     1      43.314 -20.189   2.246  1.00  0.00     0.020 A 
HETATM   30  C   UNL     1      43.107 -18.809   2.212  1.00  0.00     0.020 A 
ENDBRANCH  22  25
ENDBRANCH   4  21
TORSDOF 5
ENDMDL
MODEL 2
REMARK VINA RESULT:      -8.2      1.675     10.305
REMARK  5 active torsions:
REMARK  status: ('A' for Active; 'I' for Inactive)
REMARK    1  A    between atoms: C_3  and  N_4 
REMARK       I    between atoms: N_4  and  C_5 
REMARK       I    between atoms: C_5  and  N_6 
REMARK    2  A    between atoms: N_6  and  C_7 
REMARK    3  A    between atoms: C_7  and  C_8 
REMARK    4  A    between atoms: C_11  and  N_12 
REMARK       I    between atoms: N_12  and  C_13 
REMARK    5  A    between atoms: C_13  and  C_14 
ROOT
HETATM    1  C   UNL     1      41.984 -13.050   3.634  1.00  0.00    -0.040 A 
HETATM    2  C   UNL     1      43.037 -12.129   3.657  1.00  0.00     0.011 A 
HETATM    3  C   UNL     1      43.284 -11.351   4.795  1.00  0.00     0.030 A 
HETATM    4  C   UNL     1      42.486 -11.480   5.931  1.00  0.00     0.035 A 
HETATM    5  C   UNL     1      41.444 -12.418   5.916  1.00  0.00     0.030 A 
HETATM    6  C   UNL     1      41.197 -13.199   4.781  1.00  0.00     0.011 A 
ENDROOT
BRANCH   1   7
HETATM    7  C   UNL     1      41.725 -13.883   2.407  1.00  0.00     0.162 C 
BRANCH   7   8
HETATM    8  N   UNL     1      42.728 -14.912   2.258  1.00  0.00    -0.339 N 
HETATM    9  C   UNL     1      42.469 -16.171   2.758  1.00  0.00     0.321 C 
HETATM   10  N   UNL     1      43.559 -16.993   2.577  1.00  0.00    -0.307 N 
HETATM   11  O   UNL     1      41.392 -16.479   3.247  1.00  0.00    -0.247 OA
HETATM   12  H   UNL     1      44.068 -16.766   1.733  1.00  0.00     0.170 HD
HETATM   13  H   UNL     1      43.690 -14.613   2.320  1.00  0.00     0.164 HD
BRANCH  10  14
HETATM   14  C   UNL     1      43.685 -18.326   3.038  1.00  0.00     0.059 A 
HETATM   15  C   UNL     1      43.993 -18.721   4.349  1.00  0.00    -0.032 A 
HETATM   16  C   UNL     1      44.311 -17.780   5.475  1.00  0.00     0.050 C 
HETATM   17  C   UNL     1      44.036 -20.097   4.635  1.00  0.00     0.028 A 
HETATM   18  C   UNL     1      43.841 -21.017   3.616  1.00  0.00     0.117 A 
HETATM   19  N   UNL     1      43.614 -20.670   2.337  1.00  0.00    -0.271 NA
HETATM   20  C   UNL     1      43.544 -19.342   2.084  1.00  0.00     0.146 A 
ENDBRANCH  10  14
ENDBRANCH   7   8
ENDBRANCH   1   7
BRANCH   4  21
HETATM   21  N   UNL     1      42.658 -10.727   7.114  1.00  0.00    -0.323 N 
HETATM   22  C   UNL     1      43.648 -10.880   8.069  1.00  0.00     0.257 C 
HETATM   23  O   UNL     1      44.579 -11.677   8.029  1.00  0.00    -0.267 OA
HETATM   24  H   UNL     1      42.013  -9.958   7.227  1.00  0.00     0.169 HD
BRANCH  22  25
HETATM   25  C   UNL     1      43.571  -9.963   9.237  1.00  0.00     0.049 A 
HETATM   26  C   UNL     1      42.816  -8.801   9.118  1.00  0.00     0.133 A 
HETATM   27  N   UNL     1      42.668  -7.885  10.109  1.00  0.00    -0.272 NA
HETATM   28  C   UNL     1      43.317  -8.131  11.266  1.00  0.00     0.116 A 
HETATM   29  C   UNL     1      44.107  -9.250  11.479  1.00  0.00     0.020 A 
HETATM   30  C   UNL     1      44.241 -10.178  10.445  1.00  0.00     0.020 A 
ENDBRANCH  22  25
ENDBRANCH   4  21
TORSDOF 5
ENDMDL
MODEL 3
REMARK VINA RESULT:      -8.1      4.420     10.615
REMARK  5 active torsions:
REMARK  status: ('A' for Active; 'I' for Inactive)
REMARK    1  A    between atoms: C_3  and  N_4 
REMARK       I    between atoms: N_4  and  C_5 
REMARK       I    between atoms: C_5  and  N_6 
REMARK    2  A    between atoms: N_6  and  C_7 
REMARK    3  A    between atoms: C_7  and  C_8 
REMARK    4  A    between atoms: C_11  and  N_12 
REMARK       I    between atoms: N_12  and  C_13 
REMARK    5  A    between atoms: C_13  and  C_14 
ROOT
HETATM    1  C   UNL     1      42.759 -14.414   3.447  1.00  0.00    -0.040 A 
HETATM    2  C   UNL     1      42.624 -14.989   4.716  1.00  0.00     0.011 A 
HETATM    3  C   UNL     1      42.773 -14.215   5.873  1.00  0.00     0.030 A 
HETATM    4  C   UNL     1      43.058 -12.853   5.785  1.00  0.00     0.035 A 
HETATM    5  C   UNL     1      43.172 -12.272   4.515  1.00  0.00     0.030 A 
HETATM    6  C   UNL     1      43.020 -13.042   3.357  1.00  0.00     0.011 A 
ENDROOT
BRANCH   1   7
HETATM    7  C   UNL     1      42.597 -15.252   2.208  1.00  0.00     0.162 C 
BRANCH   7   8
HETATM    8  N   UNL     1      42.226 -14.435   1.075  1.00  0.00    -0.339 N 
HETATM    9  C   UNL     1      40.951 -14.549   0.560  1.00  0.00     0.321 C 
HETATM   10  N   UNL     1      40.806 -13.742  -0.545  1.00  0.00    -0.307 N 
HETATM   11  O   UNL     1      40.092 -15.249   1.075  1.00  0.00    -0.247 OA
HETATM   12  H   UNL     1      41.362 -12.900  -0.475  1.00  0.00     0.170 HD
HETATM   13  H   UNL     1      42.950 -14.255   0.395  1.00  0.00     0.164 HD
BRANCH  10  14
HETATM   14  C   UNL     1      39.664 -13.664  -1.378  1.00  0.00     0.059 A 
HETATM   15  C   UNL     1      38.570 -12.802  -1.202  1.00  0.00    -0.032 A 
HETATM   16  C   UNL     1      38.401 -11.859  -0.046  1.00  0.00     0.050 C 
HETATM   17  C   UNL     1      37.539 -12.834  -2.157  1.00  0.00     0.028 A 
HETATM   18  C   UNL     1      37.594 -13.749  -3.197  1.00  0.00     0.117 A 
HETATM   19  N   UNL     1      38.594 -14.635  -3.354  1.00  0.00    -0.271 NA
HETATM   20  C   UNL     1      39.595 -14.569  -2.445  1.00  0.00     0.146 A 
ENDBRANCH  10  14
ENDBRANCH   7   8
ENDBRANCH   1   7
BRANCH   4  21
HETATM   21  N   UNL     1      43.236 -12.004   6.900  1.00  0.00    -0.323 N 
HETATM   22  C   UNL     1      44.409 -11.391   7.308  1.00  0.00     0.257 C 
HETATM   23  O   UNL     1      45.493 -11.446   6.739  1.00  0.00    -0.267 OA
HETATM   24  H   UNL     1      42.393 -11.785   7.410  1.00  0.00     0.169 HD
BRANCH  22  25
HETATM   25  C   UNL     1      44.316 -10.569   8.544  1.00  0.00     0.049 A 
HETATM   26  C   UNL     1      43.108  -9.943   8.834  1.00  0.00     0.133 A 
HETATM   27  N   UNL     1      42.898  -9.167   9.928  1.00  0.00    -0.272 NA
HETATM   28  C   UNL     1      43.943  -8.995  10.762  1.00  0.00     0.116 A 
HETATM   29  C   UNL     1      45.191  -9.561  10.554  1.00  0.00     0.020 A 
HETATM   30  C   UNL     1      45.382 -10.357   9.423  1.00  0.00     0.020 A 
ENDBRANCH  22  25
ENDBRANCH   4  21
TORSDOF 5
ENDMDL
MODEL 4
REMARK VINA RESULT:      -8.0      1.811      2.467
REMARK  5 active torsions:
REMARK  status: ('A' for Active; 'I' for Inactive)
REMARK    1  A    between atoms: C_3  and  N_4 
REMARK       I    between atoms: N_4  and  C_5 
REMARK       I    between atoms: C_5  and  N_6 
REMARK    2  A    between atoms: N_6  and  C_7 
REMARK    3  A    between atoms: C_7  and  C_8 
REMARK    4  A    between atoms: C_11  and  N_12 
REMARK       I    between atoms: N_12  and  C_13 
REMARK    5  A    between atoms: C_13  and  C_14 
ROOT
HETATM    1  C   UNL     1      42.961 -11.137   7.177  1.00  0.00    -0.040 A 
HETATM    2  C   UNL     1      44.110 -11.929   7.280  1.00  0.00     0.011 A 
HETATM    3  C   UNL     1      44.229 -13.117   6.550  1.00  0.00     0.030 A 
HETATM    4  C   UNL     1      43.206 -13.535   5.700  1.00  0.00     0.035 A 
HETATM    5  C   UNL     1      42.064 -12.732   5.580  1.00  0.00     0.030 A 
HETATM    6  C   UNL     1      41.943 -11.543   6.306  1.00  0.00     0.011 A 
ENDROOT
BRANCH   1   7
HETATM    7  C   UNL     1      42.839  -9.860   7.964  1.00  0.00     0.162 C 
BRANCH   7   8
HETATM    8  N   UNL     1      43.086 -10.093   9.369  1.00  0.00    -0.339 N 
HETATM    9  C   UNL     1      42.447  -9.297  10.298  1.00  0.00     0.321 C 
HETATM   10  N   UNL     1      42.851  -9.627  11.572  1.00  0.00    -0.307 N 
HETATM   11  O   UNL     1      41.614  -8.458   9.987  1.00  0.00    -0.247 OA
HETATM   12  H   UNL     1      43.065 -10.612  11.658  1.00  0.00     0.170 HD
HETATM   13  H   UNL     1      44.020 -10.382   9.619  1.00  0.00     0.164 HD
BRANCH  10  14
HETATM   14  C   UNL     1      42.470  -8.968  12.765  1.00  0.00     0.059 A 
HETATM   15  C   UNL     1      41.332  -9.249  13.537  1.00  0.00    -0.032 A 
HETATM   16  C   UNL     1      40.283 -10.261  13.178  1.00  0.00     0.050 C 
HETATM   17  C   UNL     1      41.136  -8.516  14.721  1.00  0.00     0.028 A 
HETATM   18  C   UNL     1      42.022  -7.505  15.059  1.00  0.00     0.117 A 
HETATM   19  N   UNL     1      43.082  -7.166  14.304  1.00  0.00    -0.271 NA
HETATM   20  C   UNL     1      43.276  -7.902  13.185  1.00  0.00     0.146 A 
ENDBRANCH  10  14
ENDBRANCH   7   8
ENDBRANCH   1   7
BRANCH   4  21
HETATM   21  N   UNL     1      43.240 -14.725   4.939  1.00  0.00    -0.323 N 
HETATM   22  C   UNL     1      43.356 -16.021   5.413  1.00  0.00     0.257 C 
HETATM   23  O   UNL     1      43.405 -16.362   6.590  1.00  0.00    -0.267 OA
HETATM   24  H   UNL     1      43.105 -14.601   3.947  1.00  0.00     0.169 HD
BRANCH  22  25
HETATM   25  C   UNL     1      43.397 -17.089   4.379  1.00  0.00     0.049 A 
HETATM   26  C   UNL     1      44.016 -18.294   4.696  1.00  0.00     0.133 A 
HETATM   27  N   UNL     1      44.120 -19.343   3.841  1.00  0.00    -0.272 NA
HETATM   28  C   UNL     1      43.598 -19.177   2.608  1.00  0.00     0.116 A 
HETATM   29  C   UNL     1      42.976 -18.012   2.190  1.00  0.00     0.020 A 
HETATM   30  C   UNL     1      42.879 -16.947   3.088  1.00  0.00     0.020 A 
ENDBRANCH  22  25
ENDBRANCH   4  21
TORSDOF 5
ENDMDL
MODEL 5
REMARK VINA RESULT:      -7.7      1.681      1.995
REMARK  5 active torsions:
REMARK  status: ('A' for Active; 'I' for Inactive)
REMARK    1  A    between atoms: C_3  and  N_4 
REMARK       I    between atoms: N_4  and  C_5 
REMARK       I    between atoms: C_5  and  N_6 
REMARK    2  A    between atoms: N_6  and  C_7 
REMARK    3  A    between atoms: C_7  and  C_8 
REMARK    4  A    between atoms: C_11  and  N_12 
REMARK       I    between atoms: N_12  and  C_13 
REMARK    5  A    between atoms: C_13  and  C_14 
ROOT
HETATM    1  C   UNL     1      40.951 -12.113   5.889  1.00  0.00    -0.040 A 
HETATM    2  C   UNL     1      42.310 -12.422   6.018  1.00  0.00     0.011 A 
HETATM    3  C   UNL     1      42.797 -13.679   5.643  1.00  0.00     0.030 A 
HETATM    4  C   UNL     1      41.938 -14.651   5.131  1.00  0.00     0.035 A 
HETATM    5  C   UNL     1      40.581 -14.335   4.982  1.00  0.00     0.030 A 
HETATM    6  C   UNL     1      40.092 -13.078   5.352  1.00  0.00     0.011 A 
ENDROOT
BRANCH   1   7
HETATM    7  C   UNL     1      40.434 -10.759   6.293  1.00  0.00     0.162 C 
BRANCH   7   8
HETATM    8  N   UNL     1      41.035 -10.323   7.533  1.00  0.00    -0.339 N 
HETATM    9  C   UNL     1      40.256  -9.649   8.450  1.00  0.00     0.321 C 
HETATM   10  N   UNL     1      41.013  -9.265   9.534  1.00  0.00    -0.307 N 
HETATM   11  O   UNL     1      39.055  -9.478   8.297  1.00  0.00    -0.247 OA
HETATM   12  H   UNL     1      41.752  -9.926   9.732  1.00  0.00     0.170 HD
HETATM   13  H   UNL     1      41.998 -10.026   7.485  1.00  0.00     0.164 HD
BRANCH  10  14
HETATM   14  C   UNL     1      40.569  -8.484  10.628  1.00  0.00     0.059 A 
HETATM   15  C   UNL     1      39.918  -8.963  11.775  1.00  0.00    -0.032 A 
HETATM   16  C   UNL     1      39.518 -10.393  11.999  1.00  0.00     0.050 C 
HETATM   17  C   UNL     1      39.586  -8.041  12.784  1.00  0.00     0.028 A 
HETATM   18  C   UNL     1      39.847  -6.693  12.595  1.00  0.00     0.117 A 
HETATM   19  N   UNL     1      40.406  -6.194  11.479  1.00  0.00    -0.271 NA
HETATM   20  C   UNL     1      40.749  -7.098  10.531  1.00  0.00     0.146 A 
ENDBRANCH  10  14
ENDBRANCH   7   8
ENDBRANCH   1   7
BRANCH   4  21
HETATM   21  N   UNL     1      42.345 -15.947   4.741  1.00  0.00    -0.323 N 
HETATM   22  C   UNL     1      43.041 -16.299   3.597  1.00  0.00     0.257 C 
HETATM   23  O   UNL     1      43.463 -15.532   2.739  1.00  0.00    -0.267 OA
HETATM   24  H   UNL     1      42.151 -16.675   5.413  1.00  0.00     0.169 HD
BRANCH  22  25
HETATM   25  C   UNL     1      43.313 -17.751   3.424  1.00  0.00     0.049 A 
HETATM   26  C   UNL     1      43.888 -18.448   4.481  1.00  0.00     0.133 A 
HETATM   27  N   UNL     1      44.185 -19.772   4.447  1.00  0.00    -0.272 NA
HETATM   28  C   UNL     1      43.912 -20.427   3.300  1.00  0.00     0.116 A 
HETATM   29  C   UNL     1      43.356 -19.821   2.185  1.00  0.00     0.020 A 
HETATM   30  C   UNL     1      43.056 -18.459   2.246  1.00  0.00     0.020 A 
ENDBRANCH  22  25
ENDBRANCH   4  21
TORSDOF 5
ENDMDL
MODEL 6
REMARK VINA RESULT:      -7.6      2.435      2.853
REMARK  5 active torsions:
REMARK  status: ('A' for Active; 'I' for Inactive)
REMARK    1  A    between atoms: C_3  and  N_4 
REMARK       I    between atoms: N_4  and  C_5 
REMARK       I    between atoms: C_5  and  N_6 
REMARK    2  A    between atoms: N_6  and  C_7 
REMARK    3  A    between atoms: C_7  and  C_8 
REMARK    4  A    between atoms: C_11  and  N_12 
REMARK       I    between atoms: N_12  and  C_13 
REMARK    5  A    between atoms: C_13  and  C_14 
ROOT
HETATM    1  C   UNL     1      40.047 -12.872   4.778  1.00  0.00    -0.040 A 
HETATM    2  C   UNL     1      40.433 -13.182   3.469  1.00  0.00     0.011 A 
HETATM    3  C   UNL     1      41.004 -14.423   3.164  1.00  0.00     0.030 A 
HETATM    4  C   UNL     1      41.198 -15.380   4.161  1.00  0.00     0.035 A 
HETATM    5  C   UNL     1      40.792 -15.078   5.468  1.00  0.00     0.030 A 
HETATM    6  C   UNL     1      40.219 -13.840   5.774  1.00  0.00     0.011 A 
ENDROOT
BRANCH   1   7
HETATM    7  C   UNL     1      39.433 -11.536   5.097  1.00  0.00     0.162 C 
BRANCH   7   8
HETATM    8  N   UNL     1      39.992 -10.985   6.310  1.00  0.00    -0.339 N 
HETATM    9  C   UNL     1      41.267 -10.457   6.276  1.00  0.00     0.321 C 
HETATM   10  N   UNL     1      41.647 -10.039   7.531  1.00  0.00    -0.307 N 
HETATM   11  O   UNL     1      41.912 -10.358   5.243  1.00  0.00    -0.247 OA
HETATM   12  H   UNL     1      40.862  -9.700   8.071  1.00  0.00     0.170 HD
HETATM   13  H   UNL     1      39.741 -11.447   7.171  1.00  0.00     0.164 HD
BRANCH  10  14
HETATM   14  C   UNL     1      42.916  -9.524   7.891  1.00  0.00     0.059 A 
HETATM   15  C   UNL     1      44.112 -10.254   7.967  1.00  0.00    -0.032 A 
HETATM   16  C   UNL     1      44.228 -11.734   7.743  1.00  0.00     0.050 C 
HETATM   17  C   UNL     1      45.291  -9.564   8.302  1.00  0.00     0.028 A 
HETATM   18  C   UNL     1      45.232  -8.214   8.609  1.00  0.00     0.117 A 
HETATM   19  N   UNL     1      44.091  -7.503   8.614  1.00  0.00    -0.271 NA
HETATM   20  C   UNL     1      42.970  -8.174   8.257  1.00  0.00     0.146 A 
ENDBRANCH  10  14
ENDBRANCH   7   8
ENDBRANCH   1   7
BRANCH   4  21
HETATM   21  N   UNL     1      41.778 -16.649   3.942  1.00  0.00    -0.323 N 
HETATM   22  C   UNL     1      43.077 -17.037   4.222  1.00  0.00     0.257 C 
HETATM   23  O   UNL     1      43.942 -16.349   4.752  1.00  0.00    -0.267 OA
HETATM   24  H   UNL     1      41.143 -17.355   3.599  1.00  0.00     0.169 HD
BRANCH  22  25
HETATM   25  C   UNL     1      43.430 -18.435   3.859  1.00  0.00     0.049 A 
HETATM   26  C   UNL     1      43.228 -18.850   2.547  1.00  0.00     0.133 A 
HETATM   27  N   UNL     1      43.508 -20.098   2.092  1.00  0.00    -0.272 NA
HETATM   28  C   UNL     1      43.997 -20.977   2.991  1.00  0.00     0.116 A 
HETATM   29  C   UNL     1      44.218 -20.668   4.323  1.00  0.00     0.020 A 
HETATM   30  C   UNL     1      43.925 -19.377   4.766  1.00  0.00     0.020 A 
ENDBRANCH  22  25
ENDBRANCH   4  21
TORSDOF 5
ENDMDL
MODEL 7
REMARK VINA RESULT:      -7.5      2.908     11.756
REMARK  5 active torsions:
REMARK  status: ('A' for Active; 'I' for Inactive)
REMARK    1  A    between atoms: C_3  and  N_4 
REMARK       I    between atoms: N_4  and  C_5 
REMARK       I    between atoms: C_5  and  N_6 
REMARK    2  A    between atoms: N_6  and  C_7 
REMARK    3  A    between atoms: C_7  and  C_8 
REMARK    4  A    between atoms: C_11  and  N_12 
REMARK       I    between atoms: N_12  and  C_13 
REMARK    5  A    between atoms: C_13  and  C_14 
ROOT
HETATM    1  C   UNL     1      43.501  -9.574   9.661  1.00  0.00    -0.040 A 
HETATM    2  C   UNL     1      44.166  -9.231  10.843  1.00  0.00     0.011 A 
HETATM    3  C   UNL     1      43.507  -8.526  11.857  1.00  0.00     0.030 A 
HETATM    4  C   UNL     1      42.172  -8.152  11.711  1.00  0.00     0.035 A 
HETATM    5  C   UNL     1      41.499  -8.513  10.536  1.00  0.00     0.030 A 
HETATM    6  C   UNL     1      42.154  -9.221   9.522  1.00  0.00     0.011 A 
ENDROOT
BRANCH   1   7
HETATM    7  C   UNL     1      44.215 -10.333   8.575  1.00  0.00     0.162 C 
BRANCH   7   8
HETATM    8  N   UNL     1      43.598 -11.620   8.350  1.00  0.00    -0.339 N 
HETATM    9  C   UNL     1      44.000 -12.371   7.265  1.00  0.00     0.321 C 
HETATM   10  N   UNL     1      43.261 -13.530   7.183  1.00  0.00    -0.307 N 
HETATM   11  O   UNL     1      44.919 -12.033   6.533  1.00  0.00    -0.247 OA
HETATM   12  H   UNL     1      42.993 -13.873   8.095  1.00  0.00     0.170 HD
HETATM   13  H   UNL     1      42.620 -11.696   8.588  1.00  0.00     0.164 HD
BRANCH  10  14
HETATM   14  C   UNL     1      43.340 -14.498   6.153  1.00  0.00     0.059 A 
HETATM   15  C   UNL     1      42.775 -14.391   4.873  1.00  0.00    -0.032 A 
HETATM   16  C   UNL     1      41.926 -13.245   4.405  1.00  0.00     0.050 C 
HETATM   17  C   UNL     1      42.993 -15.440   3.961  1.00  0.00     0.028 A 
HETATM   18  C   UNL     1      43.692 -16.566   4.365  1.00  0.00     0.117 A 
HETATM   19  N   UNL     1      44.185 -16.729   5.605  1.00  0.00    -0.271 NA
HETATM   20  C   UNL     1      43.996 -15.697   6.461  1.00  0.00     0.146 A 
ENDBRANCH  10  14
ENDBRANCH   7   8
ENDBRANCH   1   7
BRANCH   4  21
HETATM   21  N   UNL     1      41.438  -7.428  12.678  1.00  0.00    -0.323 N 
HETATM   22  C   UNL     1      40.719  -7.944  13.743  1.00  0.00     0.257 C 
HETATM   23  O   UNL     1      40.632  -9.126  14.056  1.00  0.00    -0.267 OA
HETATM   24  H   UNL     1      41.506  -6.424  12.601  1.00  0.00     0.169 HD
BRANCH  22  25
HETATM   25  C   UNL     1      40.012  -6.948  14.591  1.00  0.00     0.049 A 
HETATM   26  C   UNL     1      38.734  -6.548  14.217  1.00  0.00     0.133 A 
HETATM   27  N   UNL     1      37.987  -5.646  14.906  1.00  0.00    -0.272 NA
HETATM   28  C   UNL     1      38.548  -5.108  16.008  1.00  0.00     0.116 A 
HETATM   29  C   UNL     1      39.820  -5.427  16.455  1.00  0.00     0.020 A 
HETATM   30  C   UNL     1      40.567  -6.359  15.732  1.00  0.00     0.020 A 
ENDBRANCH  22  25
ENDBRANCH   4  21
TORSDOF 5
ENDMDL
MODEL 8
REMARK VINA RESULT:      -7.4     18.002     19.201
REMARK  5 active torsions:
REMARK  status: ('A' for Active; 'I' for Inactive)
REMARK    1  A    between atoms: C_3  and  N_4 
REMARK       I    between atoms: N_4  and  C_5 
REMARK       I    between atoms: C_5  and  N_6 
REMARK    2  A    between atoms: N_6  and  C_7 
REMARK    3  A    between atoms: C_7  and  C_8 
REMARK    4  A    between atoms: C_11  and  N_12 
REMARK       I    between atoms: N_12  and  C_13 
REMARK    5  A    between atoms: C_13  and  C_14 
ROOT
HETATM    1  C   UNL     1      40.354 -31.650   3.989  1.00  0.00    -0.040 A 
HETATM    2  C   UNL     1      41.231 -30.587   4.236  1.00  0.00     0.011 A 
HETATM    3  C   UNL     1      41.942 -29.987   3.190  1.00  0.00     0.030 A 
HETATM    4  C   UNL     1      41.789 -30.434   1.878  1.00  0.00     0.035 A 
HETATM    5  C   UNL     1      40.896 -31.484   1.627  1.00  0.00     0.030 A 
HETATM    6  C   UNL     1      40.181 -32.084   2.670  1.00  0.00     0.011 A 
ENDROOT
BRANCH   1   7
HETATM    7  C   UNL     1      39.592 -32.290   5.118  1.00  0.00     0.162 C 
BRANCH   7   8
HETATM    8  N   UNL     1      40.491 -32.774   6.140  1.00  0.00    -0.339 N 
HETATM    9  C   UNL     1      40.397 -32.249   7.413  1.00  0.00     0.321 C 
HETATM   10  N   UNL     1      41.368 -32.787   8.227  1.00  0.00    -0.307 N 
HETATM   11  O   UNL     1      39.529 -31.452   7.735  1.00  0.00    -0.247 OA
HETATM   12  H   UNL     1      41.585 -33.743   7.977  1.00  0.00     0.170 HD
HETATM   13  H   UNL     1      41.425 -33.014   5.841  1.00  0.00     0.164 HD
BRANCH  10  14
HETATM   14  C   UNL     1      41.627 -32.423   9.570  1.00  0.00     0.059 A 
HETATM   15  C   UNL     1      41.090 -33.038  10.711  1.00  0.00    -0.032 A 
HETATM   16  C   UNL     1      40.085 -34.154  10.690  1.00  0.00     0.050 C 
HETATM   17  C   UNL     1      41.495 -32.567  11.973  1.00  0.00     0.028 A 
HETATM   18  C   UNL     1      42.350 -31.480  12.058  1.00  0.00     0.117 A 
HETATM   19  N   UNL     1      42.827 -30.825  10.984  1.00  0.00    -0.271 NA
HETATM   20  C   UNL     1      42.453 -31.311   9.777  1.00  0.00     0.146 A 
ENDBRANCH  10  14
ENDBRANCH   7   8
ENDBRANCH   1   7
BRANCH   4  21
HETATM   21  N   UNL     1      42.477 -29.893   0.769  1.00  0.00    -0.323 N 
HETATM   22  C   UNL     1      43.634 -30.378   0.182  1.00  0.00     0.257 C 
HETATM   23  O   UNL     1      44.240 -31.395   0.502  1.00  0.00    -0.267 OA
HETATM   24  H   UNL     1      42.029 -29.101   0.333  1.00  0.00     0.169 HD
BRANCH  22  25
HETATM   25  C   UNL     1      44.161 -29.588  -0.962  1.00  0.00     0.049 A 
HETATM   26  C   UNL     1      44.025 -30.109  -2.245  1.00  0.00     0.133 A 
HETATM   27  N   UNL     1      44.466 -29.486  -3.369  1.00  0.00    -0.272 NA
HETATM   28  C   UNL     1      45.084 -28.299  -3.204  1.00  0.00     0.116 A 
HETATM   29  C   UNL     1      45.284 -27.704  -1.968  1.00  0.00     0.020 A 
HETATM   30  C   UNL     1      44.819 -28.362  -0.828  1.00  0.00     0.020 A 
ENDBRANCH  22  25
ENDBRANCH   4  21
TORSDOF 5
ENDMDL
MODEL 9
REMARK VINA RESULT:      -7.2      6.750     11.302
REMARK  5 active torsions:
REMARK  status: ('A' for Active; 'I' for Inactive)
REMARK    1  A    between atoms: C_3  and  N_4 
REMARK       I    between atoms: N_4  and  C_5 
REMARK       I    between atoms: C_5  and  N_6 
REMARK    2  A    between atoms: N_6  and  C_7 
REMARK    3  A    between atoms: C_7  and  C_8 
REMARK    4  A    between atoms: C_11  and  N_12 
REMARK       I    between atoms: N_12  and  C_13 
REMARK    5  A    between atoms: C_13  and  C_14 
ROOT
HETATM    1  C   UNL     1      40.587 -13.058  -0.277  1.00  0.00    -0.040 A 
HETATM    2  C   UNL     1      40.671 -11.875   0.466  1.00  0.00     0.011 A 
HETATM    3  C   UNL     1      40.876 -10.643  -0.168  1.00  0.00     0.030 A 
HETATM    4  C   UNL     1      40.998 -10.570  -1.555  1.00  0.00     0.035 A 
HETATM    5  C   UNL     1      40.892 -11.751  -2.301  1.00  0.00     0.030 A 
HETATM    6  C   UNL     1      40.684 -12.983  -1.671  1.00  0.00     0.011 A 
ENDROOT
BRANCH   1   7
HETATM    7  C   UNL     1      40.366 -14.377   0.411  1.00  0.00     0.162 C 
BRANCH   7   8
HETATM    8  N   UNL     1      41.623 -14.989   0.777  1.00  0.00    -0.339 N 
HETATM    9  C   UNL     1      41.642 -15.909   1.804  1.00  0.00     0.321 C 
HETATM   10  N   UNL     1      42.930 -16.333   2.045  1.00  0.00    -0.307 N 
HETATM   11  O   UNL     1      40.626 -16.295   2.364  1.00  0.00    -0.247 OA
HETATM   12  H   UNL     1      43.486 -16.352   1.200  1.00  0.00     0.170 HD
HETATM   13  H   UNL     1      42.443 -14.406   0.705  1.00  0.00     0.164 HD
BRANCH  10  14
HETATM   14  C   UNL     1      43.341 -17.210   3.078  1.00  0.00     0.059 A 
HETATM   15  C   UNL     1      43.488 -16.877   4.433  1.00  0.00    -0.032 A 
HETATM   16  C   UNL     1      43.299 -15.501   5.003  1.00  0.00     0.050 C 
HETATM   17  C   UNL     1      43.867 -17.893   5.329  1.00  0.00     0.028 A 
HETATM   18  C   UNL     1      44.145 -19.164   4.848  1.00  0.00     0.117 A 
HETATM   19  N   UNL     1      44.081 -19.495   3.547  1.00  0.00    -0.271 NA
HETATM   20  C   UNL     1      43.683 -18.515   2.702  1.00  0.00     0.146 A 
ENDBRANCH  10  14
ENDBRANCH   7   8
ENDBRANCH   1   7
BRANCH   4  21
HETATM   21  N   UNL     1      41.219  -9.372  -2.271  1.00  0.00    -0.323 N 
HETATM   22  C   UNL     1      42.253  -8.469  -2.096  1.00  0.00     0.257 C 
HETATM   23  O   UNL     1      43.187  -8.578  -1.310  1.00  0.00    -0.267 OA
HETATM   24  H   UNL     1      40.574  -9.204  -3.030  1.00  0.00     0.169 HD
BRANCH  22  25
HETATM   25  C   UNL     1      42.223  -7.269  -2.974  1.00  0.00     0.049 A 
HETATM   26  C   UNL     1      41.615  -6.113  -2.496  1.00  0.00     0.133 A 
HETATM   27  N   UNL     1      41.522  -4.956  -3.200  1.00  0.00    -0.272 NA
HETATM   28  C   UNL     1      42.044  -4.957  -4.444  1.00  0.00     0.116 A 
HETATM   29  C   UNL     1      42.656  -6.060  -5.017  1.00  0.00     0.020 A 
HETATM   30  C   UNL     1      42.742  -7.238  -4.273  1.00  0.00     0.020 A 
ENDBRANCH  22  25
ENDBRANCH   4  21
TORSDOF 5
ENDMDL
MODEL 10
REMARK VINA RESULT:      -7.2      4.923     12.899
REMARK  5 active torsions:
REMARK  status: ('A' for Active; 'I' for Inactive)
REMARK    1  A    between atoms: C_3  and  N_4 
REMARK       I    between atoms: N_4  and  C_5 
REMARK       I    between atoms: C_5  and  N_6 
REMARK    2  A    between atoms: N_6  and  C_7 
REMARK    3  A    between atoms: C_7  and  C_8 
REMARK    4  A    between atoms: C_11  and  N_12 
REMARK       I    between atoms: N_12  and  C_13 
REMARK    5  A    between atoms: C_13  and  C_14 
ROOT
HETATM    1  C   UNL     1      41.948  -7.403  12.516  1.00  0.00    -0.040 A 
HETATM    2  C   UNL     1      40.675  -6.937  12.865  1.00  0.00     0.011 A 
HETATM    3  C   UNL     1      40.220  -7.015  14.186  1.00  0.00     0.030 A 
HETATM    4  C   UNL     1      41.028  -7.558  15.185  1.00  0.00     0.035 A 
HETATM    5  C   UNL     1      42.311  -8.006  14.841  1.00  0.00     0.030 A 
HETATM    6  C   UNL     1      42.769  -7.926  13.522  1.00  0.00     0.011 A 
ENDROOT
BRANCH   1   7
HETATM    7  C   UNL     1      42.430  -7.315  11.094  1.00  0.00     0.162 C 
BRANCH   7   8
HETATM    8  N   UNL     1      42.465  -8.621  10.476  1.00  0.00    -0.339 N 
HETATM    9  C   UNL     1      43.091  -8.763   9.255  1.00  0.00     0.321 C 
HETATM   10  N   UNL     1      42.970 -10.058   8.802  1.00  0.00    -0.307 N 
HETATM   11  O   UNL     1      43.694  -7.849   8.712  1.00  0.00    -0.247 OA
HETATM   12  H   UNL     1      42.957 -10.725   9.561  1.00  0.00     0.170 HD
HETATM   13  H   UNL     1      41.654  -9.205  10.615  1.00  0.00     0.164 HD
BRANCH  10  14
HETATM   14  C   UNL     1      43.415 -10.549   7.551  1.00  0.00     0.059 A 
HETATM   15  C   UNL     1      44.737 -10.881   7.217  1.00  0.00    -0.032 A 
HETATM   16  C   UNL     1      45.921 -10.701   8.123  1.00  0.00     0.050 C 
HETATM   17  C   UNL     1      44.988 -11.398   5.933  1.00  0.00     0.028 A 
HETATM   18  C   UNL     1      43.950 -11.502   5.020  1.00  0.00     0.117 A 
HETATM   19  N   UNL     1      42.687 -11.127   5.287  1.00  0.00    -0.271 NA
HETATM   20  C   UNL     1      42.455 -10.662   6.537  1.00  0.00     0.146 A 
ENDBRANCH  10  14
ENDBRANCH   7   8
ENDBRANCH   1   7
BRANCH   4  21
HETATM   21  N   UNL     1      40.642  -7.686  16.538  1.00  0.00    -0.323 N 
HETATM   22  C   UNL     1      40.941  -6.826  17.581  1.00  0.00     0.257 C 
HETATM   23  O   UNL     1      41.563  -5.773  17.497  1.00  0.00    -0.267 OA
HETATM   24  H   UNL     1      40.031  -8.466  16.736  1.00  0.00     0.169 HD
BRANCH  22  25
HETATM   25  C   UNL     1      40.428  -7.224  18.918  1.00  0.00     0.049 A 
HETATM   26  C   UNL     1      39.577  -8.321  19.002  1.00  0.00     0.133 A 
HETATM   27  N   UNL     1      39.042  -8.781  20.162  1.00  0.00    -0.272 NA
HETATM   28  C   UNL     1      39.356  -8.107  21.287  1.00  0.00     0.116 A 
HETATM   29  C   UNL     1      40.181  -6.994  21.308  1.00  0.00     0.020 A 
HETATM   30  C   UNL     1      40.721  -6.541  20.103  1.00  0.00     0.020 A 
ENDBRANCH  22  25
ENDBRANCH   4  21
TORSDOF 5
ENDMDL
