MODEL 1
REMARK VINA RESULT:      -8.2      0.000      0.000
REMARK  3 active torsions:
REMARK  status: ('A' for Active; 'I' for Inactive)
REMARK    1  A    between atoms: C_6  and  N_7 
REMARK       I    between atoms: N_7  and  C_8 
REMARK    2  A    between atoms: C_8  and  C_9 
REMARK    3  A    between atoms: C_9  and  C_10 
ROOT
HETATM    1  C   UNL     1      40.103 -14.760   1.876  1.00  0.00     0.286 C 
HETATM    2  N   UNL     1      41.003 -14.686   0.648  1.00  0.00    -0.056 N 
HETATM    3  H   UNL     1      41.820 -14.109   0.944  1.00  0.00     0.278 HD
HETATM    4  H   UNL     1      41.385 -15.608   0.409  1.00  0.00     0.278 HD
HETATM    5  C   UNL     1      40.385 -14.022  -0.552  1.00  0.00     0.209 C 
HETATM    6  C   UNL     1      39.818 -12.638  -0.147  1.00  0.00     0.115 C 
HETATM    7  N   UNL     1      39.007 -12.683   1.068  1.00  0.00    -0.353 N 
HETATM    8  C   UNL     1      39.347 -13.447   2.160  1.00  0.00     0.249 C 
HETATM    9  O   UNL     1      38.955 -13.130   3.277  1.00  0.00    -0.271 OA
HETATM   10  C   UNL     1      39.345 -14.951  -1.182  1.00  0.00     0.035 C 
HETATM   11  C   UNL     1      38.629 -14.266  -2.343  1.00  0.00     0.002 C 
HETATM   12  C   UNL     1      37.998 -12.949  -1.904  1.00  0.00     0.002 C 
HETATM   13  C   UNL     1      39.036 -12.002  -1.302  1.00  0.00     0.027 C 
HETATM   14  H   UNL     1      38.532 -11.824   1.344  1.00  0.00     0.163 HD
ENDROOT
BRANCH   1  15
HETATM   15  C   UNL     1      40.868 -15.250   3.116  1.00  0.00     0.146 C 
BRANCH  15  16
HETATM   16  C   UNL     1      42.279 -14.729   3.148  1.00  0.00     0.224 C 
HETATM   17  N   UNL     1      43.358 -15.532   3.329  1.00  0.00    -0.327 N 
HETATM   18  H   UNL     1      44.220 -14.992   3.314  1.00  0.00     0.169 HD
HETATM   19  O   UNL     1      42.469 -13.526   2.917  1.00  0.00    -0.273 OA
BRANCH  17  20
HETATM   20  C   UNL     1      43.543 -16.918   3.522  1.00  0.00     0.036 A 
HETATM   21  C   UNL     1      43.462 -17.903   2.539  1.00  0.00     0.053 A 
HETATM   22  C   UNL     1      43.659 -19.251   2.869  1.00  0.00     0.036 A 
HETATM   23  C   UNL     1      43.951 -19.635   4.173  1.00  0.00     0.024 A 
HETATM   24 CL   UNL     1      43.539 -20.446   1.635  1.00  0.00    -0.084 Cl
HETATM   25  C   UNL     1      44.047 -18.662   5.160  1.00  0.00     0.004 A 
HETATM   26  C   UNL     1      43.842 -17.318   4.835  1.00  0.00     0.029 A 
ENDBRANCH  17  20
ENDBRANCH  15  16
ENDBRANCH   1  15
TORSDOF 3
ENDMDL
MODEL 2
REMARK VINA RESULT:      -8.1      1.757      2.298
REMARK  3 active torsions:
REMARK  status: ('A' for Active; 'I' for Inactive)
REMARK    1  A    between atoms: C_6  and  N_7 
REMARK       I    between atoms: N_7  and  C_8 
REMARK    2  A    between atoms: C_8  and  C_9 
REMARK    3  A    between atoms: C_9  and  C_10 
ROOT
HETATM    1  C   UNL     1      41.014 -15.440   3.961  1.00  0.00     0.286 C 
HETATM    2  N   UNL     1      41.994 -15.474   2.794  1.00  0.00    -0.056 N 
HETATM    3  H   UNL     1      42.890 -15.105   3.180  1.00  0.00     0.278 HD
HETATM    4  H   UNL     1      42.192 -16.437   2.501  1.00  0.00     0.278 HD
HETATM    5  C   UNL     1      41.613 -14.612   1.621  1.00  0.00     0.209 C 
HETATM    6  C   UNL     1      41.317 -13.171   2.107  1.00  0.00     0.115 C 
HETATM    7  N   UNL     1      40.432 -13.127   3.269  1.00  0.00    -0.353 N 
HETATM    8  C   UNL     1      40.528 -14.019   4.311  1.00  0.00     0.249 C 
HETATM    9  O   UNL     1      40.134 -13.705   5.428  1.00  0.00    -0.271 OA
HETATM   10  C   UNL     1      40.449 -15.254   0.862  1.00  0.00     0.035 C 
HETATM   11  C   UNL     1      39.974 -14.354  -0.275  1.00  0.00     0.002 C 
HETATM   12  C   UNL     1      39.600 -12.966   0.235  1.00  0.00     0.002 C 
HETATM   13  C   UNL     1      40.767 -12.305   0.969  1.00  0.00     0.027 C 
HETATM   14  H   UNL     1      40.127 -12.208   3.589  1.00  0.00     0.163 HD
ENDROOT
BRANCH   1  15
HETATM   15  C   UNL     1      41.572 -16.166   5.197  1.00  0.00     0.146 C 
BRANCH  15  16
HETATM   16  C   UNL     1      43.051 -15.943   5.359  1.00  0.00     0.224 C 
HETATM   17  N   UNL     1      43.975 -16.903   5.103  1.00  0.00    -0.327 N 
HETATM   18  H   UNL     1      44.917 -16.555   5.267  1.00  0.00     0.169 HD
HETATM   19  O   UNL     1      43.446 -14.807   5.661  1.00  0.00    -0.273 OA
BRANCH  17  20
HETATM   20  C   UNL     1      43.917 -18.244   4.663  1.00  0.00     0.036 A 
HETATM   21  C   UNL     1      43.834 -18.672   3.340  1.00  0.00     0.053 A 
HETATM   22  C   UNL     1      43.774 -20.040   3.040  1.00  0.00     0.036 A 
HETATM   23  C   UNL     1      43.810 -20.997   4.048  1.00  0.00     0.024 A 
HETATM   24 CL   UNL     1      43.656 -20.538   1.396  1.00  0.00    -0.084 Cl
HETATM   25  C   UNL     1      43.906 -20.584   5.371  1.00  0.00     0.004 A 
HETATM   26  C   UNL     1      43.957 -19.220   5.673  1.00  0.00     0.029 A 
ENDBRANCH  17  20
ENDBRANCH  15  16
ENDBRANCH   1  15
TORSDOF 3
ENDMDL
MODEL 3
REMARK VINA RESULT:      -7.9      3.304      5.536
REMARK  3 active torsions:
REMARK  status: ('A' for Active; 'I' for Inactive)
REMARK    1  A    between atoms: C_6  and  N_7 
REMARK       I    between atoms: N_7  and  C_8 
REMARK    2  A    between atoms: C_8  and  C_9 
REMARK    3  A    between atoms: C_9  and  C_10 
ROOT
HETATM    1  C   UNL     1      43.185 -12.957   3.751  1.00  0.00     0.286 C 
HETATM    2  N   UNL     1      42.627 -13.473   5.072  1.00  0.00    -0.056 N 
HETATM    3  H   UNL     1      41.607 -13.611   4.902  1.00  0.00     0.278 HD
HETATM    4  H   UNL     1      43.001 -14.402   5.298  1.00  0.00     0.278 HD
HETATM    5  C   UNL     1      42.773 -12.528   6.234  1.00  0.00     0.209 C 
HETATM    6  C   UNL     1      42.204 -11.139   5.850  1.00  0.00     0.115 C 
HETATM    7  N   UNL     1      42.679 -10.662   4.553  1.00  0.00    -0.353 N 
HETATM    8  C   UNL     1      42.815 -11.489   3.462  1.00  0.00     0.249 C 
HETATM    9  O   UNL     1      42.752 -11.027   2.329  1.00  0.00    -0.271 OA
HETATM   10  C   UNL     1      44.233 -12.488   6.690  1.00  0.00     0.035 C 
HETATM   11  C   UNL     1      44.432 -11.463   7.803  1.00  0.00     0.002 C 
HETATM   12  C   UNL     1      43.950 -10.080   7.375  1.00  0.00     0.002 C 
HETATM   13  C   UNL     1      42.483 -10.105   6.947  1.00  0.00     0.027 C 
HETATM   14  H   UNL     1      42.412  -9.718   4.276  1.00  0.00     0.163 HD
ENDROOT
BRANCH   1  15
HETATM   15  C   UNL     1      42.810 -13.875   2.576  1.00  0.00     0.146 C 
BRANCH  15  16
HETATM   16  C   UNL     1      41.509 -14.592   2.816  1.00  0.00     0.224 C 
HETATM   17  N   UNL     1      41.438 -15.915   3.109  1.00  0.00    -0.327 N 
HETATM   18  H   UNL     1      40.473 -16.208   3.240  1.00  0.00     0.169 HD
HETATM   19  O   UNL     1      40.463 -13.926   2.827  1.00  0.00    -0.273 OA
BRANCH  17  20
HETATM   20  C   UNL     1      42.387 -16.948   3.272  1.00  0.00     0.036 A 
HETATM   21  C   UNL     1      42.581 -18.029   2.415  1.00  0.00     0.053 A 
HETATM   22  C   UNL     1      43.558 -18.993   2.701  1.00  0.00     0.036 A 
HETATM   23  C   UNL     1      44.361 -18.888   3.831  1.00  0.00     0.024 A 
HETATM   24 CL   UNL     1      43.764 -20.326   1.630  1.00  0.00    -0.084 Cl
HETATM   25  C   UNL     1      44.187 -17.808   4.687  1.00  0.00     0.004 A 
HETATM   26  C   UNL     1      43.207 -16.849   4.408  1.00  0.00     0.029 A 
ENDBRANCH  17  20
ENDBRANCH  15  16
ENDBRANCH   1  15
TORSDOF 3
ENDMDL
MODEL 4
REMARK VINA RESULT:      -7.9      1.838      2.605
REMARK  3 active torsions:
REMARK  status: ('A' for Active; 'I' for Inactive)
REMARK    1  A    between atoms: C_6  and  N_7 
REMARK       I    between atoms: N_7  and  C_8 
REMARK    2  A    between atoms: C_8  and  C_9 
REMARK    3  A    between atoms: C_9  and  C_10 
ROOT
HETATM    1  C   UNL     1      41.371 -14.914   3.056  1.00  0.00     0.286 C 
HETATM    2  N   UNL     1      39.888 -14.652   2.817  1.00  0.00    -0.056 N 
HETATM    3  H   UNL     1      39.472 -15.591   2.633  1.00  0.00     0.278 HD
HETATM    4  H   UNL     1      39.429 -14.305   3.667  1.00  0.00     0.278 HD
HETATM    5  C   UNL     1      39.582 -13.776   1.633  1.00  0.00     0.209 C 
HETATM    6  C   UNL     1      40.298 -14.331   0.375  1.00  0.00     0.115 C 
HETATM    7  N   UNL     1      41.705 -14.650   0.609  1.00  0.00    -0.353 N 
HETATM    8  C   UNL     1      42.149 -15.245   1.767  1.00  0.00     0.249 C 
HETATM    9  O   UNL     1      43.180 -15.907   1.761  1.00  0.00    -0.271 OA
HETATM   10  C   UNL     1      39.943 -12.324   1.954  1.00  0.00     0.035 C 
HETATM   11  C   UNL     1      39.738 -11.426   0.737  1.00  0.00     0.002 C 
HETATM   12  C   UNL     1      40.523 -11.936  -0.467  1.00  0.00     0.002 C 
HETATM   13  C   UNL     1      40.145 -13.377  -0.814  1.00  0.00     0.027 C 
HETATM   14  H   UNL     1      42.258 -14.939  -0.197  1.00  0.00     0.163 HD
ENDROOT
BRANCH   1  15
HETATM   15  C   UNL     1      41.595 -15.981   4.140  1.00  0.00     0.146 C 
BRANCH  15  16
HETATM   16  C   UNL     1      42.928 -15.820   4.819  1.00  0.00     0.224 C 
HETATM   17  N   UNL     1      43.817 -16.837   4.952  1.00  0.00    -0.327 N 
HETATM   18  H   UNL     1      44.657 -16.526   5.433  1.00  0.00     0.169 HD
HETATM   19  O   UNL     1      43.262 -14.689   5.201  1.00  0.00    -0.273 OA
BRANCH  17  20
HETATM   20  C   UNL     1      43.833 -18.197   4.572  1.00  0.00     0.036 A 
HETATM   21  C   UNL     1      43.796 -18.686   3.268  1.00  0.00     0.053 A 
HETATM   22  C   UNL     1      43.808 -20.067   3.029  1.00  0.00     0.036 A 
HETATM   23  C   UNL     1      43.873 -20.977   4.078  1.00  0.00     0.024 A 
HETATM   24 CL   UNL     1      43.746 -20.642   1.406  1.00  0.00    -0.084 Cl
HETATM   25  C   UNL     1      43.924 -20.502   5.383  1.00  0.00     0.004 A 
HETATM   26  C   UNL     1      43.903 -19.124   5.624  1.00  0.00     0.029 A 
ENDBRANCH  17  20
ENDBRANCH  15  16
ENDBRANCH   1  15
TORSDOF 3
ENDMDL
MODEL 5
REMARK VINA RESULT:      -7.7      2.028      2.596
REMARK  3 active torsions:
REMARK  status: ('A' for Active; 'I' for Inactive)
REMARK    1  A    between atoms: C_6  and  N_7 
REMARK       I    between atoms: N_7  and  C_8 
REMARK    2  A    between atoms: C_8  and  C_9 
REMARK    3  A    between atoms: C_9  and  C_10 
ROOT
HETATM    1  C   UNL     1      39.998 -12.784   1.460  1.00  0.00     0.286 C 
HETATM    2  N   UNL     1      40.921 -12.725   0.248  1.00  0.00    -0.056 N 
HETATM    3  H   UNL     1      41.322 -11.762   0.258  1.00  0.00     0.278 HD
HETATM    4  H   UNL     1      41.720 -13.360   0.356  1.00  0.00     0.278 HD
HETATM    5  C   UNL     1      40.240 -12.923  -1.078  1.00  0.00     0.209 C 
HETATM    6  C   UNL     1      39.039 -11.951  -1.198  1.00  0.00     0.115 C 
HETATM    7  N   UNL     1      38.182 -11.948  -0.013  1.00  0.00    -0.353 N 
HETATM    8  C   UNL     1      38.683 -12.003   1.266  1.00  0.00     0.249 C 
HETATM    9  O   UNL     1      38.036 -11.543   2.199  1.00  0.00    -0.271 OA
HETATM   10  C   UNL     1      39.857 -14.395  -1.250  1.00  0.00     0.035 C 
HETATM   11  C   UNL     1      39.074 -14.610  -2.543  1.00  0.00     0.002 C 
HETATM   12  C   UNL     1      37.844 -13.710  -2.603  1.00  0.00     0.002 C 
HETATM   13  C   UNL     1      38.221 -12.235  -2.462  1.00  0.00     0.027 C 
HETATM   14  H   UNL     1      37.326 -11.395  -0.058  1.00  0.00     0.163 HD
ENDROOT
BRANCH   1  15
HETATM   15  C   UNL     1      40.720 -12.361   2.750  1.00  0.00     0.146 C 
BRANCH  15  16
HETATM   16  C   UNL     1      42.187 -12.116   2.517  1.00  0.00     0.224 C 
HETATM   17  N   UNL     1      43.120 -13.100   2.586  1.00  0.00    -0.327 N 
HETATM   18  H   UNL     1      44.049 -12.734   2.394  1.00  0.00     0.169 HD
HETATM   19  O   UNL     1      42.547 -10.982   2.166  1.00  0.00    -0.273 OA
BRANCH  17  20
HETATM   20  C   UNL     1      43.083 -14.485   2.855  1.00  0.00     0.036 A 
HETATM   21  C   UNL     1      42.913 -15.075   4.106  1.00  0.00     0.053 A 
HETATM   22  C   UNL     1      42.904 -16.471   4.235  1.00  0.00     0.036 A 
HETATM   23  C   UNL     1      43.050 -17.295   3.125  1.00  0.00     0.024 A 
HETATM   24 CL   UNL     1      42.706 -17.171   5.796  1.00  0.00    -0.084 Cl
HETATM   25  C   UNL     1      43.208 -16.720   1.870  1.00  0.00     0.004 A 
HETATM   26  C   UNL     1      43.225 -15.327   1.740  1.00  0.00     0.029 A 
ENDBRANCH  17  20
ENDBRANCH  15  16
ENDBRANCH   1  15
TORSDOF 3
ENDMDL
MODEL 6
REMARK VINA RESULT:      -7.6      2.768      7.080
REMARK  3 active torsions:
REMARK  status: ('A' for Active; 'I' for Inactive)
REMARK    1  A    between atoms: C_6  and  N_7 
REMARK       I    between atoms: N_7  and  C_8 
REMARK    2  A    between atoms: C_8  and  C_9 
REMARK    3  A    between atoms: C_9  and  C_10 
ROOT
HETATM    1  C   UNL     1      42.269 -14.250   2.698  1.00  0.00     0.286 C 
HETATM    2  N   UNL     1      41.422 -15.506   2.535  1.00  0.00    -0.056 N 
HETATM    3  H   UNL     1      40.520 -15.291   3.013  1.00  0.00     0.278 HD
HETATM    4  H   UNL     1      41.183 -15.671   1.551  1.00  0.00     0.278 HD
HETATM    5  C   UNL     1      41.993 -16.743   3.174  1.00  0.00     0.209 C 
HETATM    6  C   UNL     1      42.344 -16.450   4.654  1.00  0.00     0.115 C 
HETATM    7  N   UNL     1      43.099 -15.211   4.831  1.00  0.00    -0.353 N 
HETATM    8  C   UNL     1      42.821 -14.064   4.124  1.00  0.00     0.249 C 
HETATM    9  O   UNL     1      43.115 -12.970   4.590  1.00  0.00    -0.271 OA
HETATM   10  C   UNL     1      43.179 -17.251   2.351  1.00  0.00     0.035 C 
HETATM   11  C   UNL     1      43.844 -18.447   3.028  1.00  0.00     0.002 C 
HETATM   12  C   UNL     1      44.265 -18.113   4.455  1.00  0.00     0.002 C 
HETATM   13  C   UNL     1      43.080 -17.633   5.293  1.00  0.00     0.027 C 
HETATM   14  H   UNL     1      43.438 -15.000   5.770  1.00  0.00     0.163 HD
ENDROOT
BRANCH   1  15
HETATM   15  C   UNL     1      41.526 -12.994   2.213  1.00  0.00     0.146 C 
BRANCH  15  16
HETATM   16  C   UNL     1      40.035 -13.196   2.191  1.00  0.00     0.224 C 
HETATM   17  N   UNL     1      39.309 -13.218   1.045  1.00  0.00    -0.327 N 
HETATM   18  H   UNL     1      38.323 -13.371   1.241  1.00  0.00     0.169 HD
HETATM   19  O   UNL     1      39.457 -13.436   3.262  1.00  0.00    -0.273 OA
BRANCH  17  20
HETATM   20  C   UNL     1      39.616 -13.082  -0.326  1.00  0.00     0.036 A 
HETATM   21  C   UNL     1      39.953 -11.899  -0.981  1.00  0.00     0.053 A 
HETATM   22  C   UNL     1      40.227 -11.903  -2.355  1.00  0.00     0.036 A 
HETATM   23  C   UNL     1      40.185 -13.081  -3.092  1.00  0.00     0.024 A 
HETATM   24 CL   UNL     1      40.625 -10.422  -3.138  1.00  0.00    -0.084 Cl
HETATM   25  C   UNL     1      39.863 -14.270  -2.450  1.00  0.00     0.004 A 
HETATM   26  C   UNL     1      39.580 -14.268  -1.080  1.00  0.00     0.029 A 
ENDBRANCH  17  20
ENDBRANCH  15  16
ENDBRANCH   1  15
TORSDOF 3
ENDMDL
MODEL 7
REMARK VINA RESULT:      -7.4      4.772      7.279
REMARK  3 active torsions:
REMARK  status: ('A' for Active; 'I' for Inactive)
REMARK    1  A    between atoms: C_6  and  N_7 
REMARK       I    between atoms: N_7  and  C_8 
REMARK    2  A    between atoms: C_8  and  C_9 
REMARK    3  A    between atoms: C_9  and  C_10 
ROOT
HETATM    1  C   UNL     1      42.353 -12.135   6.300  1.00  0.00     0.286 C 
HETATM    2  N   UNL     1      42.518 -10.632   6.111  1.00  0.00    -0.056 N 
HETATM    3  H   UNL     1      42.918 -10.520   5.155  1.00  0.00     0.278 HD
HETATM    4  H   UNL     1      41.609 -10.156   6.091  1.00  0.00     0.278 HD
HETATM    5  C   UNL     1      43.459  -9.971   7.081  1.00  0.00     0.209 C 
HETATM    6  C   UNL     1      44.814 -10.721   7.086  1.00  0.00     0.115 C 
HETATM    7  N   UNL     1      44.668 -12.171   7.199  1.00  0.00    -0.353 N 
HETATM    8  C   UNL     1      43.685 -12.872   6.538  1.00  0.00     0.249 C 
HETATM    9  O   UNL     1      43.852 -14.055   6.267  1.00  0.00    -0.271 OA
HETATM   10  C   UNL     1      42.803  -9.880   8.461  1.00  0.00     0.035 C 
HETATM   11  C   UNL     1      43.771  -9.304   9.491  1.00  0.00     0.002 C 
HETATM   12  C   UNL     1      45.065 -10.111   9.548  1.00  0.00     0.002 C 
HETATM   13  C   UNL     1      45.743 -10.181   8.179  1.00  0.00     0.027 C 
HETATM   14  H   UNL     1      45.521 -12.721   7.294  1.00  0.00     0.163 HD
ENDROOT
BRANCH   1  15
HETATM   15  C   UNL     1      41.554 -12.771   5.150  1.00  0.00     0.146 C 
BRANCH  15  16
HETATM   16  C   UNL     1      40.510 -13.730   5.655  1.00  0.00     0.224 C 
HETATM   17  N   UNL     1      40.473 -15.038   5.295  1.00  0.00    -0.327 N 
HETATM   18  H   UNL     1      39.697 -15.517   5.746  1.00  0.00     0.169 HD
HETATM   19  O   UNL     1      39.698 -13.325   6.501  1.00  0.00    -0.273 OA
BRANCH  17  20
HETATM   20  C   UNL     1      41.258 -15.859   4.458  1.00  0.00     0.036 A 
HETATM   21  C   UNL     1      42.345 -16.635   4.854  1.00  0.00     0.053 A 
HETATM   22  C   UNL     1      43.048 -17.402   3.914  1.00  0.00     0.036 A 
HETATM   23  C   UNL     1      42.672 -17.419   2.576  1.00  0.00     0.024 A 
HETATM   24 CL   UNL     1      44.397 -18.340   4.431  1.00  0.00    -0.084 Cl
HETATM   25  C   UNL     1      41.581 -16.659   2.170  1.00  0.00     0.004 A 
HETATM   26  C   UNL     1      40.884 -15.886   3.104  1.00  0.00     0.029 A 
ENDBRANCH  17  20
ENDBRANCH  15  16
ENDBRANCH   1  15
TORSDOF 3
ENDMDL
MODEL 8
REMARK VINA RESULT:      -7.4      2.942      6.963
REMARK  3 active torsions:
REMARK  status: ('A' for Active; 'I' for Inactive)
REMARK    1  A    between atoms: C_6  and  N_7 
REMARK       I    between atoms: N_7  and  C_8 
REMARK    2  A    between atoms: C_8  and  C_9 
REMARK    3  A    between atoms: C_9  and  C_10 
ROOT
HETATM    1  C   UNL     1      42.290 -14.813   1.773  1.00  0.00     0.286 C 
HETATM    2  N   UNL     1      41.460 -16.077   1.964  1.00  0.00    -0.056 N 
HETATM    3  H   UNL     1      40.542 -15.746   2.333  1.00  0.00     0.278 HD
HETATM    4  H   UNL     1      41.253 -16.528   1.066  1.00  0.00     0.278 HD
HETATM    5  C   UNL     1      42.022 -17.061   2.953  1.00  0.00     0.209 C 
HETATM    6  C   UNL     1      42.325 -16.340   4.291  1.00  0.00     0.115 C 
HETATM    7  N   UNL     1      43.063 -15.091   4.116  1.00  0.00    -0.353 N 
HETATM    8  C   UNL     1      42.797 -14.207   3.096  1.00  0.00     0.249 C 
HETATM    9  O   UNL     1      43.067 -13.019   3.226  1.00  0.00    -0.271 OA
HETATM   10  C   UNL     1      43.238 -17.768   2.348  1.00  0.00     0.035 C 
HETATM   11  C   UNL     1      43.892 -18.700   3.365  1.00  0.00     0.002 C 
HETATM   12  C   UNL     1      44.266 -17.954   4.641  1.00  0.00     0.002 C 
HETATM   13  C   UNL     1      43.052 -17.270   5.269  1.00  0.00     0.027 C 
HETATM   14  H   UNL     1      43.371 -14.608   4.960  1.00  0.00     0.163 HD
ENDROOT
BRANCH   1  15
HETATM   15  C   UNL     1      41.551 -13.768   0.920  1.00  0.00     0.146 C 
BRANCH  15  16
HETATM   16  C   UNL     1      40.096 -14.112   0.747  1.00  0.00     0.224 C 
HETATM   17  N   UNL     1      39.109 -13.532   1.475  1.00  0.00    -0.327 N 
HETATM   18  H   UNL     1      38.197 -13.894   1.206  1.00  0.00     0.169 HD
HETATM   19  O   UNL     1      39.781 -14.900  -0.157  1.00  0.00    -0.273 OA
BRANCH  17  20
HETATM   20  C   UNL     1      39.070 -12.555   2.494  1.00  0.00     0.036 A 
HETATM   21  C   UNL     1      39.476 -12.730   3.815  1.00  0.00     0.053 A 
HETATM   22  C   UNL     1      39.375 -11.675   4.732  1.00  0.00     0.036 A 
HETATM   23  C   UNL     1      38.885 -10.433   4.346  1.00  0.00     0.024 A 
HETATM   24 CL   UNL     1      39.871 -11.926   6.363  1.00  0.00    -0.084 Cl
HETATM   25  C   UNL     1      38.489 -10.241   3.028  1.00  0.00     0.004 A 
HETATM   26  C   UNL     1      38.581 -11.295   2.113  1.00  0.00     0.029 A 
ENDBRANCH  17  20
ENDBRANCH  15  16
ENDBRANCH   1  15
TORSDOF 3
ENDMDL
MODEL 9
REMARK VINA RESULT:      -7.4      2.723      7.045
REMARK  3 active torsions:
REMARK  status: ('A' for Active; 'I' for Inactive)
REMARK    1  A    between atoms: C_6  and  N_7 
REMARK       I    between atoms: N_7  and  C_8 
REMARK    2  A    between atoms: C_8  and  C_9 
REMARK    3  A    between atoms: C_9  and  C_10 
ROOT
HETATM    1  C   UNL     1      42.452 -14.357   4.867  1.00  0.00     0.286 C 
HETATM    2  N   UNL     1      41.499 -15.491   4.506  1.00  0.00    -0.056 N 
HETATM    3  H   UNL     1      40.799 -15.515   5.279  1.00  0.00     0.278 HD
HETATM    4  H   UNL     1      40.967 -15.275   3.655  1.00  0.00     0.278 HD
HETATM    5  C   UNL     1      42.135 -16.852   4.424  1.00  0.00     0.209 C 
HETATM    6  C   UNL     1      42.931 -17.135   5.723  1.00  0.00     0.115 C 
HETATM    7  N   UNL     1      43.799 -16.027   6.117  1.00  0.00    -0.353 N 
HETATM    8  C   UNL     1      43.415 -14.711   6.017  1.00  0.00     0.249 C 
HETATM    9  O   UNL     1      43.919 -13.867   6.750  1.00  0.00    -0.271 OA
HETATM   10  C   UNL     1      42.981 -16.953   3.152  1.00  0.00     0.035 C 
HETATM   11  C   UNL     1      43.720 -18.287   3.090  1.00  0.00     0.002 C 
HETATM   12  C   UNL     1      44.570 -18.508   4.336  1.00  0.00     0.002 C 
HETATM   13  C   UNL     1      43.728 -18.439   5.610  1.00  0.00     0.027 C 
HETATM   14  H   UNL     1      44.416 -16.179   6.915  1.00  0.00     0.163 HD
ENDROOT
BRANCH   1  15
HETATM   15  C   UNL     1      41.700 -13.045   5.144  1.00  0.00     0.146 C 
BRANCH  15  16
HETATM   16  C   UNL     1      40.230 -13.277   5.368  1.00  0.00     0.224 C 
HETATM   17  N   UNL     1      39.304 -13.145   4.384  1.00  0.00    -0.327 N 
HETATM   18  H   UNL     1      38.370 -13.349   4.734  1.00  0.00     0.169 HD
HETATM   19  O   UNL     1      39.860 -13.686   6.478  1.00  0.00    -0.273 OA
BRANCH  17  20
HETATM   20  C   UNL     1      39.351 -12.801   3.016  1.00  0.00     0.036 A 
HETATM   21  C   UNL     1      39.736 -13.639   1.971  1.00  0.00     0.053 A 
HETATM   22  C   UNL     1      39.747 -13.166   0.652  1.00  0.00     0.036 A 
HETATM   23  C   UNL     1      39.363 -11.864   0.352  1.00  0.00     0.024 A 
HETATM   24 CL   UNL     1      40.242 -14.221  -0.617  1.00  0.00    -0.084 Cl
HETATM   25  C   UNL     1      38.965 -11.022   1.383  1.00  0.00     0.004 A 
HETATM   26  C   UNL     1      38.961 -11.489   2.702  1.00  0.00     0.029 A 
ENDBRANCH  17  20
ENDBRANCH  15  16
ENDBRANCH   1  15
TORSDOF 3
ENDMDL
MODEL 10
REMARK VINA RESULT:      -7.4      4.186      5.066
REMARK  3 active torsions:
REMARK  status: ('A' for Active; 'I' for Inactive)
REMARK    1  A    between atoms: C_6  and  N_7 
REMARK       I    between atoms: N_7  and  C_8 
REMARK    2  A    between atoms: C_8  and  C_9 
REMARK    3  A    between atoms: C_9  and  C_10 
ROOT
HETATM    1  C   UNL     1      41.970 -14.759   6.121  1.00  0.00     0.286 C 
HETATM    2  N   UNL     1      43.224 -13.933   6.382  1.00  0.00    -0.056 N 
HETATM    3  H   UNL     1      43.286 -13.854   7.421  1.00  0.00     0.278 HD
HETATM    4  H   UNL     1      44.069 -14.436   6.090  1.00  0.00     0.278 HD
HETATM    5  C   UNL     1      43.194 -12.539   5.818  1.00  0.00     0.209 C 
HETATM    6  C   UNL     1      41.902 -11.818   6.278  1.00  0.00     0.115 C 
HETATM    7  N   UNL     1      40.697 -12.626   6.095  1.00  0.00    -0.353 N 
HETATM    8  C   UNL     1      40.662 -13.976   6.355  1.00  0.00     0.249 C 
HETATM    9  O   UNL     1      39.603 -14.519   6.646  1.00  0.00    -0.271 OA
HETATM   10  C   UNL     1      43.360 -12.591   4.298  1.00  0.00     0.035 C 
HETATM   11  C   UNL     1      43.233 -11.198   3.685  1.00  0.00     0.002 C 
HETATM   12  C   UNL     1      41.914 -10.539   4.074  1.00  0.00     0.002 C 
HETATM   13  C   UNL     1      41.754 -10.456   5.592  1.00  0.00     0.027 C 
HETATM   14  H   UNL     1      39.802 -12.182   6.297  1.00  0.00     0.163 HD
ENDROOT
BRANCH   1  15
HETATM   15  C   UNL     1      41.983 -16.082   6.904  1.00  0.00     0.146 C 
BRANCH  15  16
HETATM   16  C   UNL     1      43.379 -16.614   7.084  1.00  0.00     0.224 C 
HETATM   17  N   UNL     1      44.076 -17.212   6.084  1.00  0.00    -0.327 N 
HETATM   18  H   UNL     1      44.999 -17.496   6.403  1.00  0.00     0.169 HD
HETATM   19  O   UNL     1      43.947 -16.424   8.170  1.00  0.00    -0.273 OA
BRANCH  17  20
HETATM   20  C   UNL     1      43.809 -17.512   4.731  1.00  0.00     0.036 A 
HETATM   21  C   UNL     1      43.833 -18.779   4.150  1.00  0.00     0.053 A 
HETATM   22  C   UNL     1      43.555 -18.937   2.785  1.00  0.00     0.036 A 
HETATM   23  C   UNL     1      43.237 -17.846   1.986  1.00  0.00     0.024 A 
HETATM   24 CL   UNL     1      43.608 -20.514   2.093  1.00  0.00    -0.084 Cl
HETATM   25  C   UNL     1      43.197 -16.579   2.555  1.00  0.00     0.004 A 
HETATM   26  C   UNL     1      43.482 -16.416   3.915  1.00  0.00     0.029 A 
ENDBRANCH  17  20
ENDBRANCH  15  16
ENDBRANCH   1  15
TORSDOF 3
ENDMDL
