MODEL 1
REMARK VINA RESULT:      -8.4      0.000      0.000
REMARK  1 active torsions:
REMARK  status: ('A' for Active; 'I' for Inactive)
REMARK    1  A    between atoms: C_10  and  N_11 
ROOT
HETATM    1  C   UNL     1      38.316 -14.712  -3.475  1.00  0.00     0.015 C 
HETATM    2  C   UNL     1      38.801 -13.746  -2.379  1.00  0.00    -0.036 C 
HETATM    3  C   UNL     1      37.582 -12.940  -1.885  1.00  0.00     0.015 C 
HETATM    4  C   UNL     1      39.866 -12.806  -2.977  1.00  0.00     0.093 C 
HETATM    5  C   UNL     1      40.590 -11.972  -1.940  1.00  0.00     0.163 C 
HETATM    6  O   UNL     1      41.146 -10.917  -2.228  1.00  0.00    -0.292 OA
HETATM    7  C   UNL     1      40.672 -12.493  -0.568  1.00  0.00     0.053 A 
HETATM    8  C   UNL     1      40.121 -13.703  -0.211  1.00  0.00     0.069 A 
HETATM    9  N   UNL     1      40.194 -14.189   1.051  1.00  0.00    -0.066 NA
HETATM   10  C   UNL     1      40.794 -13.428   1.988  1.00  0.00     0.728 A 
HETATM   11  N   UNL     1      41.348 -12.239   1.712  1.00  0.00    -0.074 NA
HETATM   12  C   UNL     1      41.283 -11.792   0.441  1.00  0.00     0.153 A 
HETATM   13  C   UNL     1      39.425 -14.565  -1.230  1.00  0.00     0.070 C 
ENDROOT
BRANCH  10  14
HETATM   14  N   UNL     1      40.814 -13.980   3.260  1.00  0.00    -0.164 N 
HETATM   15  C   UNL     1      41.488 -15.066   3.679  1.00  0.00     0.187 A 
HETATM   16  S   UNL     1      41.375 -15.509   5.347  1.00  0.00    -0.049 SA
HETATM   17  N   UNL     1      42.270 -15.845   2.968  1.00  0.00    -0.223 NA
HETATM   18  C   UNL     1      42.454 -16.820   5.092  1.00  0.00     0.037 A 
HETATM   19  C   UNL     1      42.830 -16.837   3.750  1.00  0.00     0.076 A 
HETATM   20  C   UNL     1      42.940 -17.766   6.011  1.00  0.00     0.021 A 
HETATM   21  C   UNL     1      43.730 -17.829   3.308  1.00  0.00     0.033 A 
HETATM   22  C   UNL     1      44.226 -18.771   4.215  1.00  0.00     0.002 A 
HETATM   23  C   UNL     1      43.832 -18.739   5.550  1.00  0.00     0.002 A 
HETATM   24  H   UNL     1      40.387 -13.358   3.926  1.00  0.00     0.186 HD
ENDBRANCH  10  14
TORSDOF 1
ENDMDL
MODEL 2
REMARK VINA RESULT:      -8.1      1.484      2.452
REMARK  1 active torsions:
REMARK  status: ('A' for Active; 'I' for Inactive)
REMARK    1  A    between atoms: C_10  and  N_11 
ROOT
HETATM    1  C   UNL     1      39.314  -9.148  -2.231  1.00  0.00     0.015 C 
HETATM    2  C   UNL     1      39.727 -10.613  -2.006  1.00  0.00    -0.036 C 
HETATM    3  C   UNL     1      41.252 -10.715  -2.221  1.00  0.00     0.015 C 
HETATM    4  C   UNL     1      38.976 -11.505  -3.014  1.00  0.00     0.093 C 
HETATM    5  C   UNL     1      39.116 -12.988  -2.735  1.00  0.00     0.163 C 
HETATM    6  O   UNL     1      38.956 -13.831  -3.611  1.00  0.00    -0.292 OA
HETATM    7  C   UNL     1      39.388 -13.408  -1.353  1.00  0.00     0.053 A 
HETATM    8  C   UNL     1      39.511 -12.502  -0.324  1.00  0.00     0.069 A 
HETATM    9  N   UNL     1      39.760 -12.884   0.952  1.00  0.00    -0.066 NA
HETATM   10  C   UNL     1      39.934 -14.198   1.197  1.00  0.00     0.728 A 
HETATM   11  N   UNL     1      39.833 -15.134   0.242  1.00  0.00    -0.074 NA
HETATM   12  C   UNL     1      39.559 -14.727  -1.015  1.00  0.00     0.153 A 
HETATM   13  C   UNL     1      39.344 -11.027  -0.569  1.00  0.00     0.070 C 
ENDROOT
BRANCH  10  14
HETATM   14  N   UNL     1      40.205 -14.512   2.520  1.00  0.00    -0.164 N 
HETATM   15  C   UNL     1      41.064 -15.432   2.993  1.00  0.00     0.187 A 
HETATM   16  S   UNL     1      41.245 -15.581   4.707  1.00  0.00    -0.049 SA
HETATM   17  N   UNL     1      41.829 -16.242   2.299  1.00  0.00    -0.223 NA
HETATM   18  C   UNL     1      42.435 -16.801   4.493  1.00  0.00     0.037 A 
HETATM   19  C   UNL     1      42.616 -17.017   3.128  1.00  0.00     0.076 A 
HETATM   20  C   UNL     1      43.163 -17.515   5.461  1.00  0.00     0.021 A 
HETATM   21  C   UNL     1      43.563 -17.976   2.711  1.00  0.00     0.033 A 
HETATM   22  C   UNL     1      44.298 -18.688   3.665  1.00  0.00     0.002 A 
HETATM   23  C   UNL     1      44.097 -18.460   5.023  1.00  0.00     0.002 A 
HETATM   24  H   UNL     1      39.801 -13.827   3.139  1.00  0.00     0.186 HD
ENDBRANCH  10  14
TORSDOF 1
ENDMDL
MODEL 3
REMARK VINA RESULT:      -8.0      1.726      2.266
REMARK  1 active torsions:
REMARK  status: ('A' for Active; 'I' for Inactive)
REMARK    1  A    between atoms: C_10  and  N_11 
ROOT
HETATM    1  C   UNL     1      40.444 -12.187  -2.887  1.00  0.00     0.015 C 
HETATM    2  C   UNL     1      39.808 -12.561  -1.535  1.00  0.00    -0.036 C 
HETATM    3  C   UNL     1      39.151 -13.948  -1.688  1.00  0.00     0.015 C 
HETATM    4  C   UNL     1      38.754 -11.498  -1.167  1.00  0.00     0.093 C 
HETATM    5  C   UNL     1      38.234 -11.626   0.250  1.00  0.00     0.163 C 
HETATM    6  O   UNL     1      37.145 -11.169   0.585  1.00  0.00    -0.292 OA
HETATM    7  C   UNL     1      39.101 -12.263   1.251  1.00  0.00     0.053 A 
HETATM    8  C   UNL     1      40.357 -12.732   0.938  1.00  0.00     0.069 A 
HETATM    9  N   UNL     1      41.162 -13.318   1.856  1.00  0.00    -0.066 NA
HETATM   10  C   UNL     1      40.684 -13.478   3.106  1.00  0.00     0.728 A 
HETATM   11  N   UNL     1      39.469 -13.049   3.479  1.00  0.00    -0.074 NA
HETATM   12  C   UNL     1      38.699 -12.446   2.550  1.00  0.00     0.153 A 
HETATM   13  C   UNL     1      40.910 -12.588  -0.455  1.00  0.00     0.070 C 
ENDROOT
BRANCH  10  14
HETATM   14  N   UNL     1      41.554 -14.103   3.986  1.00  0.00    -0.164 N 
HETATM   15  C   UNL     1      42.102 -15.326   3.879  1.00  0.00     0.187 A 
HETATM   16  S   UNL     1      43.207 -15.841   5.106  1.00  0.00    -0.049 SA
HETATM   17  N   UNL     1      41.921 -16.201   2.917  1.00  0.00    -0.223 NA
HETATM   18  C   UNL     1      43.462 -17.325   4.280  1.00  0.00     0.037 A 
HETATM   19  C   UNL     1      42.687 -17.333   3.122  1.00  0.00     0.076 A 
HETATM   20  C   UNL     1      44.292 -18.406   4.625  1.00  0.00     0.021 A 
HETATM   21  C   UNL     1      42.745 -18.457   2.272  1.00  0.00     0.033 A 
HETATM   22  C   UNL     1      43.573 -19.535   2.601  1.00  0.00     0.002 A 
HETATM   23  C   UNL     1      44.334 -19.509   3.766  1.00  0.00     0.002 A 
HETATM   24  H   UNL     1      41.898 -13.450   4.672  1.00  0.00     0.186 HD
ENDBRANCH  10  14
TORSDOF 1
ENDMDL
MODEL 4
REMARK VINA RESULT:      -7.8      6.147      8.900
REMARK  1 active torsions:
REMARK  status: ('A' for Active; 'I' for Inactive)
REMARK    1  A    between atoms: C_10  and  N_11 
ROOT
HETATM    1  C   UNL     1      43.060  -7.710  10.387  1.00  0.00     0.015 C 
HETATM    2  C   UNL     1      43.888  -8.829   9.727  1.00  0.00    -0.036 C 
HETATM    3  C   UNL     1      44.451  -9.727  10.848  1.00  0.00     0.015 C 
HETATM    4  C   UNL     1      45.033  -8.191   8.916  1.00  0.00     0.093 C 
HETATM    5  C   UNL     1      45.768  -9.174   8.028  1.00  0.00     0.163 C 
HETATM    6  O   UNL     1      46.915  -8.969   7.643  1.00  0.00    -0.292 OA
HETATM    7  C   UNL     1      45.046 -10.371   7.575  1.00  0.00     0.053 A 
HETATM    8  C   UNL     1      43.736 -10.611   7.926  1.00  0.00     0.069 A 
HETATM    9  N   UNL     1      43.064 -11.712   7.511  1.00  0.00    -0.066 NA
HETATM   10  C   UNL     1      43.730 -12.614   6.761  1.00  0.00     0.728 A 
HETATM   11  N   UNL     1      45.006 -12.445   6.385  1.00  0.00    -0.074 NA
HETATM   12  C   UNL     1      45.642 -11.328   6.793  1.00  0.00     0.153 A 
HETATM   13  C   UNL     1      42.974  -9.635   8.780  1.00  0.00     0.070 C 
ENDROOT
BRANCH  10  14
HETATM   14  N   UNL     1      42.985 -13.722   6.389  1.00  0.00    -0.164 N 
HETATM   15  C   UNL     1      42.411 -13.971   5.199  1.00  0.00     0.187 A 
HETATM   16  S   UNL     1      41.575 -15.471   4.988  1.00  0.00    -0.049 SA
HETATM   17  N   UNL     1      42.426 -13.210   4.130  1.00  0.00    -0.223 NA
HETATM   18  C   UNL     1      41.226 -15.069   3.356  1.00  0.00     0.037 A 
HETATM   19  C   UNL     1      41.768 -13.816   3.077  1.00  0.00     0.076 A 
HETATM   20  C   UNL     1      40.527 -15.808   2.386  1.00  0.00     0.021 A 
HETATM   21  C   UNL     1      41.614 -13.281   1.780  1.00  0.00     0.033 A 
HETATM   22  C   UNL     1      40.927 -14.011   0.805  1.00  0.00     0.002 A 
HETATM   23  C   UNL     1      40.389 -15.259   1.107  1.00  0.00     0.002 A 
HETATM   24  H   UNL     1      43.060 -14.452   7.080  1.00  0.00     0.186 HD
ENDBRANCH  10  14
TORSDOF 1
ENDMDL
MODEL 5
REMARK VINA RESULT:      -7.7      5.811      8.292
REMARK  1 active torsions:
REMARK  status: ('A' for Active; 'I' for Inactive)
REMARK    1  A    between atoms: C_10  and  N_11 
ROOT
HETATM    1  C   UNL     1      45.455 -10.010  10.430  1.00  0.00     0.015 C 
HETATM    2  C   UNL     1      44.468  -9.626   9.312  1.00  0.00    -0.036 C 
HETATM    3  C   UNL     1      45.014  -8.366   8.609  1.00  0.00     0.015 C 
HETATM    4  C   UNL     1      43.088  -9.343   9.939  1.00  0.00     0.093 C 
HETATM    5  C   UNL     1      41.979  -9.191   8.918  1.00  0.00     0.163 C 
HETATM    6  O   UNL     1      40.946  -8.579   9.169  1.00  0.00    -0.292 OA
HETATM    7  C   UNL     1      42.138  -9.858   7.619  1.00  0.00     0.053 A 
HETATM    8  C   UNL     1      43.250 -10.611   7.315  1.00  0.00     0.069 A 
HETATM    9  N   UNL     1      43.402 -11.230   6.119  1.00  0.00    -0.066 NA
HETATM   10  C   UNL     1      42.440 -11.057   5.190  1.00  0.00     0.728 A 
HETATM   11  N   UNL     1      41.333 -10.334   5.417  1.00  0.00    -0.074 NA
HETATM   12  C   UNL     1      41.197  -9.750   6.626  1.00  0.00     0.153 A 
HETATM   13  C   UNL     1      44.351 -10.804   8.322  1.00  0.00     0.070 C 
ENDROOT
BRANCH  10  14
HETATM   14  N   UNL     1      42.672 -11.703   3.986  1.00  0.00    -0.164 N 
HETATM   15  C   UNL     1      42.843 -13.020   3.774  1.00  0.00     0.187 A 
HETATM   16  S   UNL     1      43.066 -13.567   2.148  1.00  0.00    -0.049 SA
HETATM   17  N   UNL     1      42.834 -13.981   4.668  1.00  0.00    -0.223 NA
HETATM   18  C   UNL     1      43.144 -15.196   2.687  1.00  0.00     0.037 A 
HETATM   19  C   UNL     1      42.996 -15.218   4.073  1.00  0.00     0.076 A 
HETATM   20  C   UNL     1      43.318 -16.374   1.941  1.00  0.00     0.021 A 
HETATM   21  C   UNL     1      43.015 -16.461   4.740  1.00  0.00     0.033 A 
HETATM   22  C   UNL     1      43.180 -17.640   4.007  1.00  0.00     0.002 A 
HETATM   23  C   UNL     1      43.332 -17.595   2.624  1.00  0.00     0.002 A 
HETATM   24  H   UNL     1      42.521 -11.078   3.210  1.00  0.00     0.186 HD
ENDBRANCH  10  14
TORSDOF 1
ENDMDL
MODEL 6
REMARK VINA RESULT:      -7.7      3.331      7.691
REMARK  1 active torsions:
REMARK  status: ('A' for Active; 'I' for Inactive)
REMARK    1  A    between atoms: C_10  and  N_11 
ROOT
HETATM    1  C   UNL     1      42.776 -18.343   2.243  1.00  0.00     0.015 C 
HETATM    2  C   UNL     1      42.590 -16.858   2.608  1.00  0.00    -0.036 C 
HETATM    3  C   UNL     1      43.616 -16.039   1.798  1.00  0.00     0.015 C 
HETATM    4  C   UNL     1      42.828 -16.683   4.121  1.00  0.00     0.093 C 
HETATM    5  C   UNL     1      42.439 -15.314   4.641  1.00  0.00     0.163 C 
HETATM    6  O   UNL     1      42.915 -14.852   5.673  1.00  0.00    -0.292 OA
HETATM    7  C   UNL     1      41.413 -14.560   3.906  1.00  0.00     0.053 A 
HETATM    8  C   UNL     1      40.803 -15.064   2.780  1.00  0.00     0.069 A 
HETATM    9  N   UNL     1      39.855 -14.375   2.099  1.00  0.00    -0.066 NA
HETATM   10  C   UNL     1      39.542 -13.136   2.529  1.00  0.00     0.728 A 
HETATM   11  N   UNL     1      40.099 -12.583   3.616  1.00  0.00    -0.074 NA
HETATM   12  C   UNL     1      41.022 -13.302   4.288  1.00  0.00     0.153 A 
HETATM   13  C   UNL     1      41.147 -16.434   2.262  1.00  0.00     0.070 C 
ENDROOT
BRANCH  10  14
HETATM   14  N   UNL     1      38.580 -12.485   1.773  1.00  0.00    -0.164 N 
HETATM   15  C   UNL     1      38.735 -11.874   0.585  1.00  0.00     0.187 A 
HETATM   16  S   UNL     1      37.342 -11.180  -0.169  1.00  0.00    -0.049 SA
HETATM   17  N   UNL     1      39.839 -11.756  -0.114  1.00  0.00    -0.223 NA
HETATM   18  C   UNL     1      38.288 -10.704  -1.521  1.00  0.00     0.037 A 
HETATM   19  C   UNL     1      39.605 -11.105  -1.310  1.00  0.00     0.076 A 
HETATM   20  C   UNL     1      37.894 -10.030  -2.690  1.00  0.00     0.021 A 
HETATM   21  C   UNL     1      40.568 -10.829  -2.304  1.00  0.00     0.033 A 
HETATM   22  C   UNL     1      40.187 -10.165  -3.474  1.00  0.00     0.002 A 
HETATM   23  C   UNL     1      38.866  -9.769  -3.662  1.00  0.00     0.002 A 
HETATM   24  H   UNL     1      37.657 -12.669   2.134  1.00  0.00     0.186 HD
ENDBRANCH  10  14
TORSDOF 1
ENDMDL
MODEL 7
REMARK VINA RESULT:      -7.5      3.239      7.489
REMARK  1 active torsions:
REMARK  status: ('A' for Active; 'I' for Inactive)
REMARK    1  A    between atoms: C_10  and  N_11 
ROOT
HETATM    1  C   UNL     1      40.268 -15.831   6.686  1.00  0.00     0.015 C 
HETATM    2  C   UNL     1      41.332 -15.087   5.857  1.00  0.00    -0.036 C 
HETATM    3  C   UNL     1      42.066 -16.127   4.985  1.00  0.00     0.015 C 
HETATM    4  C   UNL     1      42.317 -14.391   6.816  1.00  0.00     0.093 C 
HETATM    5  C   UNL     1      43.264 -13.433   6.123  1.00  0.00     0.163 C 
HETATM    6  O   UNL     1      44.341 -13.114   6.615  1.00  0.00    -0.292 OA
HETATM    7  C   UNL     1      42.831 -12.829   4.854  1.00  0.00     0.053 A 
HETATM    8  C   UNL     1      41.603 -13.104   4.295  1.00  0.00     0.069 A 
HETATM    9  N   UNL     1      41.198 -12.551   3.127  1.00  0.00    -0.066 NA
HETATM   10  C   UNL     1      42.056 -11.736   2.482  1.00  0.00     0.728 A 
HETATM   11  N   UNL     1      43.268 -11.427   2.966  1.00  0.00    -0.074 NA
HETATM   12  C   UNL     1      43.635 -11.974   4.144  1.00  0.00     0.153 A 
HETATM   13  C   UNL     1      40.632 -14.027   4.980  1.00  0.00     0.070 C 
ENDROOT
BRANCH  10  14
HETATM   14  N   UNL     1      41.581 -11.221   1.285  1.00  0.00    -0.164 N 
HETATM   15  C   UNL     1      40.953 -11.878   0.294  1.00  0.00     0.187 A 
HETATM   16  S   UNL     1      40.415 -10.973  -1.078  1.00  0.00    -0.049 SA
HETATM   17  N   UNL     1      40.661 -13.157   0.242  1.00  0.00    -0.223 NA
HETATM   18  C   UNL     1      39.740 -12.392  -1.773  1.00  0.00     0.037 A 
HETATM   19  C   UNL     1      39.969 -13.465  -0.913  1.00  0.00     0.076 A 
HETATM   20  C   UNL     1      39.050 -12.547  -2.987  1.00  0.00     0.021 A 
HETATM   21  C   UNL     1      39.488 -14.740  -1.274  1.00  0.00     0.033 A 
HETATM   22  C   UNL     1      38.794 -14.907  -2.478  1.00  0.00     0.002 A 
HETATM   23  C   UNL     1      38.581 -13.822  -3.324  1.00  0.00     0.002 A 
HETATM   24  H   UNL     1      41.596 -10.214   1.298  1.00  0.00     0.186 HD
ENDBRANCH  10  14
TORSDOF 1
ENDMDL
MODEL 8
REMARK VINA RESULT:      -7.3      4.917      6.251
REMARK  1 active torsions:
REMARK  status: ('A' for Active; 'I' for Inactive)
REMARK    1  A    between atoms: C_10  and  N_11 
ROOT
HETATM    1  C   UNL     1      38.845  -8.640   5.992  1.00  0.00     0.015 C 
HETATM    2  C   UNL     1      39.857  -9.768   6.266  1.00  0.00    -0.036 C 
HETATM    3  C   UNL     1      39.145 -10.852   7.101  1.00  0.00     0.015 C 
HETATM    4  C   UNL     1      41.055  -9.186   7.042  1.00  0.00     0.093 C 
HETATM    5  C   UNL     1      42.224 -10.142   7.159  1.00  0.00     0.163 C 
HETATM    6  O   UNL     1      43.063 -10.036   8.049  1.00  0.00    -0.292 OA
HETATM    7  C   UNL     1      42.374 -11.180   6.130  1.00  0.00     0.053 A 
HETATM    8  C   UNL     1      41.496 -11.297   5.076  1.00  0.00     0.069 A 
HETATM    9  N   UNL     1      41.630 -12.251   4.123  1.00  0.00    -0.066 NA
HETATM   10  C   UNL     1      42.640 -13.135   4.250  1.00  0.00     0.728 A 
HETATM   11  N   UNL     1      43.529 -13.082   5.253  1.00  0.00    -0.074 NA
HETATM   12  C   UNL     1      43.386 -12.106   6.173  1.00  0.00     0.153 A 
HETATM   13  C   UNL     1      40.346 -10.340   4.919  1.00  0.00     0.070 C 
ENDROOT
BRANCH  10  14
HETATM   14  N   UNL     1      42.704 -14.092   3.250  1.00  0.00    -0.164 N 
HETATM   15  C   UNL     1      43.017 -15.394   3.370  1.00  0.00     0.187 A 
HETATM   16  S   UNL     1      42.968 -16.385   1.952  1.00  0.00    -0.049 SA
HETATM   17  N   UNL     1      43.340 -16.041   4.466  1.00  0.00    -0.223 NA
HETATM   18  C   UNL     1      43.397 -17.766   2.879  1.00  0.00     0.037 A 
HETATM   19  C   UNL     1      43.550 -17.382   4.210  1.00  0.00     0.076 A 
HETATM   20  C   UNL     1      43.579 -19.096   2.464  1.00  0.00     0.021 A 
HETATM   21  C   UNL     1      43.893 -18.362   5.165  1.00  0.00     0.033 A 
HETATM   22  C   UNL     1      44.070 -19.691   4.765  1.00  0.00     0.002 A 
HETATM   23  C   UNL     1      43.917 -20.050   3.429  1.00  0.00     0.002 A 
HETATM   24  H   UNL     1      42.302 -13.742   2.395  1.00  0.00     0.186 HD
ENDBRANCH  10  14
TORSDOF 1
ENDMDL
MODEL 9
REMARK VINA RESULT:      -7.3      5.800      7.720
REMARK  1 active torsions:
REMARK  status: ('A' for Active; 'I' for Inactive)
REMARK    1  A    between atoms: C_10  and  N_11 
ROOT
HETATM    1  C   UNL     1      41.154 -14.500   0.734  1.00  0.00     0.015 C 
HETATM    2  C   UNL     1      41.702 -14.903   2.116  1.00  0.00    -0.036 C 
HETATM    3  C   UNL     1      42.944 -15.790   1.894  1.00  0.00     0.015 C 
HETATM    4  C   UNL     1      40.610 -15.679   2.879  1.00  0.00     0.093 C 
HETATM    5  C   UNL     1      40.943 -15.918   4.337  1.00  0.00     0.163 C 
HETATM    6  O   UNL     1      40.431 -16.830   4.979  1.00  0.00    -0.292 OA
HETATM    7  C   UNL     1      41.860 -14.980   5.000  1.00  0.00     0.053 A 
HETATM    8  C   UNL     1      42.408 -13.903   4.340  1.00  0.00     0.069 A 
HETATM    9  N   UNL     1      43.253 -13.035   4.946  1.00  0.00    -0.066 NA
HETATM   10  C   UNL     1      43.591 -13.272   6.230  1.00  0.00     0.728 A 
HETATM   11  N   UNL     1      43.098 -14.302   6.932  1.00  0.00    -0.074 NA
HETATM   12  C   UNL     1      42.239 -15.137   6.310  1.00  0.00     0.153 A 
HETATM   13  C   UNL     1      42.068 -13.626   2.901  1.00  0.00     0.070 C 
ENDROOT
BRANCH  10  14
HETATM   14  N   UNL     1      44.473 -12.353   6.777  1.00  0.00    -0.164 N 
HETATM   15  C   UNL     1      44.194 -11.137   7.279  1.00  0.00     0.187 A 
HETATM   16  S   UNL     1      45.490 -10.211   7.953  1.00  0.00    -0.049 SA
HETATM   17  N   UNL     1      43.021 -10.552   7.351  1.00  0.00    -0.223 NA
HETATM   18  C   UNL     1      44.398  -8.954   8.376  1.00  0.00     0.037 A 
HETATM   19  C   UNL     1      43.115  -9.322   7.974  1.00  0.00     0.076 A 
HETATM   20  C   UNL     1      44.652  -7.732   9.021  1.00  0.00     0.021 A 
HETATM   21  C   UNL     1      42.043  -8.441   8.231  1.00  0.00     0.033 A 
HETATM   22  C   UNL     1      42.283  -7.225   8.879  1.00  0.00     0.002 A 
HETATM   23  C   UNL     1      43.574  -6.876   9.267  1.00  0.00     0.002 A 
HETATM   24  H   UNL     1      45.375 -12.773   6.932  1.00  0.00     0.186 HD
ENDBRANCH  10  14
TORSDOF 1
ENDMDL
MODEL 10
REMARK VINA RESULT:      -7.2      6.132      8.144
REMARK  1 active torsions:
REMARK  status: ('A' for Active; 'I' for Inactive)
REMARK    1  A    between atoms: C_10  and  N_11 
ROOT
HETATM    1  C   UNL     1      39.876  -7.236   7.712  1.00  0.00     0.015 C 
HETATM    2  C   UNL     1      41.098  -8.058   8.162  1.00  0.00    -0.036 C 
HETATM    3  C   UNL     1      40.888  -8.449   9.640  1.00  0.00     0.015 C 
HETATM    4  C   UNL     1      42.366  -7.196   8.004  1.00  0.00     0.093 C 
HETATM    5  C   UNL     1      43.654  -7.973   8.186  1.00  0.00     0.163 C 
HETATM    6  O   UNL     1      44.705  -7.423   8.501  1.00  0.00    -0.292 OA
HETATM    7  C   UNL     1      43.636  -9.416   7.910  1.00  0.00     0.053 A 
HETATM    8  C   UNL     1      42.497 -10.066   7.490  1.00  0.00     0.069 A 
HETATM    9  N   UNL     1      42.475 -11.396   7.232  1.00  0.00    -0.066 NA
HETATM   10  C   UNL     1      43.605 -12.100   7.440  1.00  0.00     0.728 A 
HETATM   11  N   UNL     1      44.749 -11.533   7.852  1.00  0.00    -0.074 NA
HETATM   12  C   UNL     1      44.748 -10.202   8.076  1.00  0.00     0.153 A 
HETATM   13  C   UNL     1      41.214  -9.312   7.270  1.00  0.00     0.070 C 
ENDROOT
BRANCH  10  14
HETATM   14  N   UNL     1      43.502 -13.457   7.174  1.00  0.00    -0.164 N 
HETATM   15  C   UNL     1      43.345 -14.056   5.981  1.00  0.00     0.187 A 
HETATM   16  S   UNL     1      43.297 -15.784   5.930  1.00  0.00    -0.049 SA
HETATM   17  N   UNL     1      43.246 -13.481   4.805  1.00  0.00    -0.223 NA
HETATM   18  C   UNL     1      43.147 -15.749   4.219  1.00  0.00     0.037 A 
HETATM   19  C   UNL     1      43.141 -14.421   3.797  1.00  0.00     0.076 A 
HETATM   20  C   UNL     1      43.047 -16.817   3.312  1.00  0.00     0.021 A 
HETATM   21  C   UNL     1      43.039 -14.146   2.418  1.00  0.00     0.033 A 
HETATM   22  C   UNL     1      42.945 -15.201   1.504  1.00  0.00     0.002 A 
HETATM   23  C   UNL     1      42.947 -16.520   1.948  1.00  0.00     0.002 A 
HETATM   24  H   UNL     1      43.742 -14.000   7.988  1.00  0.00     0.186 HD
ENDBRANCH  10  14
TORSDOF 1
ENDMDL
