MODEL 1
REMARK VINA RESULT:     -10.1      0.000      0.000
REMARK  7 active torsions:
REMARK  status: ('A' for Active; 'I' for Inactive)
REMARK    1  A    between atoms: C_4  and  N_5 
REMARK    2  A    between atoms: C_11  and  C_12 
REMARK    3  A    between atoms: C_12  and  C_13 
REMARK    4  A    between atoms: C_13  and  C_14 
REMARK       I    between atoms: C_14  and  N_15 
REMARK    5  A    between atoms: N_15  and  C_16 
REMARK    6  A    between atoms: N_19  and  C_21 
REMARK    7  A    between atoms: C_21  and  C_22 
ROOT
HETATM    1  C   UNL     1      43.863 -12.263   6.155  1.00  0.00     0.110 C 
ENDROOT
BRANCH   1   2
HETATM    2  C   UNL     1      42.381 -11.941   6.111  1.00  0.00     0.088 C 
BRANCH   2   3
HETATM    3  C   UNL     1      41.668 -12.733   5.045  1.00  0.00     0.109 A 
HETATM    4  N   UNL     1      42.007 -13.976   4.849  1.00  0.00    -0.215 NA
HETATM    5  C   UNL     1      41.304 -14.579   3.846  1.00  0.00     0.170 A 
HETATM    6  N   UNL     1      41.492 -15.850   3.296  1.00  0.00    -0.215 N 
HETATM    7  C   UNL     1      40.268 -14.014   3.134  1.00  0.00     0.099 A 
HETATM    8  N   UNL     1      40.519 -16.122   2.370  1.00  0.00    -0.177 NA
HETATM    9  C   UNL     1      39.817 -14.993   2.256  1.00  0.00     0.160 A 
HETATM   10  C   UNL     1      39.883 -12.662   3.396  1.00  0.00     0.262 A 
HETATM   11  N   UNL     1      40.663 -12.071   4.370  1.00  0.00    -0.311 N 
HETATM   12  O   UNL     1      38.971 -12.074   2.833  1.00  0.00    -0.267 OA
HETATM   13  H   UNL     1      40.436 -11.105   4.562  1.00  0.00     0.170 HD
BRANCH   6  14
HETATM   14  C   UNL     1      42.511 -16.818   3.552  1.00  0.00     0.060 A 
HETATM   15  C   UNL     1      42.995 -16.965   4.864  1.00  0.00     0.031 A 
HETATM   16  C   UNL     1      43.966 -17.924   5.160  1.00  0.00     0.002 A 
HETATM   17  C   UNL     1      44.464 -18.745   4.154  1.00  0.00     0.000 A 
HETATM   18  C   UNL     1      43.989 -18.611   2.850  1.00  0.00     0.002 A 
HETATM   19  C   UNL     1      43.016 -17.653   2.547  1.00  0.00     0.031 A 
ENDBRANCH   6  14
ENDBRANCH   2   3
ENDBRANCH   1   2
BRANCH   1  20
HETATM   20  C   UNL     1      44.805 -11.248   6.786  1.00  0.00     0.218 C 
HETATM   21  N   UNL     1      44.301 -10.452   7.793  1.00  0.00    -0.356 N 
HETATM   22  H   UNL     1      43.314 -10.220   7.686  1.00  0.00     0.162 HD
HETATM   23  O   UNL     1      45.999 -11.278   6.501  1.00  0.00    -0.274 OA
BRANCH  21  24
HETATM   24  C   UNL     1      45.064  -9.414   8.510  1.00  0.00     0.087 C 
HETATM   25  C   UNL     1      45.677  -9.800   9.860  1.00  0.00     0.053 C 
HETATM   26  C   UNL     1      44.615 -10.212  10.863  1.00  0.00     0.237 C 
HETATM   27  N   UNL     1      43.623  -9.081  11.065  1.00  0.00    -0.067 N 
HETATM   28  H   UNL     1      44.130  -8.324  11.540  1.00  0.00     0.280 HD
HETATM   29  C   UNL     1      43.058  -8.541   9.768  1.00  0.00     0.237 C 
HETATM   30  C   UNL     1      44.155  -8.208   8.762  1.00  0.00     0.053 C 
BRANCH  27  31
HETATM   31  C   UNL     1      42.480  -9.480  11.988  1.00  0.00     0.273 C 
BRANCH  31  32
HETATM   32  C   UNL     1      42.372  -8.675  13.255  1.00  0.00    -0.033 A 
HETATM   33  C   UNL     1      41.420  -8.994  14.234  1.00  0.00     0.010 A 
HETATM   34  C   UNL     1      41.330  -8.234  15.405  1.00  0.00     0.024 A 
HETATM   35  C   UNL     1      42.183  -7.149  15.601  1.00  0.00     0.034 A 
HETATM   36 CL   UNL     1      42.067  -6.219  17.041  1.00  0.00    -0.084 Cl
HETATM   37  C   UNL     1      43.129  -6.818  14.636  1.00  0.00     0.024 A 
HETATM   38  C   UNL     1      43.226  -7.578  13.469  1.00  0.00     0.010 A 
ENDBRANCH  31  32
ENDBRANCH  27  31
ENDBRANCH  21  24
ENDBRANCH   1  20
TORSDOF 7
ENDMDL
MODEL 2
REMARK VINA RESULT:     -10.0      3.695     10.532
REMARK  7 active torsions:
REMARK  status: ('A' for Active; 'I' for Inactive)
REMARK    1  A    between atoms: C_4  and  N_5 
REMARK    2  A    between atoms: C_11  and  C_12 
REMARK    3  A    between atoms: C_12  and  C_13 
REMARK    4  A    between atoms: C_13  and  C_14 
REMARK       I    between atoms: C_14  and  N_15 
REMARK    5  A    between atoms: N_15  and  C_16 
REMARK    6  A    between atoms: N_19  and  C_21 
REMARK    7  A    between atoms: C_21  and  C_22 
ROOT
HETATM    1  C   UNL     1      39.687 -11.948   5.417  1.00  0.00     0.110 C 
ENDROOT
BRANCH   1   2
HETATM    2  C   UNL     1      40.329 -10.596   5.670  1.00  0.00     0.088 C 
BRANCH   2   3
HETATM    3  C   UNL     1      41.792 -10.727   6.007  1.00  0.00     0.109 A 
HETATM    4  N   UNL     1      42.172 -10.577   7.245  1.00  0.00    -0.215 NA
HETATM    5  C   UNL     1      43.520 -10.700   7.419  1.00  0.00     0.170 A 
HETATM    6  N   UNL     1      44.270 -10.481   8.578  1.00  0.00    -0.215 N 
HETATM    7  C   UNL     1      44.433 -11.033   6.441  1.00  0.00     0.099 A 
HETATM    8  N   UNL     1      45.586 -10.801   8.366  1.00  0.00    -0.177 NA
HETATM    9  C   UNL     1      45.672 -11.092   7.068  1.00  0.00     0.160 A 
HETATM   10  C   UNL     1      43.989 -11.235   5.096  1.00  0.00     0.262 A 
HETATM   11  N   UNL     1      42.630 -11.037   4.955  1.00  0.00    -0.311 N 
HETATM   12  O   UNL     1      44.712 -11.547   4.162  1.00  0.00    -0.267 OA
HETATM   13  H   UNL     1      42.285 -11.145   4.010  1.00  0.00     0.170 HD
BRANCH   6  14
HETATM   14  C   UNL     1      43.862  -9.983   9.853  1.00  0.00     0.060 A 
HETATM   15  C   UNL     1      43.615  -8.608   9.999  1.00  0.00     0.031 A 
HETATM   16  C   UNL     1      43.182  -8.088  11.221  1.00  0.00     0.002 A 
HETATM   17  C   UNL     1      42.989  -8.935  12.308  1.00  0.00     0.000 A 
HETATM   18  C   UNL     1      43.228 -10.301  12.175  1.00  0.00     0.002 A 
HETATM   19  C   UNL     1      43.661 -10.828  10.953  1.00  0.00     0.031 A 
ENDBRANCH   6  14
ENDBRANCH   2   3
ENDBRANCH   1   2
BRANCH   1  20
HETATM   20  C   UNL     1      39.424 -12.365   3.977  1.00  0.00     0.218 C 
HETATM   21  N   UNL     1      39.701 -13.671   3.632  1.00  0.00    -0.356 N 
HETATM   22  H   UNL     1      40.491 -14.076   4.134  1.00  0.00     0.162 HD
HETATM   23  O   UNL     1      38.835 -11.592   3.227  1.00  0.00    -0.274 OA
BRANCH  21  24
HETATM   24  C   UNL     1      39.515 -14.245   2.287  1.00  0.00     0.087 C 
HETATM   25  C   UNL     1      39.664 -15.763   2.145  1.00  0.00     0.053 C 
HETATM   26  C   UNL     1      41.053 -16.233   2.539  1.00  0.00     0.237 C 
HETATM   27  N   UNL     1      42.098 -15.541   1.682  1.00  0.00    -0.067 N 
HETATM   28  H   UNL     1      41.980 -15.899   0.726  1.00  0.00     0.280 HD
HETATM   29  C   UNL     1      41.949 -14.035   1.655  1.00  0.00     0.237 C 
HETATM   30  C   UNL     1      40.523 -13.607   1.326  1.00  0.00     0.053 C 
BRANCH  27  31
HETATM   31  C   UNL     1      43.515 -15.904   2.105  1.00  0.00     0.273 C 
BRANCH  31  32
HETATM   32  C   UNL     1      43.642 -17.190   2.875  1.00  0.00    -0.033 A 
HETATM   33  C   UNL     1      43.563 -18.431   2.225  1.00  0.00     0.010 A 
HETATM   34  C   UNL     1      43.680 -19.618   2.956  1.00  0.00     0.024 A 
HETATM   35  C   UNL     1      43.869 -19.574   4.336  1.00  0.00     0.034 A 
HETATM   36 CL   UNL     1      44.011 -21.036   5.228  1.00  0.00    -0.084 Cl
HETATM   37  C   UNL     1      43.945 -18.350   4.995  1.00  0.00     0.024 A 
HETATM   38  C   UNL     1      43.834 -17.163   4.268  1.00  0.00     0.010 A 
ENDBRANCH  31  32
ENDBRANCH  27  31
ENDBRANCH  21  24
ENDBRANCH   1  20
TORSDOF 7
ENDMDL
MODEL 3
REMARK VINA RESULT:     -10.0      1.665      2.083
REMARK  7 active torsions:
REMARK  status: ('A' for Active; 'I' for Inactive)
REMARK    1  A    between atoms: C_4  and  N_5 
REMARK    2  A    between atoms: C_11  and  C_12 
REMARK    3  A    between atoms: C_12  and  C_13 
REMARK    4  A    between atoms: C_13  and  C_14 
REMARK       I    between atoms: C_14  and  N_15 
REMARK    5  A    between atoms: N_15  and  C_16 
REMARK    6  A    between atoms: N_19  and  C_21 
REMARK    7  A    between atoms: C_21  and  C_22 
ROOT
HETATM    1  C   UNL     1      42.824 -12.402   6.672  1.00  0.00     0.110 C 
ENDROOT
BRANCH   1   2
HETATM    2  C   UNL     1      42.990 -13.910   6.613  1.00  0.00     0.088 C 
BRANCH   2   3
HETATM    3  C   UNL     1      43.038 -14.411   5.192  1.00  0.00     0.109 A 
HETATM    4  N   UNL     1      43.087 -15.695   4.977  1.00  0.00    -0.215 NA
HETATM    5  C   UNL     1      43.147 -16.023   3.653  1.00  0.00     0.170 A 
HETATM    6  N   UNL     1      43.329 -17.283   3.077  1.00  0.00    -0.215 N 
HETATM    7  C   UNL     1      43.077 -15.137   2.599  1.00  0.00     0.099 A 
HETATM    8  N   UNL     1      43.237 -17.205   1.712  1.00  0.00    -0.177 NA
HETATM    9  C   UNL     1      43.126 -15.904   1.441  1.00  0.00     0.160 A 
HETATM   10  C   UNL     1      42.980 -13.733   2.858  1.00  0.00     0.262 A 
HETATM   11  N   UNL     1      42.989 -13.445   4.208  1.00  0.00    -0.311 N 
HETATM   12  O   UNL     1      42.898 -12.869   1.998  1.00  0.00    -0.267 OA
HETATM   13  H   UNL     1      42.949 -12.459   4.427  1.00  0.00     0.170 HD
BRANCH   6  14
HETATM   14  C   UNL     1      43.598 -18.542   3.694  1.00  0.00     0.060 A 
HETATM   15  C   UNL     1      43.735 -18.599   5.092  1.00  0.00     0.031 A 
HETATM   16  C   UNL     1      43.964 -19.817   5.736  1.00  0.00     0.002 A 
HETATM   17  C   UNL     1      44.058 -20.990   4.993  1.00  0.00     0.000 A 
HETATM   18  C   UNL     1      43.922 -20.947   3.607  1.00  0.00     0.002 A 
HETATM   19  C   UNL     1      43.691 -19.730   2.956  1.00  0.00     0.031 A 
ENDBRANCH   6  14
ENDBRANCH   2   3
ENDBRANCH   1   2
BRANCH   1  20
HETATM   20  C   UNL     1      43.943 -11.576   7.290  1.00  0.00     0.218 C 
HETATM   21  N   UNL     1      43.596 -10.654   8.256  1.00  0.00    -0.356 N 
HETATM   22  H   UNL     1      42.679 -10.230   8.116  1.00  0.00     0.162 HD
HETATM   23  O   UNL     1      45.110 -11.861   7.036  1.00  0.00    -0.274 OA
BRANCH  21  24
HETATM   24  C   UNL     1      44.543  -9.767   8.954  1.00  0.00     0.087 C 
HETATM   25  C   UNL     1      45.156 -10.282  10.260  1.00  0.00     0.053 C 
HETATM   26  C   UNL     1      44.094 -10.558  11.309  1.00  0.00     0.237 C 
HETATM   27  N   UNL     1      43.298  -9.297  11.589  1.00  0.00    -0.067 N 
HETATM   28  H   UNL     1      43.938  -8.640  12.054  1.00  0.00     0.280 HD
HETATM   29  C   UNL     1      42.759  -8.639  10.337  1.00  0.00     0.237 C 
HETATM   30  C   UNL     1      43.843  -8.444   9.282  1.00  0.00     0.053 C 
BRANCH  27  31
HETATM   31  C   UNL     1      42.155  -9.546  12.563  1.00  0.00     0.273 C 
BRANCH  31  32
HETATM   32  C   UNL     1      42.116  -8.623  13.751  1.00  0.00    -0.033 A 
HETATM   33  C   UNL     1      43.026  -7.563  13.872  1.00  0.00     0.010 A 
HETATM   34  C   UNL     1      42.979  -6.716  14.984  1.00  0.00     0.024 A 
HETATM   35  C   UNL     1      42.030  -6.926  15.983  1.00  0.00     0.034 A 
HETATM   36 CL   UNL     1      41.977  -5.882  17.347  1.00  0.00    -0.084 Cl
HETATM   37  C   UNL     1      41.123  -7.977  15.879  1.00  0.00     0.024 A 
HETATM   38  C   UNL     1      41.163  -8.821  14.767  1.00  0.00     0.010 A 
ENDBRANCH  31  32
ENDBRANCH  27  31
ENDBRANCH  21  24
ENDBRANCH   1  20
TORSDOF 7
ENDMDL
MODEL 4
REMARK VINA RESULT:      -9.6      1.653      2.075
REMARK  7 active torsions:
REMARK  status: ('A' for Active; 'I' for Inactive)
REMARK    1  A    between atoms: C_4  and  N_5 
REMARK    2  A    between atoms: C_11  and  C_12 
REMARK    3  A    between atoms: C_12  and  C_13 
REMARK    4  A    between atoms: C_13  and  C_14 
REMARK       I    between atoms: C_14  and  N_15 
REMARK    5  A    between atoms: N_15  and  C_16 
REMARK    6  A    between atoms: N_19  and  C_21 
REMARK    7  A    between atoms: C_21  and  C_22 
ROOT
HETATM    1  C   UNL     1      39.548 -11.583   6.391  1.00  0.00     0.110 C 
ENDROOT
BRANCH   1   2
HETATM    2  C   UNL     1      40.100 -12.992   6.270  1.00  0.00     0.088 C 
BRANCH   2   3
HETATM    3  C   UNL     1      40.092 -13.475   4.843  1.00  0.00     0.109 A 
HETATM    4  N   UNL     1      40.735 -14.568   4.542  1.00  0.00    -0.215 NA
HETATM    5  C   UNL     1      40.669 -14.891   3.217  1.00  0.00     0.170 A 
HETATM    6  N   UNL     1      41.335 -15.914   2.538  1.00  0.00    -0.215 N 
HETATM    7  C   UNL     1      39.940 -14.220   2.259  1.00  0.00     0.099 A 
HETATM    8  N   UNL     1      40.928 -15.967   1.230  1.00  0.00    -0.177 NA
HETATM    9  C   UNL     1      40.122 -14.917   1.070  1.00  0.00     0.160 A 
HETATM   10  C   UNL     1      39.206 -13.046   2.620  1.00  0.00     0.262 A 
HETATM   11  N   UNL     1      39.355 -12.720   3.953  1.00  0.00    -0.311 N 
HETATM   12  O   UNL     1      38.518 -12.389   1.851  1.00  0.00    -0.267 OA
HETATM   13  H   UNL     1      38.870 -11.880   4.237  1.00  0.00     0.170 HD
BRANCH   6  14
HETATM   14  C   UNL     1      42.326 -16.831   3.005  1.00  0.00     0.060 A 
HETATM   15  C   UNL     1      42.546 -18.019   2.288  1.00  0.00     0.031 A 
HETATM   16  C   UNL     1      43.529 -18.923   2.694  1.00  0.00     0.002 A 
HETATM   17  C   UNL     1      44.304 -18.652   3.817  1.00  0.00     0.000 A 
HETATM   18  C   UNL     1      44.097 -17.475   4.535  1.00  0.00     0.002 A 
HETATM   19  C   UNL     1      43.114 -16.565   4.133  1.00  0.00     0.031 A 
ENDBRANCH   6  14
ENDBRANCH   2   3
ENDBRANCH   1   2
BRANCH   1  20
HETATM   20  C   UNL     1      40.531 -10.422   6.435  1.00  0.00     0.218 C 
HETATM   21  N   UNL     1      41.384 -10.351   7.516  1.00  0.00    -0.356 N 
HETATM   22  H   UNL     1      40.984 -10.700   8.386  1.00  0.00     0.162 HD
HETATM   23  O   UNL     1      40.645  -9.695   5.452  1.00  0.00    -0.274 OA
BRANCH  21  24
HETATM   24  C   UNL     1      42.392  -9.296   7.727  1.00  0.00     0.087 C 
HETATM   25  C   UNL     1      43.754  -9.727   8.281  1.00  0.00     0.053 C 
HETATM   26  C   UNL     1      43.626 -10.371   9.650  1.00  0.00     0.237 C 
HETATM   27  N   UNL     1      42.970  -9.404  10.620  1.00  0.00    -0.067 N 
HETATM   28  H   UNL     1      43.637  -8.637  10.770  1.00  0.00     0.280 HD
HETATM   29  C   UNL     1      41.674  -8.821  10.099  1.00  0.00     0.237 C 
HETATM   30  C   UNL     1      41.829  -8.250   8.693  1.00  0.00     0.053 C 
BRANCH  27  31
HETATM   31  C   UNL     1      42.729 -10.038  11.983  1.00  0.00     0.273 C 
BRANCH  31  32
HETATM   32  C   UNL     1      42.535  -9.064  13.114  1.00  0.00    -0.033 A 
HETATM   33  C   UNL     1      41.555  -9.283  14.094  1.00  0.00     0.010 A 
HETATM   34  C   UNL     1      41.385  -8.367  15.138  1.00  0.00     0.024 A 
HETATM   35  C   UNL     1      42.185  -7.227  15.205  1.00  0.00     0.034 A 
HETATM   36 CL   UNL     1      41.970  -6.104  16.488  1.00  0.00    -0.084 Cl
HETATM   37  C   UNL     1      43.157  -6.995  14.236  1.00  0.00     0.024 A 
HETATM   38  C   UNL     1      43.334  -7.910  13.196  1.00  0.00     0.010 A 
ENDBRANCH  31  32
ENDBRANCH  27  31
ENDBRANCH  21  24
ENDBRANCH   1  20
TORSDOF 7
ENDMDL
MODEL 5
REMARK VINA RESULT:      -9.5      4.620     11.699
REMARK  7 active torsions:
REMARK  status: ('A' for Active; 'I' for Inactive)
REMARK    1  A    between atoms: C_4  and  N_5 
REMARK    2  A    between atoms: C_11  and  C_12 
REMARK    3  A    between atoms: C_12  and  C_13 
REMARK    4  A    between atoms: C_13  and  C_14 
REMARK       I    between atoms: C_14  and  N_15 
REMARK    5  A    between atoms: N_15  and  C_16 
REMARK    6  A    between atoms: N_19  and  C_21 
REMARK    7  A    between atoms: C_21  and  C_22 
ROOT
HETATM    1  C   UNL     1      40.207  -9.768   8.118  1.00  0.00     0.110 C 
ENDROOT
BRANCH   1   2
HETATM    2  C   UNL     1      39.070  -9.849   9.120  1.00  0.00     0.088 C 
BRANCH   2   3
HETATM    3  C   UNL     1      39.547  -9.596  10.527  1.00  0.00     0.109 A 
HETATM    4  N   UNL     1      40.076  -8.440  10.817  1.00  0.00    -0.215 NA
HETATM    5  C   UNL     1      40.486  -8.339  12.115  1.00  0.00     0.170 A 
HETATM    6  N   UNL     1      41.195  -7.301  12.725  1.00  0.00    -0.215 N 
HETATM    7  C   UNL     1      40.307  -9.294  13.094  1.00  0.00     0.099 A 
HETATM    8  N   UNL     1      41.332  -7.537  14.068  1.00  0.00    -0.177 NA
HETATM    9  C   UNL     1      40.829  -8.756  14.264  1.00  0.00     0.160 A 
HETATM   10  C   UNL     1      39.685 -10.539  12.764  1.00  0.00     0.262 A 
HETATM   11  N   UNL     1      39.347 -10.622  11.427  1.00  0.00    -0.311 N 
HETATM   12  O   UNL     1      39.467 -11.443  13.558  1.00  0.00    -0.267 OA
HETATM   13  H   UNL     1      38.929 -11.500  11.154  1.00  0.00     0.170 HD
BRANCH   6  14
HETATM   14  C   UNL     1      41.766  -6.122  12.154  1.00  0.00     0.060 A 
HETATM   15  C   UNL     1      41.910  -4.979  12.958  1.00  0.00     0.031 A 
HETATM   16  C   UNL     1      42.494  -3.818  12.446  1.00  0.00     0.002 A 
HETATM   17  C   UNL     1      42.942  -3.787  11.128  1.00  0.00     0.000 A 
HETATM   18  C   UNL     1      42.806  -4.916  10.323  1.00  0.00     0.002 A 
HETATM   19  C   UNL     1      42.223  -6.082  10.830  1.00  0.00     0.031 A 
ENDBRANCH   6  14
ENDBRANCH   2   3
ENDBRANCH   1   2
BRANCH   1  20
HETATM   20  C   UNL     1      39.914 -10.113   6.665  1.00  0.00     0.218 C 
HETATM   21  N   UNL     1      40.697 -11.080   6.070  1.00  0.00    -0.356 N 
HETATM   22  H   UNL     1      41.660 -11.101   6.405  1.00  0.00     0.162 HD
HETATM   23  O   UNL     1      38.911  -9.651   6.128  1.00  0.00    -0.274 OA
BRANCH  21  24
HETATM   24  C   UNL     1      40.561 -11.535   4.674  1.00  0.00     0.087 C 
HETATM   25  C   UNL     1      39.884 -12.889   4.439  1.00  0.00     0.053 C 
HETATM   26  C   UNL     1      40.644 -14.021   5.106  1.00  0.00     0.237 C 
HETATM   27  N   UNL     1      42.068 -14.072   4.581  1.00  0.00    -0.067 N 
HETATM   28  H   UNL     1      42.010 -14.360   3.596  1.00  0.00     0.280 HD
HETATM   29  C   UNL     1      42.779 -12.738   4.651  1.00  0.00     0.237 C 
HETATM   30  C   UNL     1      41.950 -11.615   4.035  1.00  0.00     0.053 C 
BRANCH  27  31
HETATM   31  C   UNL     1      42.902 -15.129   5.291  1.00  0.00     0.273 C 
BRANCH  31  32
HETATM   32  C   UNL     1      43.157 -16.381   4.496  1.00  0.00    -0.033 A 
HETATM   33  C   UNL     1      43.850 -17.464   5.057  1.00  0.00     0.010 A 
HETATM   34  C   UNL     1      44.082 -18.619   4.304  1.00  0.00     0.024 A 
HETATM   35  C   UNL     1      43.631 -18.698   2.987  1.00  0.00     0.034 A 
HETATM   36 CL   UNL     1      43.921 -20.119   2.066  1.00  0.00    -0.084 Cl
HETATM   37  C   UNL     1      42.947 -17.629   2.416  1.00  0.00     0.024 A 
HETATM   38  C   UNL     1      42.708 -16.476   3.167  1.00  0.00     0.010 A 
ENDBRANCH  31  32
ENDBRANCH  27  31
ENDBRANCH  21  24
ENDBRANCH   1  20
TORSDOF 7
ENDMDL
MODEL 6
REMARK VINA RESULT:      -9.4      2.872      4.133
REMARK  7 active torsions:
REMARK  status: ('A' for Active; 'I' for Inactive)
REMARK    1  A    between atoms: C_4  and  N_5 
REMARK    2  A    between atoms: C_11  and  C_12 
REMARK    3  A    between atoms: C_12  and  C_13 
REMARK    4  A    between atoms: C_13  and  C_14 
REMARK       I    between atoms: C_14  and  N_15 
REMARK    5  A    between atoms: N_15  and  C_16 
REMARK    6  A    between atoms: N_19  and  C_21 
REMARK    7  A    between atoms: C_21  and  C_22 
ROOT
HETATM    1  C   UNL     1      40.478 -10.621   6.124  1.00  0.00     0.110 C 
ENDROOT
BRANCH   1   2
HETATM    2  C   UNL     1      41.254 -11.923   6.036  1.00  0.00     0.088 C 
BRANCH   2   3
HETATM    3  C   UNL     1      40.829 -12.748   4.849  1.00  0.00     0.109 A 
HETATM    4  N   UNL     1      41.303 -13.955   4.716  1.00  0.00    -0.215 NA
HETATM    5  C   UNL     1      40.860 -14.593   3.593  1.00  0.00     0.170 A 
HETATM    6  N   UNL     1      41.256 -15.832   3.084  1.00  0.00    -0.215 N 
HETATM    7  C   UNL     1      39.936 -14.100   2.697  1.00  0.00     0.099 A 
HETATM    8  N   UNL     1      40.506 -16.163   1.986  1.00  0.00    -0.177 NA
HETATM    9  C   UNL     1      39.747 -15.094   1.744  1.00  0.00     0.160 A 
HETATM   10  C   UNL     1      39.395 -12.789   2.886  1.00  0.00     0.262 A 
HETATM   11  N   UNL     1      39.920 -12.157   3.995  1.00  0.00    -0.311 N 
HETATM   12  O   UNL     1      38.562 -12.266   2.160  1.00  0.00    -0.267 OA
HETATM   13  H   UNL     1      39.580 -11.217   4.144  1.00  0.00     0.170 HD
BRANCH   6  14
HETATM   14  C   UNL     1      42.285 -16.719   3.528  1.00  0.00     0.060 A 
HETATM   15  C   UNL     1      42.538 -16.831   4.906  1.00  0.00     0.031 A 
HETATM   16  C   UNL     1      43.512 -17.712   5.381  1.00  0.00     0.002 A 
HETATM   17  C   UNL     1      44.242 -18.490   4.488  1.00  0.00     0.000 A 
HETATM   18  C   UNL     1      43.998 -18.390   3.120  1.00  0.00     0.002 A 
HETATM   19  C   UNL     1      43.023 -17.510   2.638  1.00  0.00     0.031 A 
ENDBRANCH   6  14
ENDBRANCH   2   3
ENDBRANCH   1   2
BRANCH   1  20
HETATM   20  C   UNL     1      39.496 -10.441   7.271  1.00  0.00     0.218 C 
HETATM   21  N   UNL     1      39.788  -9.480   8.215  1.00  0.00    -0.356 N 
HETATM   22  H   UNL     1      40.785  -9.353   8.386  1.00  0.00     0.162 HD
HETATM   23  O   UNL     1      38.418 -11.029   7.236  1.00  0.00    -0.274 OA
BRANCH  21  24
HETATM   24  C   UNL     1      38.956  -9.174   9.394  1.00  0.00     0.087 C 
HETATM   25  C   UNL     1      38.916  -7.717   9.865  1.00  0.00     0.053 C 
HETATM   26  C   UNL     1      40.292  -7.216  10.266  1.00  0.00     0.237 C 
HETATM   27  N   UNL     1      40.861  -8.088  11.371  1.00  0.00    -0.067 N 
HETATM   28  H   UNL     1      40.286  -7.921  12.206  1.00  0.00     0.280 HD
HETATM   29  C   UNL     1      40.822  -9.566  11.047  1.00  0.00     0.237 C 
HETATM   30  C   UNL     1      39.440 -10.013  10.580  1.00  0.00     0.053 C 
BRANCH  27  31
HETATM   31  C   UNL     1      42.282  -7.688  11.740  1.00  0.00     0.273 C 
BRANCH  31  32
HETATM   32  C   UNL     1      43.345  -8.143  10.777  1.00  0.00    -0.033 A 
HETATM   33  C   UNL     1      43.484  -7.541   9.518  1.00  0.00     0.010 A 
HETATM   34  C   UNL     1      44.475  -7.978   8.633  1.00  0.00     0.024 A 
HETATM   35  C   UNL     1      45.326  -9.021   8.996  1.00  0.00     0.034 A 
HETATM   36 CL   UNL     1      46.541  -9.554   7.904  1.00  0.00    -0.084 Cl
HETATM   37  C   UNL     1      45.197  -9.631  10.240  1.00  0.00     0.024 A 
HETATM   38  C   UNL     1      44.212  -9.193  11.129  1.00  0.00     0.010 A 
ENDBRANCH  31  32
ENDBRANCH  27  31
ENDBRANCH  21  24
ENDBRANCH   1  20
TORSDOF 7
ENDMDL
MODEL 7
REMARK VINA RESULT:      -9.3      4.241      9.842
REMARK  7 active torsions:
REMARK  status: ('A' for Active; 'I' for Inactive)
REMARK    1  A    between atoms: C_4  and  N_5 
REMARK    2  A    between atoms: C_11  and  C_12 
REMARK    3  A    between atoms: C_12  and  C_13 
REMARK    4  A    between atoms: C_13  and  C_14 
REMARK       I    between atoms: C_14  and  N_15 
REMARK    5  A    between atoms: N_15  and  C_16 
REMARK    6  A    between atoms: N_19  and  C_21 
REMARK    7  A    between atoms: C_21  and  C_22 
ROOT
HETATM    1  C   UNL     1      40.025  -8.277   7.562  1.00  0.00     0.110 C 
ENDROOT
BRANCH   1   2
HETATM    2  C   UNL     1      39.428  -8.438   8.948  1.00  0.00     0.088 C 
BRANCH   2   3
HETATM    3  C   UNL     1      40.405  -9.064   9.909  1.00  0.00     0.109 A 
HETATM    4  N   UNL     1      41.618  -9.314   9.503  1.00  0.00    -0.215 NA
HETATM    5  C   UNL     1      42.401  -9.897  10.457  1.00  0.00     0.170 A 
HETATM    6  N   UNL     1      43.697 -10.404  10.326  1.00  0.00    -0.215 N 
HETATM    7  C   UNL     1      42.035 -10.143  11.762  1.00  0.00     0.099 A 
HETATM    8  N   UNL     1      44.173 -10.823  11.541  1.00  0.00    -0.177 NA
HETATM    9  C   UNL     1      43.148 -10.697  12.383  1.00  0.00     0.160 A 
HETATM   10  C   UNL     1      40.711  -9.820  12.199  1.00  0.00     0.262 A 
HETATM   11  N   UNL     1      39.935  -9.294  11.186  1.00  0.00    -0.311 N 
HETATM   12  O   UNL     1      40.292  -9.983  13.336  1.00  0.00    -0.267 OA
HETATM   13  H   UNL     1      38.984  -9.079  11.453  1.00  0.00     0.170 HD
BRANCH   6  14
HETATM   14  C   UNL     1      44.515 -10.542   9.163  1.00  0.00     0.060 A 
HETATM   15  C   UNL     1      44.142 -11.471   8.177  1.00  0.00     0.031 A 
HETATM   16  C   UNL     1      44.896 -11.611   7.010  1.00  0.00     0.002 A 
HETATM   17  C   UNL     1      46.028 -10.826   6.814  1.00  0.00     0.000 A 
HETATM   18  C   UNL     1      46.406  -9.899   7.783  1.00  0.00     0.002 A 
HETATM   19  C   UNL     1      45.653  -9.753   8.954  1.00  0.00     0.031 A 
ENDBRANCH   6  14
ENDBRANCH   2   3
ENDBRANCH   1   2
BRANCH   1  20
HETATM   20  C   UNL     1      39.363  -9.005   6.401  1.00  0.00     0.218 C 
HETATM   21  N   UNL     1      39.864 -10.243   6.056  1.00  0.00    -0.356 N 
HETATM   22  H   UNL     1      40.869 -10.340   6.200  1.00  0.00     0.162 HD
HETATM   23  O   UNL     1      38.325  -8.555   5.924  1.00  0.00    -0.274 OA
BRANCH  21  24
HETATM   24  C   UNL     1      39.353 -11.084   4.958  1.00  0.00     0.087 C 
HETATM   25  C   UNL     1      39.057 -12.552   5.279  1.00  0.00     0.053 C 
HETATM   26  C   UNL     1      40.301 -13.291   5.738  1.00  0.00     0.237 C 
HETATM   27  N   UNL     1      41.376 -13.215   4.669  1.00  0.00    -0.067 N 
HETATM   28  H   UNL     1      41.039 -13.771   3.872  1.00  0.00     0.280 HD
HETATM   29  C   UNL     1      41.647 -11.805   4.191  1.00  0.00     0.237 C 
HETATM   30  C   UNL     1      40.364 -11.075   3.807  1.00  0.00     0.053 C 
BRANCH  27  31
HETATM   31  C   UNL     1      42.679 -13.857   5.122  1.00  0.00     0.273 C 
BRANCH  31  32
HETATM   32  C   UNL     1      42.979 -15.197   4.507  1.00  0.00    -0.033 A 
HETATM   33  C   UNL     1      43.612 -16.206   5.248  1.00  0.00     0.010 A 
HETATM   34  C   UNL     1      43.886 -17.446   4.660  1.00  0.00     0.024 A 
HETATM   35  C   UNL     1      43.538 -17.682   3.331  1.00  0.00     0.034 A 
HETATM   36 CL   UNL     1      43.879 -19.206   2.615  1.00  0.00    -0.084 Cl
HETATM   37  C   UNL     1      42.914 -16.688   2.583  1.00  0.00     0.024 A 
HETATM   38  C   UNL     1      42.633 -15.452   3.168  1.00  0.00     0.010 A 
ENDBRANCH  31  32
ENDBRANCH  27  31
ENDBRANCH  21  24
ENDBRANCH   1  20
TORSDOF 7
ENDMDL
MODEL 8
REMARK VINA RESULT:      -9.1      4.003     10.887
REMARK  7 active torsions:
REMARK  status: ('A' for Active; 'I' for Inactive)
REMARK    1  A    between atoms: C_4  and  N_5 
REMARK    2  A    between atoms: C_11  and  C_12 
REMARK    3  A    between atoms: C_12  and  C_13 
REMARK    4  A    between atoms: C_13  and  C_14 
REMARK       I    between atoms: C_14  and  N_15 
REMARK    5  A    between atoms: N_15  and  C_16 
REMARK    6  A    between atoms: N_19  and  C_21 
REMARK    7  A    between atoms: C_21  and  C_22 
ROOT
HETATM    1  C   UNL     1      40.608  -8.856   6.320  1.00  0.00     0.110 C 
ENDROOT
BRANCH   1   2
HETATM    2  C   UNL     1      42.101  -9.099   6.193  1.00  0.00     0.088 C 
BRANCH   2   3
HETATM    3  C   UNL     1      42.723  -9.461   7.517  1.00  0.00     0.109 A 
HETATM    4  N   UNL     1      42.074  -9.192   8.615  1.00  0.00    -0.215 NA
HETATM    5  C   UNL     1      42.748  -9.550   9.747  1.00  0.00     0.170 A 
HETATM    6  N   UNL     1      42.405  -9.299  11.078  1.00  0.00    -0.215 N 
HETATM    7  C   UNL     1      43.956 -10.212   9.791  1.00  0.00     0.099 A 
HETATM    8  N   UNL     1      43.295  -9.905  11.926  1.00  0.00    -0.177 NA
HETATM    9  C   UNL     1      44.242 -10.414  11.136  1.00  0.00     0.160 A 
HETATM   10  C   UNL     1      44.631 -10.538   8.572  1.00  0.00     0.262 A 
HETATM   11  N   UNL     1      43.945 -10.099   7.457  1.00  0.00    -0.311 N 
HETATM   12  O   UNL     1      45.695 -11.135   8.502  1.00  0.00    -0.267 OA
HETATM   13  H   UNL     1      44.408 -10.289   6.578  1.00  0.00     0.170 HD
BRANCH   6  14
HETATM   14  C   UNL     1      41.329  -8.530  11.618  1.00  0.00     0.060 A 
HETATM   15  C   UNL     1      40.183  -9.197  12.083  1.00  0.00     0.031 A 
HETATM   16  C   UNL     1      39.124  -8.483  12.649  1.00  0.00     0.002 A 
HETATM   17  C   UNL     1      39.199  -7.097  12.757  1.00  0.00     0.000 A 
HETATM   18  C   UNL     1      40.332  -6.425  12.302  1.00  0.00     0.002 A 
HETATM   19  C   UNL     1      41.396  -7.135  11.736  1.00  0.00     0.031 A 
ENDBRANCH   6  14
ENDBRANCH   2   3
ENDBRANCH   1   2
BRANCH   1  20
HETATM   20  C   UNL     1      39.667 -10.040   6.154  1.00  0.00     0.218 C 
HETATM   21  N   UNL     1      40.184 -11.191   5.598  1.00  0.00    -0.356 N 
HETATM   22  H   UNL     1      40.909 -11.028   4.901  1.00  0.00     0.162 HD
HETATM   23  O   UNL     1      38.548  -9.992   6.657  1.00  0.00    -0.274 OA
BRANCH  21  24
HETATM   24  C   UNL     1      39.419 -12.428   5.357  1.00  0.00     0.087 C 
HETATM   25  C   UNL     1      39.767 -13.648   6.216  1.00  0.00     0.053 C 
HETATM   26  C   UNL     1      41.209 -14.082   6.020  1.00  0.00     0.237 C 
HETATM   27  N   UNL     1      41.460 -14.406   4.558  1.00  0.00    -0.067 N 
HETATM   28  H   UNL     1      40.918 -15.252   4.345  1.00  0.00     0.280 HD
HETATM   29  C   UNL     1      41.023 -13.304   3.617  1.00  0.00     0.237 C 
HETATM   30  C   UNL     1      39.594 -12.849   3.894  1.00  0.00     0.053 C 
BRANCH  27  31
HETATM   31  C   UNL     1      42.919 -14.751   4.292  1.00  0.00     0.273 C 
BRANCH  31  32
HETATM   32  C   UNL     1      43.167 -16.162   3.831  1.00  0.00    -0.033 A 
HETATM   33  C   UNL     1      42.659 -16.622   2.607  1.00  0.00     0.010 A 
HETATM   34  C   UNL     1      42.897 -17.937   2.195  1.00  0.00     0.024 A 
HETATM   35  C   UNL     1      43.634 -18.801   3.003  1.00  0.00     0.034 A 
HETATM   36 CL   UNL     1      43.921 -20.417   2.492  1.00  0.00    -0.084 Cl
HETATM   37  C   UNL     1      44.140 -18.360   4.222  1.00  0.00     0.024 A 
HETATM   38  C   UNL     1      43.910 -17.045   4.634  1.00  0.00     0.010 A 
ENDBRANCH  31  32
ENDBRANCH  27  31
ENDBRANCH  21  24
ENDBRANCH   1  20
TORSDOF 7
ENDMDL
MODEL 9
REMARK VINA RESULT:      -9.0      2.145      3.657
REMARK  7 active torsions:
REMARK  status: ('A' for Active; 'I' for Inactive)
REMARK    1  A    between atoms: C_4  and  N_5 
REMARK    2  A    between atoms: C_11  and  C_12 
REMARK    3  A    between atoms: C_12  and  C_13 
REMARK    4  A    between atoms: C_13  and  C_14 
REMARK       I    between atoms: C_14  and  N_15 
REMARK    5  A    between atoms: N_15  and  C_16 
REMARK    6  A    between atoms: N_19  and  C_21 
REMARK    7  A    between atoms: C_21  and  C_22 
ROOT
HETATM    1  C   UNL     1      39.601 -12.459   5.409  1.00  0.00     0.110 C 
ENDROOT
BRANCH   1   2
HETATM    2  C   UNL     1      40.685 -12.873   4.431  1.00  0.00     0.088 C 
BRANCH   2   3
HETATM    3  C   UNL     1      41.789 -13.641   5.111  1.00  0.00     0.109 A 
HETATM    4  N   UNL     1      42.255 -14.716   4.540  1.00  0.00    -0.215 NA
HETATM    5  C   UNL     1      43.237 -15.333   5.261  1.00  0.00     0.170 A 
HETATM    6  N   UNL     1      43.863 -16.556   5.008  1.00  0.00    -0.215 N 
HETATM    7  C   UNL     1      43.786 -14.869   6.437  1.00  0.00     0.099 A 
HETATM    8  N   UNL     1      44.864 -16.781   5.917  1.00  0.00    -0.177 NA
HETATM    9  C   UNL     1      44.776 -15.778   6.791  1.00  0.00     0.160 A 
HETATM   10  C   UNL     1      43.288 -13.663   7.025  1.00  0.00     0.262 A 
HETATM   11  N   UNL     1      42.253 -13.111   6.297  1.00  0.00    -0.311 N 
HETATM   12  O   UNL     1      43.714 -13.161   8.054  1.00  0.00    -0.267 OA
HETATM   13  H   UNL     1      41.859 -12.271   6.698  1.00  0.00     0.170 HD
BRANCH   6  14
HETATM   14  C   UNL     1      43.592 -17.534   4.001  1.00  0.00     0.060 A 
HETATM   15  C   UNL     1      44.114 -18.829   4.154  1.00  0.00     0.031 A 
HETATM   16  C   UNL     1      43.843 -19.822   3.210  1.00  0.00     0.002 A 
HETATM   17  C   UNL     1      43.048 -19.532   2.105  1.00  0.00     0.000 A 
HETATM   18  C   UNL     1      42.522 -18.252   1.944  1.00  0.00     0.002 A 
HETATM   19  C   UNL     1      42.789 -17.254   2.888  1.00  0.00     0.031 A 
ENDBRANCH   6  14
ENDBRANCH   2   3
ENDBRANCH   1   2
BRANCH   1  20
HETATM   20  C   UNL     1      39.439 -10.979   5.724  1.00  0.00     0.218 C 
HETATM   21  N   UNL     1      40.381 -10.395   6.544  1.00  0.00    -0.356 N 
HETATM   22  H   UNL     1      40.758 -11.020   7.256  1.00  0.00     0.162 HD
HETATM   23  O   UNL     1      38.589 -10.328   5.123  1.00  0.00    -0.274 OA
BRANCH  21  24
HETATM   24  C   UNL     1      40.378  -8.981   6.958  1.00  0.00     0.087 C 
HETATM   25  C   UNL     1      41.738  -8.315   7.193  1.00  0.00     0.053 C 
HETATM   26  C   UNL     1      42.519  -9.003   8.297  1.00  0.00     0.237 C 
HETATM   27  N   UNL     1      41.720  -8.986   9.588  1.00  0.00    -0.067 N 
HETATM   28  H   UNL     1      41.674  -8.006   9.894  1.00  0.00     0.280 HD
HETATM   29  C   UNL     1      40.309  -9.508   9.425  1.00  0.00     0.237 C 
HETATM   30  C   UNL     1      39.584  -8.841   8.260  1.00  0.00     0.053 C 
BRANCH  27  31
HETATM   31  C   UNL     1      42.419  -9.753  10.703  1.00  0.00     0.273 C 
BRANCH  31  32
HETATM   32  C   UNL     1      42.350  -9.108  12.060  1.00  0.00    -0.033 A 
HETATM   33  C   UNL     1      41.399  -9.517  13.006  1.00  0.00     0.010 A 
HETATM   34  C   UNL     1      41.346  -8.906  14.263  1.00  0.00     0.024 A 
HETATM   35  C   UNL     1      42.235  -7.880  14.580  1.00  0.00     0.034 A 
HETATM   36 CL   UNL     1      42.165  -7.132  16.126  1.00  0.00    -0.084 Cl
HETATM   37  C   UNL     1      43.181  -7.461  13.649  1.00  0.00     0.024 A 
HETATM   38  C   UNL     1      43.241  -8.073  12.396  1.00  0.00     0.010 A 
ENDBRANCH  31  32
ENDBRANCH  27  31
ENDBRANCH  21  24
ENDBRANCH   1  20
TORSDOF 7
ENDMDL
MODEL 10
REMARK VINA RESULT:      -8.8      3.047      9.510
REMARK  7 active torsions:
REMARK  status: ('A' for Active; 'I' for Inactive)
REMARK    1  A    between atoms: C_4  and  N_5 
REMARK    2  A    between atoms: C_11  and  C_12 
REMARK    3  A    between atoms: C_12  and  C_13 
REMARK    4  A    between atoms: C_13  and  C_14 
REMARK       I    between atoms: C_14  and  N_15 
REMARK    5  A    between atoms: N_15  and  C_16 
REMARK    6  A    between atoms: N_19  and  C_21 
REMARK    7  A    between atoms: C_21  and  C_22 
ROOT
HETATM    1  C   UNL     1      43.688 -15.014   6.969  1.00  0.00     0.110 C 
ENDROOT
BRANCH   1   2
HETATM    2  C   UNL     1      42.947 -13.690   6.979  1.00  0.00     0.088 C 
BRANCH   2   3
HETATM    3  C   UNL     1      43.881 -12.528   7.198  1.00  0.00     0.109 A 
HETATM    4  N   UNL     1      43.667 -11.726   8.203  1.00  0.00    -0.215 NA
HETATM    5  C   UNL     1      44.568 -10.704   8.285  1.00  0.00     0.170 A 
HETATM    6  N   UNL     1      44.563  -9.609   9.153  1.00  0.00    -0.215 N 
HETATM    7  C   UNL     1      45.666 -10.530   7.471  1.00  0.00     0.099 A 
HETATM    8  N   UNL     1      45.694  -8.854   8.980  1.00  0.00    -0.177 NA
HETATM    9  C   UNL     1      46.324  -9.398   7.939  1.00  0.00     0.160 A 
HETATM   10  C   UNL     1      45.908 -11.447   6.400  1.00  0.00     0.262 A 
HETATM   11  N   UNL     1      44.936 -12.425   6.315  1.00  0.00    -0.311 N 
HETATM   12  O   UNL     1      46.858 -11.391   5.633  1.00  0.00    -0.267 OA
HETATM   13  H   UNL     1      45.061 -13.076   5.552  1.00  0.00     0.170 HD
BRANCH   6  14
HETATM   14  C   UNL     1      43.585  -9.204  10.113  1.00  0.00     0.060 A 
HETATM   15  C   UNL     1      43.976  -9.038  11.453  1.00  0.00     0.031 A 
HETATM   16  C   UNL     1      43.057  -8.611  12.414  1.00  0.00     0.002 A 
HETATM   17  C   UNL     1      41.741  -8.345  12.049  1.00  0.00     0.000 A 
HETATM   18  C   UNL     1      41.343  -8.503  10.723  1.00  0.00     0.002 A 
HETATM   19  C   UNL     1      42.259  -8.929   9.755  1.00  0.00     0.031 A 
ENDBRANCH   6  14
ENDBRANCH   2   3
ENDBRANCH   1   2
BRANCH   1  20
HETATM   20  C   UNL     1      43.567 -15.901   5.739  1.00  0.00     0.218 C 
HETATM   21  N   UNL     1      42.621 -15.557   4.797  1.00  0.00    -0.356 N 
HETATM   22  H   UNL     1      41.783 -15.125   5.186  1.00  0.00     0.162 HD
HETATM   23  O   UNL     1      44.404 -16.779   5.547  1.00  0.00    -0.274 OA
BRANCH  21  24
HETATM   24  C   UNL     1      42.361 -16.302   3.551  1.00  0.00     0.087 C 
HETATM   25  C   UNL     1      43.220 -15.953   2.332  1.00  0.00     0.053 C 
HETATM   26  C   UNL     1      43.045 -14.503   1.917  1.00  0.00     0.237 C 
HETATM   27  N   UNL     1      41.586 -14.223   1.604  1.00  0.00    -0.067 N 
HETATM   28  H   UNL     1      41.361 -14.752   0.751  1.00  0.00     0.280 HD
HETATM   29  C   UNL     1      40.643 -14.659   2.704  1.00  0.00     0.237 C 
HETATM   30  C   UNL     1      40.900 -16.098   3.140  1.00  0.00     0.053 C 
BRANCH  27  31
HETATM   31  C   UNL     1      41.342 -12.756   1.278  1.00  0.00     0.273 C 
BRANCH  31  32
HETATM   32  C   UNL     1      41.446 -11.817   2.449  1.00  0.00    -0.033 A 
HETATM   33  C   UNL     1      42.688 -11.521   3.029  1.00  0.00     0.010 A 
HETATM   34  C   UNL     1      42.767 -10.648   4.119  1.00  0.00     0.024 A 
HETATM   35  C   UNL     1      41.609 -10.072   4.639  1.00  0.00     0.034 A 
HETATM   36 CL   UNL     1      41.713  -9.000   5.979  1.00  0.00    -0.084 Cl
HETATM   37  C   UNL     1      40.369 -10.360   4.076  1.00  0.00     0.024 A 
HETATM   38  C   UNL     1      40.287 -11.226   2.984  1.00  0.00     0.010 A 
ENDBRANCH  31  32
ENDBRANCH  27  31
ENDBRANCH  21  24
ENDBRANCH   1  20
TORSDOF 7
ENDMDL
