MODEL 1
REMARK VINA RESULT:      -8.8      0.000      0.000
REMARK  3 active torsions:
REMARK  status: ('A' for Active; 'I' for Inactive)
REMARK    1  A    between atoms: C_3  and  N_4 
REMARK    2  A    between atoms: C_10  and  O_11 
REMARK    3  A    between atoms: C_14  and  C_15 
ROOT
HETATM    1  N   UNL     1      43.196 -16.516   3.182  1.00  0.00    -0.212 N 
HETATM    2  N   UNL     1      43.619 -15.803   2.097  1.00  0.00    -0.177 NA
HETATM    3  C   UNL     1      43.251 -14.550   2.342  1.00  0.00     0.152 A 
HETATM    4  C   UNL     1      42.620 -14.395   3.590  1.00  0.00     0.027 A 
HETATM    5  C   UNL     1      42.615 -15.671   4.138  1.00  0.00     0.163 A 
HETATM    6  N   UNL     1      42.231 -16.064   5.381  1.00  0.00    -0.208 NA
HETATM    7  C   UNL     1      41.054 -15.677   5.750  1.00  0.00     0.149 C 
HETATM    8  C   UNL     1      40.044 -14.872   4.979  1.00  0.00     0.161 C 
HETATM    9  S   UNL     1      40.477 -13.107   4.926  1.00  0.00    -0.146 SA
HETATM   10  C   UNL     1      42.180 -13.108   4.210  1.00  0.00     0.124 C 
ENDROOT
BRANCH  10  11
HETATM   11  C   UNL     1      43.207 -12.585   5.193  1.00  0.00     0.028 A 
HETATM   12  C   UNL     1      44.238 -11.669   4.596  1.00  0.00     0.253 A 
HETATM   13  O   UNL     1      44.232 -11.364   3.408  1.00  0.00    -0.268 OA
HETATM   14  N   UNL     1      45.200 -11.185   5.453  1.00  0.00    -0.333 N 
HETATM   15  C   UNL     1      45.261 -11.484   6.787  1.00  0.00     0.091 A 
HETATM   16  H   UNL     1      45.891 -10.574   5.035  1.00  0.00     0.168 HD
HETATM   17  C   UNL     1      44.348 -12.292   7.333  1.00  0.00     0.018 A 
HETATM   18  C   UNL     1      43.300 -12.853   6.511  1.00  0.00     0.015 A 
ENDBRANCH  10  11
BRANCH   1  19
HETATM   19  C   UNL     1      43.414 -17.922   3.204  1.00  0.00     0.099 A 
HETATM   20  C   UNL     1      42.855 -18.706   2.177  1.00  0.00     0.035 A 
HETATM   21  C   UNL     1      43.067 -20.087   2.136  1.00  0.00     0.002 A 
HETATM   22  C   UNL     1      43.824 -20.705   3.126  1.00  0.00     0.003 A 
HETATM   23  C   UNL     1      44.352 -19.942   4.166  1.00  0.00     0.045 A 
HETATM   24  C   UNL     1      44.143 -18.562   4.208  1.00  0.00     0.145 A 
HETATM   25  F   UNL     1      44.580 -17.923   5.299  1.00  0.00    -0.204 F 
ENDBRANCH   1  19
BRANCH   7  26
HETATM   26  O   UNL     1      40.661 -16.030   6.983  1.00  0.00    -0.347 OA
HETATM   27  H   UNL     1      41.078 -15.410   7.606  1.00  0.00     0.219 HD
ENDBRANCH   7  26
TORSDOF 3
ENDMDL
MODEL 2
REMARK VINA RESULT:      -7.9      3.267      4.786
REMARK  3 active torsions:
REMARK  status: ('A' for Active; 'I' for Inactive)
REMARK    1  A    between atoms: C_3  and  N_4 
REMARK    2  A    between atoms: C_10  and  O_11 
REMARK    3  A    between atoms: C_14  and  C_15 
ROOT
HETATM    1  N   UNL     1      41.656 -14.851   4.869  1.00  0.00    -0.212 N 
HETATM    2  N   UNL     1      40.615 -15.092   5.719  1.00  0.00    -0.177 NA
HETATM    3  C   UNL     1      40.275 -13.899   6.196  1.00  0.00     0.152 A 
HETATM    4  C   UNL     1      41.042 -12.852   5.656  1.00  0.00     0.027 A 
HETATM    5  C   UNL     1      41.916 -13.477   4.776  1.00  0.00     0.163 A 
HETATM    6  N   UNL     1      42.794 -12.917   3.902  1.00  0.00    -0.208 NA
HETATM    7  C   UNL     1      43.602 -12.043   4.407  1.00  0.00     0.149 C 
HETATM    8  C   UNL     1      43.716 -11.582   5.835  1.00  0.00     0.161 C 
HETATM    9  S   UNL     1      42.381 -10.434   6.289  1.00  0.00    -0.146 SA
HETATM   10  C   UNL     1      40.848 -11.390   5.901  1.00  0.00     0.124 C 
ENDROOT
BRANCH  10  11
HETATM   11  C   UNL     1      40.043 -10.742   4.794  1.00  0.00     0.028 A 
HETATM   12  C   UNL     1      38.696 -10.226   5.216  1.00  0.00     0.253 A 
HETATM   13  O   UNL     1      38.296 -10.315   6.372  1.00  0.00    -0.268 OA
HETATM   14  N   UNL     1      37.926  -9.645   4.235  1.00  0.00    -0.333 N 
HETATM   15  C   UNL     1      38.314  -9.513   2.930  1.00  0.00     0.091 A 
HETATM   16  H   UNL     1      37.019  -9.307   4.533  1.00  0.00     0.168 HD
HETATM   17  C   UNL     1      39.512  -9.961   2.541  1.00  0.00     0.018 A 
HETATM   18  C   UNL     1      40.391 -10.590   3.500  1.00  0.00     0.015 A 
ENDBRANCH  10  11
BRANCH   1  19
HETATM   19  C   UNL     1      42.275 -15.954   4.216  1.00  0.00     0.099 A 
HETATM   20  C   UNL     1      43.391 -16.557   4.826  1.00  0.00     0.035 A 
HETATM   21  C   UNL     1      44.014 -17.663   4.241  1.00  0.00     0.002 A 
HETATM   22  C   UNL     1      43.544 -18.170   3.033  1.00  0.00     0.003 A 
HETATM   23  C   UNL     1      42.462 -17.557   2.404  1.00  0.00     0.045 A 
HETATM   24  C   UNL     1      41.836 -16.453   2.989  1.00  0.00     0.145 A 
HETATM   25  F   UNL     1      40.885 -15.852   2.264  1.00  0.00    -0.204 F 
ENDBRANCH   1  19
BRANCH   7  26
HETATM   26  O   UNL     1      44.462 -11.456   3.562  1.00  0.00    -0.347 OA
HETATM   27  H   UNL     1      44.587 -10.541   3.868  1.00  0.00     0.219 HD
ENDBRANCH   7  26
TORSDOF 3
ENDMDL
MODEL 3
REMARK VINA RESULT:      -7.6      4.071      5.679
REMARK  3 active torsions:
REMARK  status: ('A' for Active; 'I' for Inactive)
REMARK    1  A    between atoms: C_3  and  N_4 
REMARK    2  A    between atoms: C_10  and  O_11 
REMARK    3  A    between atoms: C_14  and  C_15 
ROOT
HETATM    1  N   UNL     1      40.205 -13.124   1.028  1.00  0.00    -0.212 N 
HETATM    2  N   UNL     1      39.092 -12.565   1.588  1.00  0.00    -0.177 NA
HETATM    3  C   UNL     1      39.111 -12.954   2.858  1.00  0.00     0.152 A 
HETATM    4  C   UNL     1      40.236 -13.735   3.178  1.00  0.00     0.027 A 
HETATM    5  C   UNL     1      40.953 -13.816   1.992  1.00  0.00     0.163 A 
HETATM    6  N   UNL     1      42.182 -14.354   1.772  1.00  0.00    -0.208 NA
HETATM    7  C   UNL     1      42.344 -15.565   2.192  1.00  0.00     0.149 C 
HETATM    8  C   UNL     1      41.347 -16.467   2.868  1.00  0.00     0.161 C 
HETATM    9  S   UNL     1      41.102 -16.021   4.614  1.00  0.00    -0.146 SA
HETATM   10  C   UNL     1      40.610 -14.242   4.534  1.00  0.00     0.124 C 
ENDROOT
BRANCH  10  11
HETATM   11  C   UNL     1      41.630 -13.343   5.202  1.00  0.00     0.028 A 
HETATM   12  C   UNL     1      41.043 -12.251   6.053  1.00  0.00     0.253 A 
HETATM   13  O   UNL     1      39.833 -12.117   6.199  1.00  0.00    -0.268 OA
HETATM   14  N   UNL     1      41.937 -11.402   6.663  1.00  0.00    -0.333 N 
HETATM   15  C   UNL     1      43.296 -11.500   6.544  1.00  0.00     0.091 A 
HETATM   16  H   UNL     1      41.527 -10.669   7.229  1.00  0.00     0.168 HD
HETATM   17  C   UNL     1      43.833 -12.469   5.795  1.00  0.00     0.018 A 
HETATM   18  C   UNL     1      42.974 -13.408   5.111  1.00  0.00     0.015 A 
ENDBRANCH  10  11
BRANCH   1  19
HETATM   19  C   UNL     1      40.451 -12.918  -0.358  1.00  0.00     0.099 A 
HETATM   20  C   UNL     1      40.104 -13.939  -1.262  1.00  0.00     0.035 A 
HETATM   21  C   UNL     1      40.295 -13.772  -2.637  1.00  0.00     0.002 A 
HETATM   22  C   UNL     1      40.852 -12.594  -3.125  1.00  0.00     0.003 A 
HETATM   23  C   UNL     1      41.233 -11.592  -2.234  1.00  0.00     0.045 A 
HETATM   24  C   UNL     1      41.039 -11.756  -0.860  1.00  0.00     0.145 A 
HETATM   25  F   UNL     1      41.540 -10.801  -0.067  1.00  0.00    -0.204 F 
ENDBRANCH   1  19
BRANCH   7  26
HETATM   26  O   UNL     1      43.555 -16.111   2.010  1.00  0.00    -0.347 OA
HETATM   27  H   UNL     1      43.998 -16.123   2.877  1.00  0.00     0.219 HD
ENDBRANCH   7  26
TORSDOF 3
ENDMDL
MODEL 4
REMARK VINA RESULT:      -7.5      2.915      3.720
REMARK  3 active torsions:
REMARK  status: ('A' for Active; 'I' for Inactive)
REMARK    1  A    between atoms: C_3  and  N_4 
REMARK    2  A    between atoms: C_10  and  O_11 
REMARK    3  A    between atoms: C_14  and  C_15 
ROOT
HETATM    1  N   UNL     1      41.574 -16.123   3.348  1.00  0.00    -0.212 N 
HETATM    2  N   UNL     1      40.630 -16.462   2.422  1.00  0.00    -0.177 NA
HETATM    3  C   UNL     1      39.829 -15.405   2.339  1.00  0.00     0.152 A 
HETATM    4  C   UNL     1      40.236 -14.342   3.166  1.00  0.00     0.027 A 
HETATM    5  C   UNL     1      41.384 -14.808   3.794  1.00  0.00     0.163 A 
HETATM    6  N   UNL     1      42.244 -14.138   4.606  1.00  0.00    -0.208 NA
HETATM    7  C   UNL     1      41.702 -13.517   5.602  1.00  0.00     0.149 C 
HETATM    8  C   UNL     1      40.252 -13.458   5.996  1.00  0.00     0.161 C 
HETATM    9  S   UNL     1      39.303 -12.330   4.931  1.00  0.00    -0.146 SA
HETATM   10  C   UNL     1      39.620 -12.982   3.232  1.00  0.00     0.124 C 
ENDROOT
BRANCH  10  11
HETATM   11  C   UNL     1      40.376 -11.986   2.376  1.00  0.00     0.028 A 
HETATM   12  C   UNL     1      39.868 -11.855   0.968  1.00  0.00     0.253 A 
HETATM   13  O   UNL     1      38.907 -12.498   0.558  1.00  0.00    -0.268 OA
HETATM   14  N   UNL     1      40.538 -10.973   0.153  1.00  0.00    -0.333 N 
HETATM   15  C   UNL     1      41.613 -10.225   0.549  1.00  0.00     0.091 A 
HETATM   16  H   UNL     1      40.188 -10.899  -0.794  1.00  0.00     0.168 HD
HETATM   17  C   UNL     1      42.072 -10.326   1.801  1.00  0.00     0.018 A 
HETATM   18  C   UNL     1      41.434 -11.230   2.730  1.00  0.00     0.015 A 
ENDBRANCH  10  11
BRANCH   1  19
HETATM   19  C   UNL     1      42.571 -17.079   3.690  1.00  0.00     0.099 A 
HETATM   20  C   UNL     1      43.242 -17.752   2.651  1.00  0.00     0.035 A 
HETATM   21  C   UNL     1      44.252 -18.676   2.933  1.00  0.00     0.002 A 
HETATM   22  C   UNL     1      44.593 -18.953   4.254  1.00  0.00     0.003 A 
HETATM   23  C   UNL     1      43.910 -18.318   5.289  1.00  0.00     0.045 A 
HETATM   24  C   UNL     1      42.902 -17.393   5.009  1.00  0.00     0.145 A 
HETATM   25  F   UNL     1      42.216 -16.919   6.056  1.00  0.00    -0.204 F 
ENDBRANCH   1  19
BRANCH   7  26
HETATM   26  O   UNL     1      42.527 -12.827   6.404  1.00  0.00    -0.347 OA
HETATM   27  H   UNL     1      42.385 -11.883   6.217  1.00  0.00     0.219 HD
ENDBRANCH   7  26
TORSDOF 3
ENDMDL
MODEL 5
REMARK VINA RESULT:      -7.5      3.445      4.917
REMARK  3 active torsions:
REMARK  status: ('A' for Active; 'I' for Inactive)
REMARK    1  A    between atoms: C_3  and  N_4 
REMARK    2  A    between atoms: C_10  and  O_11 
REMARK    3  A    between atoms: C_14  and  C_15 
ROOT
HETATM    1  N   UNL     1      41.514 -14.832   3.200  1.00  0.00    -0.212 N 
HETATM    2  N   UNL     1      40.158 -14.989   3.235  1.00  0.00    -0.177 NA
HETATM    3  C   UNL     1      39.664 -13.758   3.164  1.00  0.00     0.152 A 
HETATM    4  C   UNL     1      40.661 -12.772   3.043  1.00  0.00     0.027 A 
HETATM    5  C   UNL     1      41.855 -13.482   3.040  1.00  0.00     0.163 A 
HETATM    6  N   UNL     1      43.118 -13.027   2.827  1.00  0.00    -0.208 NA
HETATM    7  C   UNL     1      43.479 -12.022   3.555  1.00  0.00     0.149 C 
HETATM    8  C   UNL     1      42.698 -11.306   4.623  1.00  0.00     0.161 C 
HETATM    9  S   UNL     1      41.445 -10.192   3.918  1.00  0.00    -0.146 SA
HETATM   10  C   UNL     1      40.443 -11.307   2.840  1.00  0.00     0.124 C 
ENDROOT
BRANCH  10  11
HETATM   11  C   UNL     1      40.552 -10.928   1.377  1.00  0.00     0.028 A 
HETATM   12  C   UNL     1      39.272 -11.050   0.599  1.00  0.00     0.253 A 
HETATM   13  O   UNL     1      38.224 -11.417   1.120  1.00  0.00    -0.268 OA
HETATM   14  N   UNL     1      39.333 -10.730  -0.738  1.00  0.00    -0.333 N 
HETATM   15  C   UNL     1      40.468 -10.313  -1.378  1.00  0.00     0.091 A 
HETATM   16  H   UNL     1      38.465 -10.823  -1.250  1.00  0.00     0.168 HD
HETATM   17  C   UNL     1      41.613 -10.193  -0.697  1.00  0.00     0.018 A 
HETATM   18  C   UNL     1      41.648 -10.510   0.712  1.00  0.00     0.015 A 
ENDBRANCH  10  11
BRANCH   1  19
HETATM   19  C   UNL     1      42.339 -15.988   3.296  1.00  0.00     0.099 A 
HETATM   20  C   UNL     1      42.254 -16.961   2.283  1.00  0.00     0.035 A 
HETATM   21  C   UNL     1      43.066 -18.098   2.314  1.00  0.00     0.002 A 
HETATM   22  C   UNL     1      43.959 -18.288   3.365  1.00  0.00     0.003 A 
HETATM   23  C   UNL     1      44.024 -17.347   4.391  1.00  0.00     0.045 A 
HETATM   24  C   UNL     1      43.215 -16.209   4.360  1.00  0.00     0.145 A 
HETATM   25  F   UNL     1      43.252 -15.419   5.439  1.00  0.00    -0.204 F 
ENDBRANCH   1  19
BRANCH   7  26
HETATM   26  O   UNL     1      44.712 -11.537   3.347  1.00  0.00    -0.347 OA
HETATM   27  H   UNL     1      45.036 -11.925   2.515  1.00  0.00     0.219 HD
ENDBRANCH   7  26
TORSDOF 3
ENDMDL
MODEL 6
REMARK VINA RESULT:      -7.4      3.625      5.404
REMARK  3 active torsions:
REMARK  status: ('A' for Active; 'I' for Inactive)
REMARK    1  A    between atoms: C_3  and  N_4 
REMARK    2  A    between atoms: C_10  and  O_11 
REMARK    3  A    between atoms: C_14  and  C_15 
ROOT
HETATM    1  N   UNL     1      41.597 -15.874   2.456  1.00  0.00    -0.212 N 
HETATM    2  N   UNL     1      40.441 -16.497   2.079  1.00  0.00    -0.177 NA
HETATM    3  C   UNL     1      39.676 -15.534   1.577  1.00  0.00     0.152 A 
HETATM    4  C   UNL     1      40.307 -14.277   1.573  1.00  0.00     0.027 A 
HETATM    5  C   UNL     1      41.562 -14.514   2.119  1.00  0.00     0.163 A 
HETATM    6  N   UNL     1      42.617 -13.664   2.235  1.00  0.00    -0.208 NA
HETATM    7  C   UNL     1      42.360 -12.530   2.797  1.00  0.00     0.149 C 
HETATM    8  C   UNL     1      41.057 -12.034   3.362  1.00  0.00     0.161 C 
HETATM    9  S   UNL     1      39.903 -11.512   2.057  1.00  0.00    -0.146 SA
HETATM   10  C   UNL     1      39.766 -13.012   0.987  1.00  0.00     0.124 C 
ENDROOT
BRANCH  10  11
HETATM   11  C   UNL     1      40.311 -12.767  -0.405  1.00  0.00     0.028 A 
HETATM   12  C   UNL     1      39.828 -13.734  -1.448  1.00  0.00     0.253 A 
HETATM   13  O   UNL     1      39.044 -14.640  -1.186  1.00  0.00    -0.268 OA
HETATM   14  N   UNL     1      40.314 -13.555  -2.723  1.00  0.00    -0.333 N 
HETATM   15  C   UNL     1      41.187 -12.564  -3.081  1.00  0.00     0.091 A 
HETATM   16  H   UNL     1      39.984 -14.218  -3.414  1.00  0.00     0.168 HD
HETATM   17  C   UNL     1      41.620 -11.692  -2.166  1.00  0.00     0.018 A 
HETATM   18  C   UNL     1      41.168 -11.802  -0.798  1.00  0.00     0.015 A 
ENDBRANCH  10  11
BRANCH   1  19
HETATM   19  C   UNL     1      42.621 -16.647   3.072  1.00  0.00     0.099 A 
HETATM   20  C   UNL     1      43.086 -17.798   2.409  1.00  0.00     0.035 A 
HETATM   21  C   UNL     1      44.113 -18.573   2.957  1.00  0.00     0.002 A 
HETATM   22  C   UNL     1      44.675 -18.220   4.180  1.00  0.00     0.003 A 
HETATM   23  C   UNL     1      44.196 -17.102   4.860  1.00  0.00     0.045 A 
HETATM   24  C   UNL     1      43.172 -16.325   4.313  1.00  0.00     0.145 A 
HETATM   25  F   UNL     1      42.690 -15.342   5.083  1.00  0.00    -0.204 F 
ENDBRANCH   1  19
BRANCH   7  26
HETATM   26  O   UNL     1      43.378 -11.663   2.901  1.00  0.00    -0.347 OA
HETATM   27  H   UNL     1      43.580 -11.569   3.848  1.00  0.00     0.219 HD
ENDBRANCH   7  26
TORSDOF 3
ENDMDL
MODEL 7
REMARK VINA RESULT:      -7.4      7.314     10.015
REMARK  3 active torsions:
REMARK  status: ('A' for Active; 'I' for Inactive)
REMARK    1  A    between atoms: C_3  and  N_4 
REMARK    2  A    between atoms: C_10  and  O_11 
REMARK    3  A    between atoms: C_14  and  C_15 
ROOT
HETATM    1  N   UNL     1      43.130  -8.254   9.419  1.00  0.00    -0.212 N 
HETATM    2  N   UNL     1      43.581  -6.969   9.324  1.00  0.00    -0.177 NA
HETATM    3  C   UNL     1      42.753  -6.255  10.079  1.00  0.00     0.152 A 
HETATM    4  C   UNL     1      41.772  -7.040  10.713  1.00  0.00     0.027 A 
HETATM    5  C   UNL     1      42.043  -8.337  10.300  1.00  0.00     0.163 A 
HETATM    6  N   UNL     1      41.472  -9.501  10.710  1.00  0.00    -0.208 NA
HETATM    7  C   UNL     1      40.181  -9.535  10.661  1.00  0.00     0.149 C 
HETATM    8  C   UNL     1      39.229  -8.471  10.188  1.00  0.00     0.161 C 
HETATM    9  S   UNL     1      39.027  -7.144  11.415  1.00  0.00    -0.146 SA
HETATM   10  C   UNL     1      40.758  -6.565  11.703  1.00  0.00     0.124 C 
ENDROOT
BRANCH  10  11
HETATM   11  C   UNL     1      41.210  -6.820  13.126  1.00  0.00     0.028 A 
HETATM   12  C   UNL     1      41.936  -5.673  13.770  1.00  0.00     0.253 A 
HETATM   13  O   UNL     1      42.131  -4.612  13.185  1.00  0.00    -0.268 OA
HETATM   14  N   UNL     1      42.378  -5.871  15.058  1.00  0.00    -0.333 N 
HETATM   15  C   UNL     1      42.191  -7.026  15.766  1.00  0.00     0.091 A 
HETATM   16  H   UNL     1      42.871  -5.091  15.476  1.00  0.00     0.168 HD
HETATM   17  C   UNL     1      41.542  -8.053  15.209  1.00  0.00     0.018 A 
HETATM   18  C   UNL     1      41.043  -7.941  13.858  1.00  0.00     0.015 A 
ENDBRANCH  10  11
BRANCH   1  19
HETATM   19  C   UNL     1      43.800  -9.270   8.680  1.00  0.00     0.099 A 
HETATM   20  C   UNL     1      43.121  -9.881   7.609  1.00  0.00     0.035 A 
HETATM   21  C   UNL     1      43.747 -10.861   6.832  1.00  0.00     0.002 A 
HETATM   22  C   UNL     1      45.048 -11.256   7.126  1.00  0.00     0.003 A 
HETATM   23  C   UNL     1      45.715 -10.682   8.207  1.00  0.00     0.045 A 
HETATM   24  C   UNL     1      45.093  -9.701   8.982  1.00  0.00     0.145 A 
HETATM   25  F   UNL     1      45.754  -9.289  10.070  1.00  0.00    -0.204 F 
ENDBRANCH   1  19
BRANCH   7  26
HETATM   26  O   UNL     1      39.591 -10.663  11.085  1.00  0.00    -0.347 OA
HETATM   27  H   UNL     1      39.139 -10.454  11.921  1.00  0.00     0.219 HD
ENDBRANCH   7  26
TORSDOF 3
ENDMDL
MODEL 8
REMARK VINA RESULT:      -7.3      6.838      9.374
REMARK  3 active torsions:
REMARK  status: ('A' for Active; 'I' for Inactive)
REMARK    1  A    between atoms: C_3  and  N_4 
REMARK    2  A    between atoms: C_10  and  O_11 
REMARK    3  A    between atoms: C_14  and  C_15 
ROOT
HETATM    1  N   UNL     1      40.669  -9.555  -1.260  1.00  0.00    -0.212 N 
HETATM    2  N   UNL     1      39.758  -9.084  -0.358  1.00  0.00    -0.177 NA
HETATM    3  C   UNL     1      39.076 -10.153   0.037  1.00  0.00     0.152 A 
HETATM    4  C   UNL     1      39.533 -11.345  -0.554  1.00  0.00     0.027 A 
HETATM    5  C   UNL     1      40.584 -10.950  -1.371  1.00  0.00     0.163 A 
HETATM    6  N   UNL     1      41.452 -11.720  -2.078  1.00  0.00    -0.208 NA
HETATM    7  C   UNL     1      40.911 -12.603  -2.852  1.00  0.00     0.149 C 
HETATM    8  C   UNL     1      39.451 -12.874  -3.094  1.00  0.00     0.161 C 
HETATM    9  S   UNL     1      38.692 -13.790  -1.718  1.00  0.00    -0.146 SA
HETATM   10  C   UNL     1      39.053 -12.728  -0.250  1.00  0.00     0.124 C 
ENDROOT
BRANCH  10  11
HETATM   11  C   UNL     1      39.960 -13.425   0.743  1.00  0.00     0.028 A 
HETATM   12  C   UNL     1      39.586 -13.223   2.185  1.00  0.00     0.253 A 
HETATM   13  O   UNL     1      38.613 -12.555   2.520  1.00  0.00    -0.268 OA
HETATM   14  N   UNL     1      40.396 -13.827   3.119  1.00  0.00    -0.333 N 
HETATM   15  C   UNL     1      41.492 -14.585   2.812  1.00  0.00     0.091 A 
HETATM   16  H   UNL     1      40.135 -13.677   4.086  1.00  0.00     0.168 HD
HETATM   17  C   UNL     1      41.833 -14.780   1.534  1.00  0.00     0.018 A 
HETATM   18  C   UNL     1      41.044 -14.182   0.481  1.00  0.00     0.015 A 
ENDBRANCH  10  11
BRANCH   1  19
HETATM   19  C   UNL     1      41.541  -8.629  -1.899  1.00  0.00     0.099 A 
HETATM   20  C   UNL     1      42.506  -7.966  -1.118  1.00  0.00     0.035 A 
HETATM   21  C   UNL     1      43.407  -7.072  -1.704  1.00  0.00     0.002 A 
HETATM   22  C   UNL     1      43.345  -6.815  -3.071  1.00  0.00     0.003 A 
HETATM   23  C   UNL     1      42.369  -7.440  -3.844  1.00  0.00     0.045 A 
HETATM   24  C   UNL     1      41.470  -8.335  -3.261  1.00  0.00     0.145 A 
HETATM   25  F   UNL     1      40.491  -8.799  -4.048  1.00  0.00    -0.204 F 
ENDBRANCH   1  19
BRANCH   7  26
HETATM   26  O   UNL     1      41.746 -13.394  -3.542  1.00  0.00    -0.347 OA
HETATM   27  H   UNL     1      42.274 -12.817  -4.122  1.00  0.00     0.219 HD
ENDBRANCH   7  26
TORSDOF 3
ENDMDL
MODEL 9
REMARK VINA RESULT:      -7.1      3.243      4.221
REMARK  3 active torsions:
REMARK  status: ('A' for Active; 'I' for Inactive)
REMARK    1  A    between atoms: C_3  and  N_4 
REMARK    2  A    between atoms: C_10  and  O_11 
REMARK    3  A    between atoms: C_14  and  C_15 
ROOT
HETATM    1  N   UNL     1      43.283 -14.067   5.901  1.00  0.00    -0.212 N 
HETATM    2  N   UNL     1      44.334 -13.362   6.414  1.00  0.00    -0.177 NA
HETATM    3  C   UNL     1      43.990 -12.086   6.288  1.00  0.00     0.152 A 
HETATM    4  C   UNL     1      42.708 -11.914   5.734  1.00  0.00     0.027 A 
HETATM    5  C   UNL     1      42.248 -13.205   5.513  1.00  0.00     0.163 A 
HETATM    6  N   UNL     1      41.018 -13.614   5.101  1.00  0.00    -0.208 NA
HETATM    7  C   UNL     1      40.574 -13.050   4.027  1.00  0.00     0.149 C 
HETATM    8  C   UNL     1      41.245 -12.022   3.157  1.00  0.00     0.161 C 
HETATM    9  S   UNL     1      41.197 -10.364   3.903  1.00  0.00    -0.146 SA
HETATM   10  C   UNL     1      41.984 -10.618   5.555  1.00  0.00     0.124 C 
ENDROOT
BRANCH  10  11
HETATM   11  C   UNL     1      41.014 -10.362   6.689  1.00  0.00     0.028 A 
HETATM   12  C   UNL     1      41.583  -9.581   7.839  1.00  0.00     0.253 A 
HETATM   13  O   UNL     1      42.741  -9.174   7.843  1.00  0.00    -0.268 OA
HETATM   14  N   UNL     1      40.738  -9.342   8.898  1.00  0.00    -0.333 N 
HETATM   15  C   UNL     1      39.438  -9.764   8.955  1.00  0.00     0.091 A 
HETATM   16  H   UNL     1      41.138  -8.819   9.668  1.00  0.00     0.168 HD
HETATM   17  C   UNL     1      38.915 -10.455   7.937  1.00  0.00     0.018 A 
HETATM   18  C   UNL     1      39.728 -10.758   6.781  1.00  0.00     0.015 A 
ENDBRANCH  10  11
BRANCH   1  19
HETATM   19  C   UNL     1      43.365 -15.487   5.860  1.00  0.00     0.099 A 
HETATM   20  C   UNL     1      43.388 -16.194   7.077  1.00  0.00     0.035 A 
HETATM   21  C   UNL     1      43.436 -17.592   7.091  1.00  0.00     0.002 A 
HETATM   22  C   UNL     1      43.480 -18.299   5.893  1.00  0.00     0.003 A 
HETATM   23  C   UNL     1      43.494 -17.605   4.685  1.00  0.00     0.045 A 
HETATM   24  C   UNL     1      43.443 -16.210   4.669  1.00  0.00     0.145 A 
HETATM   25  F   UNL     1      43.582 -15.619   3.476  1.00  0.00    -0.204 F 
ENDBRANCH   1  19
BRANCH   7  26
HETATM   26  O   UNL     1      39.352 -13.417   3.613  1.00  0.00    -0.347 OA
HETATM   27  H   UNL     1      38.746 -13.296   4.365  1.00  0.00     0.219 HD
ENDBRANCH   7  26
TORSDOF 3
ENDMDL
MODEL 10
REMARK VINA RESULT:      -7.1      7.801     11.125
REMARK  3 active torsions:
REMARK  status: ('A' for Active; 'I' for Inactive)
REMARK    1  A    between atoms: C_3  and  N_4 
REMARK    2  A    between atoms: C_10  and  O_11 
REMARK    3  A    between atoms: C_14  and  C_15 
ROOT
HETATM    1  N   UNL     1      42.371  -6.940  11.665  1.00  0.00    -0.212 N 
HETATM    2  N   UNL     1      42.485  -5.718  11.066  1.00  0.00    -0.177 NA
HETATM    3  C   UNL     1      42.988  -5.967   9.862  1.00  0.00     0.152 A 
HETATM    4  C   UNL     1      43.182  -7.340   9.621  1.00  0.00     0.027 A 
HETATM    5  C   UNL     1      42.753  -7.963  10.786  1.00  0.00     0.163 A 
HETATM    6  N   UNL     1      42.614  -9.290  11.042  1.00  0.00    -0.208 NA
HETATM    7  C   UNL     1      43.651 -10.019  10.790  1.00  0.00     0.149 C 
HETATM    8  C   UNL     1      44.998  -9.591  10.275  1.00  0.00     0.161 C 
HETATM    9  S   UNL     1      44.964  -9.235   8.492  1.00  0.00    -0.146 SA
HETATM   10  C   UNL     1      43.634  -7.962   8.339  1.00  0.00     0.124 C 
ENDROOT
BRANCH  10  11
HETATM   11  C   UNL     1      42.461  -8.465   7.523  1.00  0.00     0.028 A 
HETATM   12  C   UNL     1      41.863  -7.449   6.590  1.00  0.00     0.253 A 
HETATM   13  O   UNL     1      42.307  -6.309   6.495  1.00  0.00    -0.268 OA
HETATM   14  N   UNL     1      40.785  -7.862   5.842  1.00  0.00    -0.333 N 
HETATM   15  C   UNL     1      40.245  -9.118   5.899  1.00  0.00     0.091 A 
HETATM   16  H   UNL     1      40.390  -7.165   5.222  1.00  0.00     0.168 HD
HETATM   17  C   UNL     1      40.770 -10.034   6.719  1.00  0.00     0.018 A 
HETATM   18  C   UNL     1      41.904  -9.692   7.547  1.00  0.00     0.015 A 
ENDBRANCH  10  11
BRANCH   1  19
HETATM   19  C   UNL     1      41.885  -7.004  13.001  1.00  0.00     0.099 A 
HETATM   20  C   UNL     1      40.504  -6.850  13.223  1.00  0.00     0.035 A 
HETATM   21  C   UNL     1      39.973  -6.938  14.513  1.00  0.00     0.002 A 
HETATM   22  C   UNL     1      40.815  -7.161  15.599  1.00  0.00     0.003 A 
HETATM   23  C   UNL     1      42.188  -7.279  15.393  1.00  0.00     0.045 A 
HETATM   24  C   UNL     1      42.719  -7.195  14.104  1.00  0.00     0.145 A 
HETATM   25  F   UNL     1      44.054  -7.198  14.006  1.00  0.00    -0.204 F 
ENDBRANCH   1  19
BRANCH   7  26
HETATM   26  O   UNL     1      43.531 -11.337  11.010  1.00  0.00    -0.347 OA
HETATM   27  H   UNL     1      43.357 -11.757  10.150  1.00  0.00     0.219 HD
ENDBRANCH   7  26
TORSDOF 3
ENDMDL
