MODEL 1
REMARK VINA RESULT:      -9.3      0.000      0.000
REMARK  5 active torsions:
REMARK  status: ('A' for Active; 'I' for Inactive)
REMARK    1  A    between atoms: O_2  and  C_3 
REMARK    2  A    between atoms: C_4  and  C_5 
REMARK    3  A    between atoms: C_9  and  N_10 
REMARK       I    between atoms: N_10  and  C_11 
REMARK    4  A    between atoms: C_11  and  C_12 
REMARK    5  A    between atoms: C_12  and  C_13 
ROOT
HETATM    1  C   UNL     1      40.188 -14.200   1.210  1.00  0.00     0.093 A 
HETATM    2  N   UNL     1      39.442 -13.698   2.207  1.00  0.00    -0.172 NA
HETATM    3  N   UNL     1      39.854 -14.364   3.299  1.00  0.00    -0.262 N 
HETATM    4  H   UNL     1      39.421 -14.172   4.200  1.00  0.00     0.191 HD
HETATM    5  C   UNL     1      40.876 -15.242   3.056  1.00  0.00     0.126 A 
HETATM    6  C   UNL     1      41.111 -15.165   1.705  1.00  0.00     0.084 A 
ENDROOT
BRANCH   5   7
HETATM    7  N   UNL     1      41.500 -16.004   4.021  1.00  0.00    -0.311 N 
HETATM    8  C   UNL     1      42.868 -15.968   4.205  1.00  0.00     0.236 C 
HETATM    9  O   UNL     1      43.655 -15.262   3.580  1.00  0.00    -0.272 OA
HETATM   10  H   UNL     1      40.938 -16.623   4.592  1.00  0.00     0.170 HD
BRANCH   8  11
HETATM   11  C   UNL     1      43.373 -16.918   5.263  1.00  0.00     0.068 A 
HETATM   12  C   UNL     1      44.406 -16.368   6.245  1.00  0.00     0.026 A 
HETATM   13  C   UNL     1      43.017 -16.638   6.722  1.00  0.00     0.026 A 
BRANCH  11  14
HETATM   14  C   UNL     1      43.559 -18.363   4.808  1.00  0.00    -0.039 A 
HETATM   15  C   UNL     1      43.575 -18.722   3.449  1.00  0.00     0.032 A 
HETATM   16  C   UNL     1      43.762 -20.050   3.056  1.00  0.00     0.034 A 
HETATM   17 CL   UNL     1      43.769 -20.449   1.382  1.00  0.00    -0.084 Cl
HETATM   18  C   UNL     1      43.944 -21.050   4.006  1.00  0.00     0.024 A 
HETATM   19  C   UNL     1      43.940 -20.720   5.358  1.00  0.00     0.002 A 
HETATM   20  C   UNL     1      43.750 -19.393   5.749  1.00  0.00     0.008 A 
ENDBRANCH  11  14
ENDBRANCH   8  11
ENDBRANCH   5   7
BRANCH   1  21
HETATM   21  C   UNL     1      40.066 -13.728  -0.169  1.00  0.00     0.029 A 
HETATM   22  C   UNL     1      40.629 -12.518  -0.609  1.00  0.00     0.081 A 
HETATM   23  C   UNL     1      40.467 -12.093  -1.933  1.00  0.00     0.039 A 
HETATM   24  C   UNL     1      39.767 -12.887  -2.840  1.00  0.00     0.026 A 
HETATM   25  C   UNL     1      39.219 -14.095  -2.416  1.00  0.00     0.035 A 
HETATM   26  C   UNL     1      39.361 -14.517  -1.093  1.00  0.00     0.040 A 
HETATM   27 CL   UNL     1      38.346 -15.073  -3.532  1.00  0.00    -0.084 Cl
BRANCH  22  28
HETATM   28  O   UNL     1      41.258 -11.672   0.269  1.00  0.00    -0.355 OA
HETATM   29  C   UNL     1      41.366 -10.363  -0.293  1.00  0.00     0.210 C 
ENDBRANCH  22  28
ENDBRANCH   1  21
TORSDOF 5
ENDMDL
MODEL 2
REMARK VINA RESULT:      -8.8      5.978      8.679
REMARK  5 active torsions:
REMARK  status: ('A' for Active; 'I' for Inactive)
REMARK    1  A    between atoms: O_2  and  C_3 
REMARK    2  A    between atoms: C_4  and  C_5 
REMARK    3  A    between atoms: C_9  and  N_10 
REMARK       I    between atoms: N_10  and  C_11 
REMARK    4  A    between atoms: C_11  and  C_12 
REMARK    5  A    between atoms: C_12  and  C_13 
ROOT
HETATM    1  C   UNL     1      42.972 -14.883   5.492  1.00  0.00     0.093 A 
HETATM    2  N   UNL     1      41.772 -14.289   5.584  1.00  0.00    -0.172 NA
HETATM    3  N   UNL     1      41.950 -13.316   6.495  1.00  0.00    -0.262 N 
HETATM    4  H   UNL     1      41.167 -12.722   6.757  1.00  0.00     0.191 HD
HETATM    5  C   UNL     1      43.235 -13.225   6.958  1.00  0.00     0.126 A 
HETATM    6  C   UNL     1      43.923 -14.235   6.332  1.00  0.00     0.084 A 
ENDROOT
BRANCH   5   7
HETATM    7  N   UNL     1      43.676 -12.279   7.859  1.00  0.00    -0.311 N 
HETATM    8  C   UNL     1      43.695 -10.932   7.550  1.00  0.00     0.236 C 
HETATM    9  O   UNL     1      43.311 -10.435   6.495  1.00  0.00    -0.272 OA
HETATM   10  H   UNL     1      44.017 -12.586   8.761  1.00  0.00     0.170 HD
BRANCH   8  11
HETATM   11  C   UNL     1      44.271 -10.059   8.637  1.00  0.00     0.068 A 
HETATM   12  C   UNL     1      45.791 -10.065   8.793  1.00  0.00     0.026 A 
HETATM   13  C   UNL     1      45.119  -8.855   8.232  1.00  0.00     0.026 A 
BRANCH  11  14
HETATM   14  C   UNL     1      43.449  -9.990   9.923  1.00  0.00    -0.039 A 
HETATM   15  C   UNL     1      42.221  -9.310   9.989  1.00  0.00     0.032 A 
HETATM   16  C   UNL     1      41.479  -9.274  11.172  1.00  0.00     0.034 A 
HETATM   17 CL   UNL     1      39.984  -8.424  11.212  1.00  0.00    -0.084 Cl
HETATM   18  C   UNL     1      41.939  -9.920  12.315  1.00  0.00     0.024 A 
HETATM   19  C   UNL     1      43.148 -10.607  12.275  1.00  0.00     0.002 A 
HETATM   20  C   UNL     1      43.890 -10.640  11.091  1.00  0.00     0.008 A 
ENDBRANCH  11  14
ENDBRANCH   8  11
ENDBRANCH   5   7
BRANCH   1  21
HETATM   21  C   UNL     1      43.222 -16.000   4.583  1.00  0.00     0.029 A 
HETATM   22  C   UNL     1      43.127 -15.878   3.186  1.00  0.00     0.081 A 
HETATM   23  C   UNL     1      43.351 -16.981   2.354  1.00  0.00     0.039 A 
HETATM   24  C   UNL     1      43.703 -18.212   2.906  1.00  0.00     0.026 A 
HETATM   25  C   UNL     1      43.813 -18.338   4.289  1.00  0.00     0.035 A 
HETATM   26  C   UNL     1      43.574 -17.247   5.126  1.00  0.00     0.040 A 
HETATM   27 CL   UNL     1      44.238 -19.859   4.974  1.00  0.00    -0.084 Cl
BRANCH  22  28
HETATM   28  O   UNL     1      42.710 -14.706   2.608  1.00  0.00    -0.355 OA
HETATM   29  C   UNL     1      41.476 -14.904   1.916  1.00  0.00     0.210 C 
ENDBRANCH  22  28
ENDBRANCH   1  21
TORSDOF 5
ENDMDL
MODEL 3
REMARK VINA RESULT:      -8.8      5.393      7.526
REMARK  5 active torsions:
REMARK  status: ('A' for Active; 'I' for Inactive)
REMARK    1  A    between atoms: O_2  and  C_3 
REMARK    2  A    between atoms: C_4  and  C_5 
REMARK    3  A    between atoms: C_9  and  N_10 
REMARK       I    between atoms: N_10  and  C_11 
REMARK    4  A    between atoms: C_11  and  C_12 
REMARK    5  A    between atoms: C_12  and  C_13 
ROOT
HETATM    1  C   UNL     1      42.978 -11.094   6.623  1.00  0.00     0.093 A 
HETATM    2  N   UNL     1      42.896 -10.498   5.422  1.00  0.00    -0.172 NA
HETATM    3  N   UNL     1      42.616 -11.499   4.571  1.00  0.00    -0.262 N 
HETATM    4  H   UNL     1      42.517 -11.304   3.578  1.00  0.00     0.191 HD
HETATM    5  C   UNL     1      42.460 -12.714   5.182  1.00  0.00     0.126 A 
HETATM    6  C   UNL     1      42.698 -12.487   6.515  1.00  0.00     0.084 A 
ENDROOT
BRANCH   5   7
HETATM    7  N   UNL     1      42.123 -13.882   4.530  1.00  0.00    -0.311 N 
HETATM    8  C   UNL     1      42.660 -14.208   3.299  1.00  0.00     0.236 C 
HETATM    9  O   UNL     1      43.487 -13.544   2.681  1.00  0.00    -0.272 OA
HETATM   10  H   UNL     1      41.445 -14.501   4.956  1.00  0.00     0.170 HD
BRANCH   8  11
HETATM   11  C   UNL     1      42.123 -15.492   2.715  1.00  0.00     0.068 A 
HETATM   12  C   UNL     1      40.606 -15.600   2.570  1.00  0.00     0.026 A 
HETATM   13  C   UNL     1      41.448 -15.442   1.346  1.00  0.00     0.026 A 
BRANCH  11  14
HETATM   14  C   UNL     1      42.866 -16.760   3.131  1.00  0.00    -0.039 A 
HETATM   15  C   UNL     1      42.898 -17.907   2.319  1.00  0.00     0.032 A 
HETATM   16  C   UNL     1      43.598 -19.050   2.715  1.00  0.00     0.034 A 
HETATM   17 CL   UNL     1      43.607 -20.436   1.694  1.00  0.00    -0.084 Cl
HETATM   18  C   UNL     1      44.287 -19.075   3.922  1.00  0.00     0.024 A 
HETATM   19  C   UNL     1      44.278 -17.950   4.741  1.00  0.00     0.002 A 
HETATM   20  C   UNL     1      43.575 -16.809   4.346  1.00  0.00     0.008 A 
ENDBRANCH  11  14
ENDBRANCH   8  11
ENDBRANCH   5   7
BRANCH   1  21
HETATM   21  C   UNL     1      43.256 -10.346   7.848  1.00  0.00     0.029 A 
HETATM   22  C   UNL     1      44.491 -10.411   8.513  1.00  0.00     0.081 A 
HETATM   23  C   UNL     1      44.705  -9.697   9.698  1.00  0.00     0.039 A 
HETATM   24  C   UNL     1      43.696  -8.885  10.215  1.00  0.00     0.026 A 
HETATM   25  C   UNL     1      42.473  -8.803   9.554  1.00  0.00     0.035 A 
HETATM   26  C   UNL     1      42.247  -9.527   8.382  1.00  0.00     0.040 A 
HETATM   27 CL   UNL     1      41.223  -7.809  10.195  1.00  0.00    -0.084 Cl
BRANCH  22  28
HETATM   28  O   UNL     1      45.482 -11.256   8.080  1.00  0.00    -0.355 OA
HETATM   29  C   UNL     1      46.584 -10.507   7.563  1.00  0.00     0.210 C 
ENDBRANCH  22  28
ENDBRANCH   1  21
TORSDOF 5
ENDMDL
MODEL 4
REMARK VINA RESULT:      -8.6      2.275      8.779
REMARK  5 active torsions:
REMARK  status: ('A' for Active; 'I' for Inactive)
REMARK    1  A    between atoms: O_2  and  C_3 
REMARK    2  A    between atoms: C_4  and  C_5 
REMARK    3  A    between atoms: C_9  and  N_10 
REMARK       I    between atoms: N_10  and  C_11 
REMARK    4  A    between atoms: C_11  and  C_12 
REMARK    5  A    between atoms: C_12  and  C_13 
ROOT
HETATM    1  C   UNL     1      42.117 -15.946   2.540  1.00  0.00     0.093 A 
HETATM    2  N   UNL     1      40.895 -15.593   2.972  1.00  0.00    -0.172 NA
HETATM    3  N   UNL     1      40.542 -14.570   2.176  1.00  0.00    -0.262 N 
HETATM    4  H   UNL     1      39.647 -14.108   2.316  1.00  0.00     0.191 HD
HETATM    5  C   UNL     1      41.467 -14.281   1.209  1.00  0.00     0.126 A 
HETATM    6  C   UNL     1      42.506 -15.152   1.423  1.00  0.00     0.084 A 
ENDROOT
BRANCH   5   7
HETATM    7  N   UNL     1      41.312 -13.308   0.244  1.00  0.00    -0.311 N 
HETATM    8  C   UNL     1      40.284 -13.353  -0.677  1.00  0.00     0.236 C 
HETATM    9  O   UNL     1      39.406 -14.211  -0.727  1.00  0.00    -0.272 OA
HETATM   10  H   UNL     1      41.987 -12.554   0.198  1.00  0.00     0.170 HD
BRANCH   8  11
HETATM   11  C   UNL     1      40.316 -12.237  -1.692  1.00  0.00     0.068 A 
HETATM   12  C   UNL     1      40.961 -12.553  -3.041  1.00  0.00     0.026 A 
HETATM   13  C   UNL     1      39.479 -12.382  -2.962  1.00  0.00     0.026 A 
BRANCH  11  14
HETATM   14  C   UNL     1      40.564 -10.843  -1.121  1.00  0.00    -0.039 A 
HETATM   15  C   UNL     1      41.683 -10.075  -1.484  1.00  0.00     0.032 A 
HETATM   16  C   UNL     1      41.880  -8.795  -0.959  1.00  0.00     0.034 A 
HETATM   17 CL   UNL     1      43.268  -7.890  -1.424  1.00  0.00    -0.084 Cl
HETATM   18  C   UNL     1      40.964  -8.247  -0.068  1.00  0.00     0.024 A 
HETATM   19  C   UNL     1      39.842  -8.983   0.302  1.00  0.00     0.002 A 
HETATM   20  C   UNL     1      39.649 -10.264  -0.221  1.00  0.00     0.008 A 
ENDBRANCH  11  14
ENDBRANCH   8  11
ENDBRANCH   5   7
BRANCH   1  21
HETATM   21  C   UNL     1      42.866 -17.051   3.135  1.00  0.00     0.029 A 
HETATM   22  C   UNL     1      43.413 -16.988   4.428  1.00  0.00     0.081 A 
HETATM   23  C   UNL     1      44.144 -18.062   4.950  1.00  0.00     0.039 A 
HETATM   24  C   UNL     1      44.312 -19.223   4.197  1.00  0.00     0.026 A 
HETATM   25  C   UNL     1      43.761 -19.300   2.920  1.00  0.00     0.035 A 
HETATM   26  C   UNL     1      43.045 -18.227   2.387  1.00  0.00     0.040 A 
HETATM   27 CL   UNL     1      43.974 -20.729   1.984  1.00  0.00    -0.084 Cl
BRANCH  22  28
HETATM   28  O   UNL     1      43.336 -15.837   5.171  1.00  0.00    -0.355 OA
HETATM   29  C   UNL     1      42.574 -16.062   6.359  1.00  0.00     0.210 C 
ENDBRANCH  22  28
ENDBRANCH   1  21
TORSDOF 5
ENDMDL
MODEL 5
REMARK VINA RESULT:      -8.6      1.782      8.217
REMARK  5 active torsions:
REMARK  status: ('A' for Active; 'I' for Inactive)
REMARK    1  A    between atoms: O_2  and  C_3 
REMARK    2  A    between atoms: C_4  and  C_5 
REMARK    3  A    between atoms: C_9  and  N_10 
REMARK       I    between atoms: N_10  and  C_11 
REMARK    4  A    between atoms: C_11  and  C_12 
REMARK    5  A    between atoms: C_12  and  C_13 
ROOT
HETATM    1  C   UNL     1      41.501 -16.157   3.107  1.00  0.00     0.093 A 
HETATM    2  N   UNL     1      40.398 -16.065   3.866  1.00  0.00    -0.172 NA
HETATM    3  N   UNL     1      39.673 -15.093   3.287  1.00  0.00    -0.262 N 
HETATM    4  H   UNL     1      38.782 -14.820   3.692  1.00  0.00     0.191 HD
HETATM    5  C   UNL     1      40.242 -14.588   2.148  1.00  0.00     0.126 A 
HETATM    6  C   UNL     1      41.436 -15.252   2.009  1.00  0.00     0.084 A 
ENDROOT
BRANCH   5   7
HETATM    7  N   UNL     1      39.669 -13.619   1.351  1.00  0.00    -0.311 N 
HETATM    8  C   UNL     1      39.080 -12.490   1.888  1.00  0.00     0.236 C 
HETATM    9  O   UNL     1      39.024 -12.212   3.082  1.00  0.00    -0.272 OA
HETATM   10  H   UNL     1      39.662 -13.754   0.348  1.00  0.00     0.170 HD
BRANCH   8  11
HETATM   11  C   UNL     1      38.452 -11.577   0.863  1.00  0.00     0.068 A 
HETATM   12  C   UNL     1      36.984 -11.210   1.077  1.00  0.00     0.026 A 
HETATM   13  C   UNL     1      38.037 -10.173   1.296  1.00  0.00     0.026 A 
BRANCH  11  14
HETATM   14  C   UNL     1      38.900 -11.809  -0.579  1.00  0.00    -0.039 A 
HETATM   15  C   UNL     1      38.415 -12.880  -1.349  1.00  0.00     0.032 A 
HETATM   16  C   UNL     1      38.828 -13.062  -2.671  1.00  0.00     0.034 A 
HETATM   17 CL   UNL     1      38.215 -14.389  -3.578  1.00  0.00    -0.084 Cl
HETATM   18  C   UNL     1      39.727 -12.179  -3.259  1.00  0.00     0.024 A 
HETATM   19  C   UNL     1      40.217 -11.105  -2.521  1.00  0.00     0.002 A 
HETATM   20  C   UNL     1      39.805 -10.926  -1.198  1.00  0.00     0.008 A 
ENDBRANCH  11  14
ENDBRANCH   8  11
ENDBRANCH   5   7
BRANCH   1  21
HETATM   21  C   UNL     1      42.562 -17.123   3.385  1.00  0.00     0.029 A 
HETATM   22  C   UNL     1      43.436 -16.998   4.478  1.00  0.00     0.081 A 
HETATM   23  C   UNL     1      44.454 -17.935   4.693  1.00  0.00     0.039 A 
HETATM   24  C   UNL     1      44.591 -19.025   3.835  1.00  0.00     0.026 A 
HETATM   25  C   UNL     1      43.720 -19.165   2.757  1.00  0.00     0.035 A 
HETATM   26  C   UNL     1      42.714 -18.226   2.527  1.00  0.00     0.040 A 
HETATM   27 CL   UNL     1      43.893 -20.505   1.691  1.00  0.00    -0.084 Cl
BRANCH  22  28
HETATM   28  O   UNL     1      43.383 -15.901   5.301  1.00  0.00    -0.355 OA
HETATM   29  C   UNL     1      43.476 -16.301   6.670  1.00  0.00     0.210 C 
ENDBRANCH  22  28
ENDBRANCH   1  21
TORSDOF 5
ENDMDL
MODEL 6
REMARK VINA RESULT:      -8.6      2.430      8.960
REMARK  5 active torsions:
REMARK  status: ('A' for Active; 'I' for Inactive)
REMARK    1  A    between atoms: O_2  and  C_3 
REMARK    2  A    between atoms: C_4  and  C_5 
REMARK    3  A    between atoms: C_9  and  N_10 
REMARK       I    between atoms: N_10  and  C_11 
REMARK    4  A    between atoms: C_11  and  C_12 
REMARK    5  A    between atoms: C_12  and  C_13 
ROOT
HETATM    1  C   UNL     1      41.931 -16.141   2.428  1.00  0.00     0.093 A 
HETATM    2  N   UNL     1      40.636 -15.994   2.752  1.00  0.00    -0.172 NA
HETATM    3  N   UNL     1      40.212 -14.981   1.978  1.00  0.00    -0.262 N 
HETATM    4  H   UNL     1      39.249 -14.661   2.049  1.00  0.00     0.191 HD
HETATM    5  C   UNL     1      41.170 -14.500   1.126  1.00  0.00     0.126 A 
HETATM    6  C   UNL     1      42.302 -15.228   1.400  1.00  0.00     0.084 A 
ENDROOT
BRANCH   5   7
HETATM    7  N   UNL     1      40.964 -13.497   0.202  1.00  0.00    -0.311 N 
HETATM    8  C   UNL     1      40.124 -13.667  -0.881  1.00  0.00     0.236 C 
HETATM    9  O   UNL     1      39.466 -14.675  -1.125  1.00  0.00    -0.272 OA
HETATM   10  H   UNL     1      41.463 -12.623   0.312  1.00  0.00     0.170 HD
BRANCH   8  11
HETATM   11  C   UNL     1      40.076 -12.482  -1.815  1.00  0.00     0.068 A 
HETATM   12  C   UNL     1      41.369 -11.685  -1.981  1.00  0.00     0.026 A 
HETATM   13  C   UNL     1      40.888 -12.541  -3.107  1.00  0.00     0.026 A 
BRANCH  11  14
HETATM   14  C   UNL     1      38.774 -11.684  -1.791  1.00  0.00    -0.039 A 
HETATM   15  C   UNL     1      38.183 -11.255  -0.590  1.00  0.00     0.032 A 
HETATM   16  C   UNL     1      36.999 -10.513  -0.594  1.00  0.00     0.034 A 
HETATM   17 CL   UNL     1      36.305 -10.012   0.898  1.00  0.00    -0.084 Cl
HETATM   18  C   UNL     1      36.381 -10.174  -1.793  1.00  0.00     0.024 A 
HETATM   19  C   UNL     1      36.949 -10.580  -2.997  1.00  0.00     0.002 A 
HETATM   20  C   UNL     1      38.131 -11.325  -2.991  1.00  0.00     0.008 A 
ENDBRANCH  11  14
ENDBRANCH   8  11
ENDBRANCH   5   7
BRANCH   1  21
HETATM   21  C   UNL     1      42.776 -17.166   3.039  1.00  0.00     0.029 A 
HETATM   22  C   UNL     1      43.396 -16.993   4.287  1.00  0.00     0.081 A 
HETATM   23  C   UNL     1      44.218 -17.992   4.824  1.00  0.00     0.039 A 
HETATM   24  C   UNL     1      44.404 -19.188   4.132  1.00  0.00     0.026 A 
HETATM   25  C   UNL     1      43.780 -19.374   2.900  1.00  0.00     0.035 A 
HETATM   26  C   UNL     1      42.974 -18.375   2.352  1.00  0.00     0.040 A 
HETATM   27 CL   UNL     1      44.016 -20.846   2.040  1.00  0.00    -0.084 Cl
BRANCH  22  28
HETATM   28  O   UNL     1      43.301 -15.803   4.964  1.00  0.00    -0.355 OA
HETATM   29  C   UNL     1      42.530 -15.969   6.156  1.00  0.00     0.210 C 
ENDBRANCH  22  28
ENDBRANCH   1  21
TORSDOF 5
ENDMDL
MODEL 7
REMARK VINA RESULT:      -8.5      2.842      9.121
REMARK  5 active torsions:
REMARK  status: ('A' for Active; 'I' for Inactive)
REMARK    1  A    between atoms: O_2  and  C_3 
REMARK    2  A    between atoms: C_4  and  C_5 
REMARK    3  A    between atoms: C_9  and  N_10 
REMARK       I    between atoms: N_10  and  C_11 
REMARK    4  A    between atoms: C_11  and  C_12 
REMARK    5  A    between atoms: C_12  and  C_13 
ROOT
HETATM    1  C   UNL     1      41.468 -16.283   2.786  1.00  0.00     0.093 A 
HETATM    2  N   UNL     1      40.272 -16.076   3.360  1.00  0.00    -0.172 NA
HETATM    3  N   UNL     1      39.532 -15.507   2.393  1.00  0.00    -0.262 N 
HETATM    4  H   UNL     1      38.572 -15.235   2.587  1.00  0.00     0.191 HD
HETATM    5  C   UNL     1      40.188 -15.387   1.197  1.00  0.00     0.126 A 
HETATM    6  C   UNL     1      41.452 -15.874   1.422  1.00  0.00     0.084 A 
ENDROOT
BRANCH   5   7
HETATM    7  N   UNL     1      39.627 -14.880   0.044  1.00  0.00    -0.311 N 
HETATM    8  C   UNL     1      40.032 -13.674  -0.494  1.00  0.00     0.236 C 
HETATM    9  O   UNL     1      40.921 -12.954  -0.046  1.00  0.00    -0.272 OA
HETATM   10  H   UNL     1      38.881 -15.398  -0.404  1.00  0.00     0.170 HD
BRANCH   8  11
HETATM   11  C   UNL     1      39.258 -13.255  -1.720  1.00  0.00     0.068 A 
HETATM   12  C   UNL     1      40.022 -13.240  -3.043  1.00  0.00     0.026 A 
HETATM   13  C   UNL     1      38.993 -14.297  -2.805  1.00  0.00     0.026 A 
BRANCH  11  14
HETATM   14  C   UNL     1      38.242 -12.137  -1.500  1.00  0.00    -0.039 A 
HETATM   15  C   UNL     1      38.160 -11.429  -0.288  1.00  0.00     0.032 A 
HETATM   16  C   UNL     1      37.231 -10.400  -0.116  1.00  0.00     0.034 A 
HETATM   17 CL   UNL     1      37.160  -9.562   1.386  1.00  0.00    -0.084 Cl
HETATM   18  C   UNL     1      36.368 -10.046  -1.147  1.00  0.00     0.024 A 
HETATM   19  C   UNL     1      36.433 -10.725  -2.360  1.00  0.00     0.002 A 
HETATM   20  C   UNL     1      37.360 -11.757  -2.530  1.00  0.00     0.008 A 
ENDBRANCH  11  14
ENDBRANCH   8  11
ENDBRANCH   5   7
BRANCH   1  21
HETATM   21  C   UNL     1      42.578 -16.911   3.502  1.00  0.00     0.029 A 
HETATM   22  C   UNL     1      43.163 -18.118   3.085  1.00  0.00     0.081 A 
HETATM   23  C   UNL     1      44.209 -18.696   3.815  1.00  0.00     0.039 A 
HETATM   24  C   UNL     1      44.703 -18.058   4.952  1.00  0.00     0.026 A 
HETATM   25  C   UNL     1      44.138 -16.853   5.363  1.00  0.00     0.035 A 
HETATM   26  C   UNL     1      43.084 -16.280   4.650  1.00  0.00     0.040 A 
HETATM   27 CL   UNL     1      44.740 -16.067   6.771  1.00  0.00    -0.084 Cl
BRANCH  22  28
HETATM   28  O   UNL     1      42.657 -18.816   2.018  1.00  0.00    -0.355 OA
HETATM   29  C   UNL     1      43.149 -20.158   2.023  1.00  0.00     0.210 C 
ENDBRANCH  22  28
ENDBRANCH   1  21
TORSDOF 5
ENDMDL
MODEL 8
REMARK VINA RESULT:      -8.5      5.413      7.244
REMARK  5 active torsions:
REMARK  status: ('A' for Active; 'I' for Inactive)
REMARK    1  A    between atoms: O_2  and  C_3 
REMARK    2  A    between atoms: C_4  and  C_5 
REMARK    3  A    between atoms: C_9  and  N_10 
REMARK       I    between atoms: N_10  and  C_11 
REMARK    4  A    between atoms: C_11  and  C_12 
REMARK    5  A    between atoms: C_12  and  C_13 
ROOT
HETATM    1  C   UNL     1      42.995 -10.889   6.160  1.00  0.00     0.093 A 
HETATM    2  N   UNL     1      43.244 -10.527   4.891  1.00  0.00    -0.172 NA
HETATM    3  N   UNL     1      42.960 -11.624   4.169  1.00  0.00    -0.262 N 
HETATM    4  H   UNL     1      43.086 -11.610   3.160  1.00  0.00     0.191 HD
HETATM    5  C   UNL     1      42.486 -12.668   4.917  1.00  0.00     0.126 A 
HETATM    6  C   UNL     1      42.505 -12.225   6.217  1.00  0.00     0.084 A 
ENDROOT
BRANCH   5   7
HETATM    7  N   UNL     1      42.082 -13.882   4.401  1.00  0.00    -0.311 N 
HETATM    8  C   UNL     1      42.578 -14.365   3.206  1.00  0.00     0.236 C 
HETATM    9  O   UNL     1      43.423 -13.813   2.506  1.00  0.00    -0.272 OA
HETATM   10  H   UNL     1      41.385 -14.417   4.903  1.00  0.00     0.170 HD
BRANCH   8  11
HETATM   11  C   UNL     1      41.971 -15.677   2.773  1.00  0.00     0.068 A 
HETATM   12  C   UNL     1      40.447 -15.778   2.821  1.00  0.00     0.026 A 
HETATM   13  C   UNL     1      41.133 -15.705   1.496  1.00  0.00     0.026 A 
BRANCH  11  14
HETATM   14  C   UNL     1      42.755 -16.924   3.175  1.00  0.00    -0.039 A 
HETATM   15  C   UNL     1      42.865 -18.042   2.330  1.00  0.00     0.032 A 
HETATM   16  C   UNL     1      43.602 -19.166   2.714  1.00  0.00     0.034 A 
HETATM   17 CL   UNL     1      43.706 -20.516   1.652  1.00  0.00    -0.084 Cl
HETATM   18  C   UNL     1      44.251 -19.200   3.943  1.00  0.00     0.024 A 
HETATM   19  C   UNL     1      44.165 -18.103   4.795  1.00  0.00     0.002 A 
HETATM   20  C   UNL     1      43.426 -16.982   4.412  1.00  0.00     0.008 A 
ENDBRANCH  11  14
ENDBRANCH   8  11
ENDBRANCH   5   7
BRANCH   1  21
HETATM   21  C   UNL     1      43.162  -9.966   7.281  1.00  0.00     0.029 A 
HETATM   22  C   UNL     1      42.335  -8.846   7.471  1.00  0.00     0.081 A 
HETATM   23  C   UNL     1      42.546  -7.975   8.547  1.00  0.00     0.039 A 
HETATM   24  C   UNL     1      43.567  -8.230   9.462  1.00  0.00     0.026 A 
HETATM   25  C   UNL     1      44.381  -9.347   9.289  1.00  0.00     0.035 A 
HETATM   26  C   UNL     1      44.188 -10.210   8.209  1.00  0.00     0.040 A 
HETATM   27 CL   UNL     1      45.648  -9.659  10.412  1.00  0.00    -0.084 Cl
BRANCH  22  28
HETATM   28  O   UNL     1      41.370  -8.517   6.554  1.00  0.00    -0.355 OA
HETATM   29  C   UNL     1      41.541  -7.168   6.114  1.00  0.00     0.210 C 
ENDBRANCH  22  28
ENDBRANCH   1  21
TORSDOF 5
ENDMDL
MODEL 9
REMARK VINA RESULT:      -8.0      2.361      9.059
REMARK  5 active torsions:
REMARK  status: ('A' for Active; 'I' for Inactive)
REMARK    1  A    between atoms: O_2  and  C_3 
REMARK    2  A    between atoms: C_4  and  C_5 
REMARK    3  A    between atoms: C_9  and  N_10 
REMARK       I    between atoms: N_10  and  C_11 
REMARK    4  A    between atoms: C_11  and  C_12 
REMARK    5  A    between atoms: C_12  and  C_13 
ROOT
HETATM    1  C   UNL     1      41.774 -15.521   2.908  1.00  0.00     0.093 A 
HETATM    2  N   UNL     1      40.440 -15.455   3.049  1.00  0.00    -0.172 NA
HETATM    3  N   UNL     1      40.005 -14.955   1.880  1.00  0.00    -0.262 N 
HETATM    4  H   UNL     1      39.011 -14.792   1.740  1.00  0.00     0.191 HD
HETATM    5  C   UNL     1      41.002 -14.746   0.966  1.00  0.00     0.126 A 
HETATM    6  C   UNL     1      42.166 -15.095   1.606  1.00  0.00     0.084 A 
ENDROOT
BRANCH   5   7
HETATM    7  N   UNL     1      40.802 -14.286  -0.319  1.00  0.00    -0.311 N 
HETATM    8  C   UNL     1      40.184 -13.076  -0.571  1.00  0.00     0.236 C 
HETATM    9  O   UNL     1      39.783 -12.287   0.280  1.00  0.00    -0.272 OA
HETATM   10  H   UNL     1      41.097 -14.864  -1.095  1.00  0.00     0.170 HD
BRANCH   8  11
HETATM   11  C   UNL     1      39.998 -12.774  -2.037  1.00  0.00     0.068 A 
HETATM   12  C   UNL     1      41.199 -12.184  -2.776  1.00  0.00     0.026 A 
HETATM   13  C   UNL     1      40.787 -13.594  -3.056  1.00  0.00     0.026 A 
BRANCH  11  14
HETATM   14  C   UNL     1      38.622 -12.236  -2.423  1.00  0.00    -0.039 A 
HETATM   15  C   UNL     1      38.374 -10.861  -2.580  1.00  0.00     0.032 A 
HETATM   16  C   UNL     1      37.109 -10.394  -2.948  1.00  0.00     0.034 A 
HETATM   17 CL   UNL     1      36.846  -8.703  -3.123  1.00  0.00    -0.084 Cl
HETATM   18  C   UNL     1      36.065 -11.284  -3.176  1.00  0.00     0.024 A 
HETATM   19  C   UNL     1      36.286 -12.651  -3.036  1.00  0.00     0.002 A 
HETATM   20  C   UNL     1      37.549 -13.117  -2.664  1.00  0.00     0.008 A 
ENDBRANCH  11  14
ENDBRANCH   8  11
ENDBRANCH   5   7
BRANCH   1  21
HETATM   21  C   UNL     1      42.646 -16.034   3.963  1.00  0.00     0.029 A 
HETATM   22  C   UNL     1      43.052 -15.254   5.058  1.00  0.00     0.081 A 
HETATM   23  C   UNL     1      43.908 -15.779   6.034  1.00  0.00     0.039 A 
HETATM   24  C   UNL     1      44.343 -17.100   5.942  1.00  0.00     0.026 A 
HETATM   25  C   UNL     1      43.933 -17.885   4.867  1.00  0.00     0.035 A 
HETATM   26  C   UNL     1      43.094 -17.363   3.882  1.00  0.00     0.040 A 
HETATM   27 CL   UNL     1      44.477 -19.514   4.746  1.00  0.00    -0.084 Cl
BRANCH  22  28
HETATM   28  O   UNL     1      42.708 -13.928   5.147  1.00  0.00    -0.355 OA
HETATM   29  C   UNL     1      43.310 -13.334   6.298  1.00  0.00     0.210 C 
ENDBRANCH  22  28
ENDBRANCH   1  21
TORSDOF 5
ENDMDL
MODEL 10
REMARK VINA RESULT:      -7.9      6.524      8.849
REMARK  5 active torsions:
REMARK  status: ('A' for Active; 'I' for Inactive)
REMARK    1  A    between atoms: O_2  and  C_3 
REMARK    2  A    between atoms: C_4  and  C_5 
REMARK    3  A    between atoms: C_9  and  N_10 
REMARK       I    between atoms: N_10  and  C_11 
REMARK    4  A    between atoms: C_11  and  C_12 
REMARK    5  A    between atoms: C_12  and  C_13 
ROOT
HETATM    1  C   UNL     1      42.918 -13.302   4.797  1.00  0.00     0.093 A 
HETATM    2  N   UNL     1      43.681 -12.326   4.279  1.00  0.00    -0.172 NA
HETATM    3  N   UNL     1      43.745 -11.401   5.252  1.00  0.00    -0.262 N 
HETATM    4  H   UNL     1      44.263 -10.540   5.096  1.00  0.00     0.191 HD
HETATM    5  C   UNL     1      43.095 -11.766   6.401  1.00  0.00     0.126 A 
HETATM    6  C   UNL     1      42.539 -12.993   6.134  1.00  0.00     0.084 A 
ENDROOT
BRANCH   5   7
HETATM    7  N   UNL     1      43.058 -11.009   7.553  1.00  0.00    -0.311 N 
HETATM    8  C   UNL     1      44.182 -10.817   8.334  1.00  0.00     0.236 C 
HETATM    9  O   UNL     1      45.304 -11.253   8.092  1.00  0.00    -0.272 OA
HETATM   10  H   UNL     1      42.177 -10.604   7.843  1.00  0.00     0.170 HD
BRANCH   8  11
HETATM   11  C   UNL     1      43.931 -10.014   9.587  1.00  0.00     0.068 A 
HETATM   12  C   UNL     1      43.826 -10.796  10.895  1.00  0.00     0.026 A 
HETATM   13  C   UNL     1      45.032  -9.951  10.644  1.00  0.00     0.026 A 
BRANCH  11  14
HETATM   14  C   UNL     1      42.991  -8.822   9.421  1.00  0.00    -0.039 A 
HETATM   15  C   UNL     1      41.608  -8.924   9.647  1.00  0.00     0.032 A 
HETATM   16  C   UNL     1      40.770  -7.815   9.504  1.00  0.00     0.034 A 
HETATM   17 CL   UNL     1      39.080  -7.985   9.785  1.00  0.00    -0.084 Cl
HETATM   18  C   UNL     1      41.290  -6.578   9.139  1.00  0.00     0.024 A 
HETATM   19  C   UNL     1      42.657  -6.448   8.917  1.00  0.00     0.002 A 
HETATM   20  C   UNL     1      43.494  -7.558   9.057  1.00  0.00     0.008 A 
ENDBRANCH  11  14
ENDBRANCH   8  11
ENDBRANCH   5   7
BRANCH   1  21
HETATM   21  C   UNL     1      42.609 -14.526   4.057  1.00  0.00     0.029 A 
HETATM   22  C   UNL     1      41.674 -14.563   3.009  1.00  0.00     0.081 A 
HETATM   23  C   UNL     1      41.391 -15.762   2.344  1.00  0.00     0.039 A 
HETATM   24  C   UNL     1      42.062 -16.932   2.699  1.00  0.00     0.026 A 
HETATM   25  C   UNL     1      43.001 -16.900   3.728  1.00  0.00     0.035 A 
HETATM   26  C   UNL     1      43.275 -15.712   4.406  1.00  0.00     0.040 A 
HETATM   27 CL   UNL     1      43.824 -18.345   4.174  1.00  0.00    -0.084 Cl
BRANCH  22  28
HETATM   28  O   UNL     1      40.938 -13.453   2.680  1.00  0.00    -0.355 OA
HETATM   29  C   UNL     1      39.555 -13.790   2.563  1.00  0.00     0.210 C 
ENDBRANCH  22  28
ENDBRANCH   1  21
TORSDOF 5
ENDMDL
