MODEL 1
REMARK VINA RESULT:      -8.1      0.000      0.000
REMARK  3 active torsions:
REMARK  status: ('A' for Active; 'I' for Inactive)
REMARK    1  A    between atoms: C_3  and  N_4 
REMARK       I    between atoms: N_4  and  C_5 
REMARK    2  A    between atoms: C_5  and  C_6 
REMARK    3  A    between atoms: C_6  and  C_7 
ROOT
HETATM    1  C   UNL     1      42.017 -15.307   6.200  1.00  0.00     0.286 C 
HETATM    2  N   UNL     1      42.513 -14.657   4.902  1.00  0.00    -0.056 N 
HETATM    3  H   UNL     1      43.549 -14.638   4.898  1.00  0.00     0.278 HD
HETATM    4  H   UNL     1      42.264 -15.257   4.103  1.00  0.00     0.278 HD
HETATM    5  C   UNL     1      41.932 -13.285   4.742  1.00  0.00     0.209 C 
HETATM    6  C   UNL     1      40.399 -13.439   4.622  1.00  0.00     0.115 C 
HETATM    7  N   UNL     1      39.842 -14.174   5.757  1.00  0.00    -0.353 N 
HETATM    8  C   UNL     1      40.478 -15.256   6.330  1.00  0.00     0.249 C 
HETATM    9  O   UNL     1      39.839 -16.071   6.985  1.00  0.00    -0.271 OA
HETATM   10  C   UNL     1      42.526 -12.594   3.524  1.00  0.00     0.035 C 
HETATM   11  C   UNL     1      41.879 -11.220   3.347  1.00  0.00     0.002 C 
HETATM   12  C   UNL     1      40.355 -11.314   3.258  1.00  0.00     0.002 C 
HETATM   13  C   UNL     1      39.743 -12.071   4.440  1.00  0.00     0.027 C 
HETATM   14  H   UNL     1      38.827 -14.220   5.846  1.00  0.00     0.163 HD
ENDROOT
BRANCH   1  15
HETATM   15  C   UNL     1      42.542 -16.735   6.293  1.00  0.00     0.146 C 
BRANCH  15  16
HETATM   16  C   UNL     1      44.006 -16.696   5.975  1.00  0.00     0.224 C 
HETATM   17  N   UNL     1      44.628 -17.558   5.138  1.00  0.00    -0.325 N 
HETATM   18  H   UNL     1      45.644 -17.491   5.214  1.00  0.00     0.169 HD
HETATM   19  O   UNL     1      44.715 -15.990   6.707  1.00  0.00    -0.273 OA
BRANCH  17  20
HETATM   20  C   UNL     1      44.201 -18.596   4.288  1.00  0.00     0.073 A 
HETATM   21  C   UNL     1      44.234 -19.958   4.569  1.00  0.00     0.033 A 
HETATM   22  C   UNL     1      43.797 -20.885   3.610  1.00  0.00     0.002 A 
HETATM   23  C   UNL     1      43.315 -20.458   2.372  1.00  0.00     0.003 A 
HETATM   24  C   UNL     1      43.247 -19.099   2.091  1.00  0.00     0.044 A 
HETATM   25  C   UNL     1      43.675 -18.188   3.049  1.00  0.00     0.143 A 
HETATM   26  F   UNL     1      43.628 -16.877   2.763  1.00  0.00    -0.204 F 
ENDBRANCH  17  20
ENDBRANCH  15  16
ENDBRANCH   1  15
TORSDOF 3
ENDMDL
MODEL 2
REMARK VINA RESULT:      -8.0      2.243      2.591
REMARK  3 active torsions:
REMARK  status: ('A' for Active; 'I' for Inactive)
REMARK    1  A    between atoms: C_3  and  N_4 
REMARK       I    between atoms: N_4  and  C_5 
REMARK    2  A    between atoms: C_5  and  C_6 
REMARK    3  A    between atoms: C_6  and  C_7 
ROOT
HETATM    1  C   UNL     1      41.823 -15.609   4.695  1.00  0.00     0.286 C 
HETATM    2  N   UNL     1      40.990 -16.079   3.495  1.00  0.00    -0.056 N 
HETATM    3  H   UNL     1      41.373 -16.971   3.135  1.00  0.00     0.278 HD
HETATM    4  H   UNL     1      40.039 -16.318   3.813  1.00  0.00     0.278 HD
HETATM    5  C   UNL     1      40.949 -15.023   2.434  1.00  0.00     0.209 C 
HETATM    6  C   UNL     1      40.238 -13.788   3.031  1.00  0.00     0.115 C 
HETATM    7  N   UNL     1      40.882 -13.342   4.266  1.00  0.00    -0.353 N 
HETATM    8  C   UNL     1      41.383 -14.219   5.206  1.00  0.00     0.249 C 
HETATM    9  O   UNL     1      41.546 -13.855   6.365  1.00  0.00    -0.271 OA
HETATM   10  C   UNL     1      40.233 -15.541   1.195  1.00  0.00     0.035 C 
HETATM   11  C   UNL     1      40.153 -14.430   0.147  1.00  0.00     0.002 C 
HETATM   12  C   UNL     1      39.487 -13.169   0.701  1.00  0.00     0.002 C 
HETATM   13  C   UNL     1      40.149 -12.673   1.990  1.00  0.00     0.027 C 
HETATM   14  H   UNL     1      40.577 -12.459   4.674  1.00  0.00     0.163 HD
ENDROOT
BRANCH   1  15
HETATM   15  C   UNL     1      41.770 -16.658   5.800  1.00  0.00     0.146 C 
BRANCH  15  16
HETATM   16  C   UNL     1      43.181 -16.937   6.222  1.00  0.00     0.224 C 
HETATM   17  N   UNL     1      43.991 -17.839   5.622  1.00  0.00    -0.325 N 
HETATM   18  H   UNL     1      44.828 -18.023   6.178  1.00  0.00     0.169 HD
HETATM   19  O   UNL     1      43.529 -16.493   7.326  1.00  0.00    -0.273 OA
BRANCH  17  20
HETATM   20  C   UNL     1      43.889 -18.660   4.483  1.00  0.00     0.073 A 
HETATM   21  C   UNL     1      43.744 -18.230   3.167  1.00  0.00     0.033 A 
HETATM   22  C   UNL     1      43.629 -19.167   2.129  1.00  0.00     0.002 A 
HETATM   23  C   UNL     1      43.670 -20.536   2.395  1.00  0.00     0.003 A 
HETATM   24  C   UNL     1      43.847 -20.979   3.701  1.00  0.00     0.044 A 
HETATM   25  C   UNL     1      43.967 -20.044   4.722  1.00  0.00     0.143 A 
HETATM   26  F   UNL     1      44.115 -20.477   5.984  1.00  0.00    -0.204 F 
ENDBRANCH  17  20
ENDBRANCH  15  16
ENDBRANCH   1  15
TORSDOF 3
ENDMDL
MODEL 3
REMARK VINA RESULT:      -7.9      3.626      4.427
REMARK  3 active torsions:
REMARK  status: ('A' for Active; 'I' for Inactive)
REMARK    1  A    between atoms: C_3  and  N_4 
REMARK       I    between atoms: N_4  and  C_5 
REMARK    2  A    between atoms: C_5  and  C_6 
REMARK    3  A    between atoms: C_6  and  C_7 
ROOT
HETATM    1  C   UNL     1      39.993 -13.693   2.598  1.00  0.00     0.286 C 
HETATM    2  N   UNL     1      40.669 -12.830   1.524  1.00  0.00    -0.056 N 
HETATM    3  H   UNL     1      40.676 -11.840   1.828  1.00  0.00     0.278 HD
HETATM    4  H   UNL     1      41.665 -13.086   1.458  1.00  0.00     0.278 HD
HETATM    5  C   UNL     1      39.984 -13.000   0.202  1.00  0.00     0.209 C 
HETATM    6  C   UNL     1      40.150 -14.476  -0.223  1.00  0.00     0.115 C 
HETATM    7  N   UNL     1      39.656 -15.391   0.806  1.00  0.00    -0.353 N 
HETATM    8  C   UNL     1      39.836 -15.165   2.155  1.00  0.00     0.249 C 
HETATM    9  O   UNL     1      39.776 -16.095   2.950  1.00  0.00    -0.271 OA
HETATM   10  C   UNL     1      40.573 -12.047  -0.828  1.00  0.00     0.035 C 
HETATM   11  C   UNL     1      39.900 -12.276  -2.182  1.00  0.00     0.002 C 
HETATM   12  C   UNL     1      40.006 -13.734  -2.633  1.00  0.00     0.002 C 
HETATM   13  C   UNL     1      39.484 -14.714  -1.578  1.00  0.00     0.027 C 
HETATM   14  H   UNL     1      39.596 -16.382   0.577  1.00  0.00     0.163 HD
ENDROOT
BRANCH   1  15
HETATM   15  C   UNL     1      40.765 -13.579   3.908  1.00  0.00     0.146 C 
BRANCH  15  16
HETATM   16  C   UNL     1      42.178 -13.214   3.566  1.00  0.00     0.224 C 
HETATM   17  N   UNL     1      43.191 -14.105   3.462  1.00  0.00    -0.325 N 
HETATM   18  H   UNL     1      44.099 -13.640   3.423  1.00  0.00     0.169 HD
HETATM   19  O   UNL     1      42.471 -12.011   3.624  1.00  0.00    -0.273 OA
BRANCH  17  20
HETATM   20  C   UNL     1      43.286 -15.509   3.516  1.00  0.00     0.073 A 
HETATM   21  C   UNL     1      43.428 -16.281   4.665  1.00  0.00     0.033 A 
HETATM   22  C   UNL     1      43.537 -17.677   4.565  1.00  0.00     0.002 A 
HETATM   23  C   UNL     1      43.494 -18.309   3.322  1.00  0.00     0.003 A 
HETATM   24  C   UNL     1      43.321 -17.552   2.170  1.00  0.00     0.044 A 
HETATM   25  C   UNL     1      43.207 -16.171   2.279  1.00  0.00     0.143 A 
HETATM   26  F   UNL     1      43.063 -15.442   1.160  1.00  0.00    -0.204 F 
ENDBRANCH  17  20
ENDBRANCH  15  16
ENDBRANCH   1  15
TORSDOF 3
ENDMDL
MODEL 4
REMARK VINA RESULT:      -7.9      2.234      5.940
REMARK  3 active torsions:
REMARK  status: ('A' for Active; 'I' for Inactive)
REMARK    1  A    between atoms: C_3  and  N_4 
REMARK       I    between atoms: N_4  and  C_5 
REMARK    2  A    between atoms: C_5  and  C_6 
REMARK    3  A    between atoms: C_6  and  C_7 
ROOT
HETATM    1  C   UNL     1      41.894 -15.670   5.366  1.00  0.00     0.286 C 
HETATM    2  N   UNL     1      42.610 -16.064   4.067  1.00  0.00    -0.056 N 
HETATM    3  H   UNL     1      42.073 -15.712   3.255  1.00  0.00     0.278 HD
HETATM    4  H   UNL     1      43.512 -15.569   4.012  1.00  0.00     0.278 HD
HETATM    5  C   UNL     1      42.809 -17.547   4.002  1.00  0.00     0.209 C 
HETATM    6  C   UNL     1      43.732 -17.946   5.175  1.00  0.00     0.115 C 
HETATM    7  N   UNL     1      43.199 -17.490   6.459  1.00  0.00    -0.353 N 
HETATM    8  C   UNL     1      42.576 -16.269   6.617  1.00  0.00     0.249 C 
HETATM    9  O   UNL     1      42.501 -15.754   7.726  1.00  0.00    -0.271 OA
HETATM   10  C   UNL     1      43.401 -17.947   2.659  1.00  0.00     0.035 C 
HETATM   11  C   UNL     1      43.648 -19.455   2.635  1.00  0.00     0.002 C 
HETATM   12  C   UNL     1      44.531 -19.907   3.800  1.00  0.00     0.002 C 
HETATM   13  C   UNL     1      43.990 -19.452   5.158  1.00  0.00     0.027 C 
HETATM   14  H   UNL     1      43.660 -17.810   7.310  1.00  0.00     0.163 HD
ENDROOT
BRANCH   1  15
HETATM   15  C   UNL     1      41.790 -14.152   5.455  1.00  0.00     0.146 C 
BRANCH  15  16
HETATM   16  C   UNL     1      40.337 -13.795   5.358  1.00  0.00     0.224 C 
HETATM   17  N   UNL     1      39.679 -13.594   4.193  1.00  0.00    -0.325 N 
HETATM   18  H   UNL     1      38.763 -13.167   4.347  1.00  0.00     0.169 HD
HETATM   19  O   UNL     1      39.783 -13.430   6.405  1.00  0.00    -0.273 OA
BRANCH  17  20
HETATM   20  C   UNL     1      40.010 -13.725   2.831  1.00  0.00     0.073 A 
HETATM   21  C   UNL     1      40.463 -12.711   1.993  1.00  0.00     0.033 A 
HETATM   22  C   UNL     1      40.731 -12.983   0.642  1.00  0.00     0.002 A 
HETATM   23  C   UNL     1      40.560 -14.267   0.125  1.00  0.00     0.003 A 
HETATM   24  C   UNL     1      40.138 -15.296   0.959  1.00  0.00     0.044 A 
HETATM   25  C   UNL     1      39.882 -15.019   2.297  1.00  0.00     0.143 A 
HETATM   26  F   UNL     1      39.453 -16.011   3.093  1.00  0.00    -0.204 F 
ENDBRANCH  17  20
ENDBRANCH  15  16
ENDBRANCH   1  15
TORSDOF 3
ENDMDL
MODEL 5
REMARK VINA RESULT:      -7.8      2.706      6.523
REMARK  3 active torsions:
REMARK  status: ('A' for Active; 'I' for Inactive)
REMARK    1  A    between atoms: C_3  and  N_4 
REMARK       I    between atoms: N_4  and  C_5 
REMARK    2  A    between atoms: C_5  and  C_6 
REMARK    3  A    between atoms: C_6  and  C_7 
ROOT
HETATM    1  C   UNL     1      43.377 -15.749   3.944  1.00  0.00     0.286 C 
HETATM    2  N   UNL     1      43.003 -16.905   4.881  1.00  0.00    -0.056 N 
HETATM    3  H   UNL     1      43.164 -16.621   5.864  1.00  0.00     0.278 HD
HETATM    4  H   UNL     1      41.988 -17.075   4.825  1.00  0.00     0.278 HD
HETATM    5  C   UNL     1      43.772 -18.142   4.528  1.00  0.00     0.209 C 
HETATM    6  C   UNL     1      43.358 -18.556   3.098  1.00  0.00     0.115 C 
HETATM    7  N   UNL     1      43.549 -17.464   2.144  1.00  0.00    -0.353 N 
HETATM    8  C   UNL     1      43.280 -16.147   2.454  1.00  0.00     0.249 C 
HETATM    9  O   UNL     1      43.069 -15.334   1.561  1.00  0.00    -0.271 OA
HETATM   10  C   UNL     1      43.497 -19.246   5.537  1.00  0.00     0.035 C 
HETATM   11  C   UNL     1      44.246 -20.515   5.127  1.00  0.00     0.002 C 
HETATM   12  C   UNL     1      43.896 -20.948   3.702  1.00  0.00     0.002 C 
HETATM   13  C   UNL     1      44.098 -19.826   2.680  1.00  0.00     0.027 C 
HETATM   14  H   UNL     1      43.431 -17.668   1.152  1.00  0.00     0.163 HD
ENDROOT
BRANCH   1  15
HETATM   15  C   UNL     1      42.513 -14.533   4.259  1.00  0.00     0.146 C 
BRANCH  15  16
HETATM   16  C   UNL     1      41.109 -15.020   4.457  1.00  0.00     0.224 C 
HETATM   17  N   UNL     1      40.101 -14.816   3.577  1.00  0.00    -0.325 N 
HETATM   18  H   UNL     1      39.193 -15.045   3.985  1.00  0.00     0.169 HD
HETATM   19  O   UNL     1      40.812 -15.412   5.594  1.00  0.00    -0.273 OA
BRANCH  17  20
HETATM   20  C   UNL     1      40.007 -14.256   2.289  1.00  0.00     0.073 A 
HETATM   21  C   UNL     1      39.962 -12.899   1.982  1.00  0.00     0.033 A 
HETATM   22  C   UNL     1      39.842 -12.484   0.647  1.00  0.00     0.002 A 
HETATM   23  C   UNL     1      39.777 -13.417  -0.388  1.00  0.00     0.003 A 
HETATM   24  C   UNL     1      39.853 -14.775  -0.097  1.00  0.00     0.044 A 
HETATM   25  C   UNL     1      39.979 -15.177   1.227  1.00  0.00     0.143 A 
HETATM   26  F   UNL     1      40.029 -16.489   1.504  1.00  0.00    -0.204 F 
ENDBRANCH  17  20
ENDBRANCH  15  16
ENDBRANCH   1  15
TORSDOF 3
ENDMDL
MODEL 6
REMARK VINA RESULT:      -7.6      2.396      2.990
REMARK  3 active torsions:
REMARK  status: ('A' for Active; 'I' for Inactive)
REMARK    1  A    between atoms: C_3  and  N_4 
REMARK       I    between atoms: N_4  and  C_5 
REMARK    2  A    between atoms: C_5  and  C_6 
REMARK    3  A    between atoms: C_6  and  C_7 
ROOT
HETATM    1  C   UNL     1      41.253 -15.331   4.055  1.00  0.00     0.286 C 
HETATM    2  N   UNL     1      42.640 -15.026   4.637  1.00  0.00    -0.056 N 
HETATM    3  H   UNL     1      43.028 -15.880   5.075  1.00  0.00     0.278 HD
HETATM    4  H   UNL     1      43.292 -14.812   3.868  1.00  0.00     0.278 HD
HETATM    5  C   UNL     1      42.567 -13.887   5.608  1.00  0.00     0.209 C 
HETATM    6  C   UNL     1      42.111 -12.635   4.824  1.00  0.00     0.115 C 
HETATM    7  N   UNL     1      40.853 -12.872   4.116  1.00  0.00    -0.353 N 
HETATM    8  C   UNL     1      40.561 -14.069   3.494  1.00  0.00     0.249 C 
HETATM    9  O   UNL     1      39.720 -14.112   2.604  1.00  0.00    -0.271 OA
HETATM   10  C   UNL     1      43.915 -13.671   6.278  1.00  0.00     0.035 C 
HETATM   11  C   UNL     1      43.834 -12.471   7.221  1.00  0.00     0.002 C 
HETATM   12  C   UNL     1      43.352 -11.210   6.500  1.00  0.00     0.002 C 
HETATM   13  C   UNL     1      42.030 -11.427   5.758  1.00  0.00     0.027 C 
HETATM   14  H   UNL     1      40.394 -12.076   3.675  1.00  0.00     0.163 HD
ENDROOT
BRANCH   1  15
HETATM   15  C   UNL     1      41.368 -16.426   3.001  1.00  0.00     0.146 C 
BRANCH  15  16
HETATM   16  C   UNL     1      42.765 -16.381   2.459  1.00  0.00     0.224 C 
HETATM   17  N   UNL     1      43.738 -17.262   2.788  1.00  0.00    -0.325 N 
HETATM   18  H   UNL     1      44.657 -16.943   2.475  1.00  0.00     0.169 HD
HETATM   19  O   UNL     1      43.101 -15.341   1.874  1.00  0.00    -0.273 OA
BRANCH  17  20
HETATM   20  C   UNL     1      43.791 -18.440   3.556  1.00  0.00     0.073 A 
HETATM   21  C   UNL     1      43.922 -18.517   4.939  1.00  0.00     0.033 A 
HETATM   22  C   UNL     1      43.987 -19.769   5.571  1.00  0.00     0.002 A 
HETATM   23  C   UNL     1      43.909 -20.948   4.829  1.00  0.00     0.003 A 
HETATM   24  C   UNL     1      43.746 -20.885   3.450  1.00  0.00     0.044 A 
HETATM   25  C   UNL     1      43.675 -19.641   2.834  1.00  0.00     0.143 A 
HETATM   26  F   UNL     1      43.541 -19.586   1.499  1.00  0.00    -0.204 F 
ENDBRANCH  17  20
ENDBRANCH  15  16
ENDBRANCH   1  15
TORSDOF 3
ENDMDL
MODEL 7
REMARK VINA RESULT:      -7.5      3.536      5.054
REMARK  3 active torsions:
REMARK  status: ('A' for Active; 'I' for Inactive)
REMARK    1  A    between atoms: C_3  and  N_4 
REMARK       I    between atoms: N_4  and  C_5 
REMARK    2  A    between atoms: C_5  and  C_6 
REMARK    3  A    between atoms: C_6  and  C_7 
ROOT
HETATM    1  C   UNL     1      42.124 -12.615   5.874  1.00  0.00     0.286 C 
HETATM    2  N   UNL     1      41.954 -11.525   6.941  1.00  0.00    -0.056 N 
HETATM    3  H   UNL     1      41.136 -10.934   6.705  1.00  0.00     0.278 HD
HETATM    4  H   UNL     1      41.703 -11.964   7.839  1.00  0.00     0.278 HD
HETATM    5  C   UNL     1      43.206 -10.714   7.073  1.00  0.00     0.209 C 
HETATM    6  C   UNL     1      44.326 -11.661   7.559  1.00  0.00     0.115 C 
HETATM    7  N   UNL     1      44.476 -12.815   6.673  1.00  0.00    -0.353 N 
HETATM    8  C   UNL     1      43.400 -13.457   6.095  1.00  0.00     0.249 C 
HETATM    9  O   UNL     1      43.510 -14.613   5.702  1.00  0.00    -0.271 OA
HETATM   10  C   UNL     1      42.991  -9.555   8.036  1.00  0.00     0.035 C 
HETATM   11  C   UNL     1      44.295  -8.775   8.200  1.00  0.00     0.002 C 
HETATM   12  C   UNL     1      45.448  -9.677   8.647  1.00  0.00     0.002 C 
HETATM   13  C   UNL     1      45.634 -10.889   7.730  1.00  0.00     0.027 C 
HETATM   14  H   UNL     1      45.271 -13.436   6.825  1.00  0.00     0.163 HD
ENDROOT
BRANCH   1  15
HETATM   15  C   UNL     1      40.875 -13.487   5.826  1.00  0.00     0.146 C 
BRANCH  15  16
HETATM   16  C   UNL     1      40.145 -13.155   4.559  1.00  0.00     0.224 C 
HETATM   17  N   UNL     1      40.490 -13.623   3.337  1.00  0.00    -0.325 N 
HETATM   18  H   UNL     1      39.999 -13.126   2.591  1.00  0.00     0.169 HD
HETATM   19  O   UNL     1      39.341 -12.214   4.611  1.00  0.00    -0.273 OA
BRANCH  17  20
HETATM   20  C   UNL     1      41.444 -14.542   2.859  1.00  0.00     0.073 A 
HETATM   21  C   UNL     1      42.658 -14.230   2.254  1.00  0.00     0.033 A 
HETATM   22  C   UNL     1      43.502 -15.255   1.802  1.00  0.00     0.002 A 
HETATM   23  C   UNL     1      43.147 -16.595   1.960  1.00  0.00     0.003 A 
HETATM   24  C   UNL     1      41.952 -16.920   2.591  1.00  0.00     0.044 A 
HETATM   25  C   UNL     1      41.125 -15.899   3.043  1.00  0.00     0.143 A 
HETATM   26  F   UNL     1      39.961 -16.219   3.631  1.00  0.00    -0.204 F 
ENDBRANCH  17  20
ENDBRANCH  15  16
ENDBRANCH   1  15
TORSDOF 3
ENDMDL
MODEL 8
REMARK VINA RESULT:      -7.4      4.104      6.550
REMARK  3 active torsions:
REMARK  status: ('A' for Active; 'I' for Inactive)
REMARK    1  A    between atoms: C_3  and  N_4 
REMARK       I    between atoms: N_4  and  C_5 
REMARK    2  A    between atoms: C_5  and  C_6 
REMARK    3  A    between atoms: C_6  and  C_7 
ROOT
HETATM    1  C   UNL     1      40.462 -14.966   3.111  1.00  0.00     0.286 C 
HETATM    2  N   UNL     1      41.588 -15.635   2.311  1.00  0.00    -0.056 N 
HETATM    3  H   UNL     1      41.244 -15.876   1.364  1.00  0.00     0.278 HD
HETATM    4  H   UNL     1      42.341 -14.952   2.144  1.00  0.00     0.278 HD
HETATM    5  C   UNL     1      42.108 -16.839   3.036  1.00  0.00     0.209 C 
HETATM    6  C   UNL     1      42.719 -16.352   4.369  1.00  0.00     0.115 C 
HETATM    7  N   UNL     1      41.756 -15.578   5.151  1.00  0.00    -0.353 N 
HETATM    8  C   UNL     1      40.868 -14.692   4.577  1.00  0.00     0.249 C 
HETATM    9  O   UNL     1      40.370 -13.796   5.248  1.00  0.00    -0.271 OA
HETATM   10  C   UNL     1      43.132 -17.573   2.182  1.00  0.00     0.035 C 
HETATM   11  C   UNL     1      43.691 -18.764   2.961  1.00  0.00     0.002 C 
HETATM   12  C   UNL     1      44.278 -18.338   4.309  1.00  0.00     0.002 C 
HETATM   13  C   UNL     1      43.286 -17.535   5.154  1.00  0.00     0.027 C 
HETATM   14  H   UNL     1      42.010 -15.319   6.104  1.00  0.00     0.163 HD
ENDROOT
BRANCH   1  15
HETATM   15  C   UNL     1      40.016 -13.693   2.403  1.00  0.00     0.146 C 
BRANCH  15  16
HETATM   16  C   UNL     1      41.207 -13.143   1.677  1.00  0.00     0.224 C 
HETATM   17  N   UNL     1      41.344 -13.141   0.331  1.00  0.00    -0.325 N 
HETATM   18  H   UNL     1      42.299 -12.912   0.050  1.00  0.00     0.169 HD
HETATM   19  O   UNL     1      42.213 -12.904   2.360  1.00  0.00    -0.273 OA
BRANCH  17  20
HETATM   20  C   UNL     1      40.515 -13.494  -0.751  1.00  0.00     0.073 A 
HETATM   21  C   UNL     1      39.693 -14.615  -0.828  1.00  0.00     0.033 A 
HETATM   22  C   UNL     1      38.937 -14.854  -1.985  1.00  0.00     0.002 A 
HETATM   23  C   UNL     1      38.988 -13.973  -3.066  1.00  0.00     0.003 A 
HETATM   24  C   UNL     1      39.780 -12.834  -2.990  1.00  0.00     0.044 A 
HETATM   25  C   UNL     1      40.519 -12.600  -1.836  1.00  0.00     0.143 A 
HETATM   26  F   UNL     1      41.300 -11.510  -1.777  1.00  0.00    -0.204 F 
ENDBRANCH  17  20
ENDBRANCH  15  16
ENDBRANCH   1  15
TORSDOF 3
ENDMDL
MODEL 9
REMARK VINA RESULT:      -7.3      3.763      4.292
REMARK  3 active torsions:
REMARK  status: ('A' for Active; 'I' for Inactive)
REMARK    1  A    between atoms: C_3  and  N_4 
REMARK       I    between atoms: N_4  and  C_5 
REMARK    2  A    between atoms: C_5  and  C_6 
REMARK    3  A    between atoms: C_6  and  C_7 
ROOT
HETATM    1  C   UNL     1      43.024 -12.745   6.733  1.00  0.00     0.286 C 
HETATM    2  N   UNL     1      44.393 -12.211   7.178  1.00  0.00    -0.056 N 
HETATM    3  H   UNL     1      44.928 -12.970   7.637  1.00  0.00     0.278 HD
HETATM    4  H   UNL     1      44.952 -11.970   6.346  1.00  0.00     0.278 HD
HETATM    5  C   UNL     1      44.230 -11.023   8.076  1.00  0.00     0.209 C 
HETATM    6  C   UNL     1      43.547  -9.908   7.253  1.00  0.00     0.115 C 
HETATM    7  N   UNL     1      42.288 -10.365   6.667  1.00  0.00    -0.353 N 
HETATM    8  C   UNL     1      42.123 -11.634   6.150  1.00  0.00     0.249 C 
HETATM    9  O   UNL     1      41.234 -11.857   5.337  1.00  0.00    -0.271 OA
HETATM   10  C   UNL     1      45.580 -10.577   8.618  1.00  0.00     0.035 C 
HETATM   11  C   UNL     1      45.399  -9.331   9.485  1.00  0.00     0.002 C 
HETATM   12  C   UNL     1      44.693  -8.205   8.726  1.00  0.00     0.002 C 
HETATM   13  C   UNL     1      43.365  -8.655   8.110  1.00  0.00     0.027 C 
HETATM   14  H   UNL     1      41.691  -9.674   6.215  1.00  0.00     0.163 HD
ENDROOT
BRANCH   1  15
HETATM   15  C   UNL     1      43.216 -13.890   5.746  1.00  0.00     0.146 C 
BRANCH  15  16
HETATM   16  C   UNL     1      43.148 -15.170   6.524  1.00  0.00     0.224 C 
HETATM   17  N   UNL     1      42.943 -16.387   5.971  1.00  0.00    -0.325 N 
HETATM   18  H   UNL     1      42.730 -17.092   6.679  1.00  0.00     0.169 HD
HETATM   19  O   UNL     1      43.031 -15.067   7.753  1.00  0.00    -0.273 OA
BRANCH  17  20
HETATM   20  C   UNL     1      42.839 -16.874   4.654  1.00  0.00     0.073 A 
HETATM   21  C   UNL     1      41.883 -16.505   3.712  1.00  0.00     0.033 A 
HETATM   22  C   UNL     1      41.886 -17.094   2.439  1.00  0.00     0.002 A 
HETATM   23  C   UNL     1      42.848 -18.045   2.094  1.00  0.00     0.003 A 
HETATM   24  C   UNL     1      43.828 -18.398   3.014  1.00  0.00     0.044 A 
HETATM   25  C   UNL     1      43.822 -17.804   4.270  1.00  0.00     0.143 A 
HETATM   26  F   UNL     1      44.757 -18.166   5.163  1.00  0.00    -0.204 F 
ENDBRANCH  17  20
ENDBRANCH  15  16
ENDBRANCH   1  15
TORSDOF 3
ENDMDL
MODEL 10
REMARK VINA RESULT:      -7.2     14.072     16.281
REMARK  3 active torsions:
REMARK  status: ('A' for Active; 'I' for Inactive)
REMARK    1  A    between atoms: C_3  and  N_4 
REMARK       I    between atoms: N_4  and  C_5 
REMARK    2  A    between atoms: C_5  and  C_6 
REMARK    3  A    between atoms: C_6  and  C_7 
ROOT
HETATM    1  C   UNL     1      48.712 -29.771   0.645  1.00  0.00     0.286 C 
HETATM    2  N   UNL     1      49.215 -29.286   2.012  1.00  0.00    -0.056 N 
HETATM    3  H   UNL     1      49.959 -28.578   1.876  1.00  0.00     0.278 HD
HETATM    4  H   UNL     1      48.459 -28.776   2.492  1.00  0.00     0.278 HD
HETATM    5  C   UNL     1      49.691 -30.440   2.840  1.00  0.00     0.209 C 
HETATM    6  C   UNL     1      48.477 -31.361   3.098  1.00  0.00     0.115 C 
HETATM    7  N   UNL     1      47.838 -31.772   1.848  1.00  0.00    -0.353 N 
HETATM    8  C   UNL     1      47.687 -30.921   0.772  1.00  0.00     0.249 C 
HETATM    9  O   UNL     1      46.831 -31.144  -0.075  1.00  0.00    -0.271 OA
HETATM   10  C   UNL     1      50.307 -29.944   4.140  1.00  0.00     0.035 C 
HETATM   11  C   UNL     1      50.735 -31.138   4.994  1.00  0.00     0.002 C 
HETATM   12  C   UNL     1      49.574 -32.102   5.249  1.00  0.00     0.002 C 
HETATM   13  C   UNL     1      48.893 -32.557   3.955  1.00  0.00     0.027 C 
HETATM   14  H   UNL     1      47.110 -32.483   1.893  1.00  0.00     0.163 HD
ENDROOT
BRANCH   1  15
HETATM   15  C   UNL     1      48.145 -28.595  -0.140  1.00  0.00     0.146 C 
BRANCH  15  16
HETATM   16  C   UNL     1      46.860 -28.193   0.521  1.00  0.00     0.224 C 
HETATM   17  N   UNL     1      45.675 -28.081  -0.123  1.00  0.00    -0.325 N 
HETATM   18  H   UNL     1      44.978 -27.606   0.453  1.00  0.00     0.169 HD
HETATM   19  O   UNL     1      46.949 -27.705   1.657  1.00  0.00    -0.273 OA
BRANCH  17  20
HETATM   20  C   UNL     1      45.225 -28.358  -1.427  1.00  0.00     0.073 A 
HETATM   21  C   UNL     1      45.630 -27.714  -2.593  1.00  0.00     0.033 A 
HETATM   22  C   UNL     1      45.074 -28.080  -3.828  1.00  0.00     0.002 A 
HETATM   23  C   UNL     1      44.122 -29.097  -3.909  1.00  0.00     0.003 A 
HETATM   24  C   UNL     1      43.733 -29.770  -2.757  1.00  0.00     0.044 A 
HETATM   25  C   UNL     1      44.294 -29.405  -1.539  1.00  0.00     0.143 A 
HETATM   26  F   UNL     1      43.897 -30.043  -0.426  1.00  0.00    -0.204 F 
ENDBRANCH  17  20
ENDBRANCH  15  16
ENDBRANCH   1  15
TORSDOF 3
ENDMDL
