MODEL 1
REMARK VINA RESULT:      -8.4      0.000      0.000
REMARK  10 active torsions:
REMARK  status: ('A' for Active; 'I' for Inactive)
REMARK    1  A    between atoms: O_2  and  C_3 
REMARK    2  A    between atoms: C_3  and  C_4 
REMARK    3  A    between atoms: C_6  and  C_7 
REMARK    4  A    between atoms: C_7  and  C_8 
REMARK    5  A    between atoms: C_8  and  N_9 
REMARK       I    between atoms: N_9  and  C_10 
REMARK       I    between atoms: C_10  and  N_17 
REMARK    6  A    between atoms: N_17  and  CA_18 
REMARK    7  A    between atoms: CA_18  and  C_19 
REMARK    8  A    between atoms: CA_18  and  CB_21 
REMARK    9  A    between atoms: C_19  and  O_20 
REMARK   10  A    between atoms: CB_21  and  CG_22 
ROOT
HETATM    1  N   UNK A   0      45.073 -11.164   6.691  1.00  0.00    -0.343 N 
HETATM    2  C   UNK A   0      44.116 -12.126   6.891  1.00  0.00     0.316 C 
HETATM    3  O   UNK A   0      43.998 -12.782   7.915  1.00  0.00    -0.248 OA
HETATM    4  H   UNK A   0      44.841 -10.466   6.000  1.00  0.00     0.164 HD
ATOM      5  N   TRP A   1      43.301 -12.233   5.794  1.00  0.00    -0.336 N 
ATOM      6  H   TRP A   1      43.817 -12.091   4.935  1.00  0.00     0.164 HD
ENDROOT
BRANCH   5   7
ATOM      7  CA  TRP A   1      42.264 -13.279   5.709  1.00  0.00     0.114 C 
BRANCH   7   8
ATOM      8  C   TRP A   1      40.848 -12.672   5.613  1.00  0.00     0.189 C 
BRANCH   8   9
ATOM      9  O   TRP A   1      40.058 -13.058   6.738  1.00  0.00    -0.399 OA
ATOM     10  H   TRP A   1      40.199 -14.018   6.829  1.00  0.00     0.209 HD
ENDBRANCH   8   9
ENDBRANCH   7   8
BRANCH   7  11
ATOM     11  CB  TRP A   1      42.507 -14.195   4.487  1.00  0.00     0.068 C 
BRANCH  11  12
ATOM     12  CG  TRP A   1      43.182 -15.488   4.844  1.00  0.00    -0.028 A 
ATOM     13  CD2 TRP A   1      43.270 -16.665   4.031  1.00  0.00    -0.002 A 
ATOM     14  CE2 TRP A   1      44.004 -17.612   4.742  1.00  0.00     0.042 A 
ATOM     15  CE3 TRP A   1      42.798 -17.008   2.745  1.00  0.00     0.014 A 
ATOM     16  CZ2 TRP A   1      44.299 -18.882   4.233  1.00  0.00     0.030 A 
ATOM     17  NE1 TRP A   1      44.331 -17.046   5.952  1.00  0.00    -0.365 N 
ATOM     18  CH2 TRP A   1      43.827 -19.193   2.955  1.00  0.00     0.002 A 
ATOM     19  CZ3 TRP A   1      43.086 -18.272   2.220  1.00  0.00     0.001 A 
ATOM     20  HE1 TRP A   1      44.857 -17.511   6.680  1.00  0.00     0.165 HD
ATOM     21  CD1 TRP A   1      43.843 -15.768   6.025  1.00  0.00     0.096 A 
ENDBRANCH  11  12
ENDBRANCH   7  11
ENDBRANCH   5   7
BRANCH   1  22
HETATM   22  C   UNK A   0      45.960 -10.760   7.766  1.00  0.00     0.129 C 
BRANCH  22  23
HETATM   23  C   UNK A   0      45.994  -9.243   7.971  1.00  0.00     0.058 C 
BRANCH  23  24
HETATM   24  C   UNK A   0      44.903  -8.793   8.913  1.00  0.00    -0.056 A 
HETATM   25  C   UNK A   0      44.513  -9.600   9.992  1.00  0.00     0.024 A 
HETATM   26  C   UNK A   0      43.521  -9.169  10.887  1.00  0.00     0.040 A 
HETATM   27  C   UNK A   0      42.918  -7.919  10.697  1.00  0.00     0.017 A 
HETATM   28  C   UNK A   0      43.306  -7.111   9.627  1.00  0.00     0.002 A 
HETATM   29  C   UNK A   0      44.293  -7.543   8.741  1.00  0.00     0.007 A 
BRANCH  26  30
HETATM   30  C   UNK A   0      43.153 -10.070  12.014  1.00  0.00     0.292 C 
HETATM   31  O   UNK A   0      43.604 -11.197  12.150  1.00  0.00    -0.259 OA
BRANCH  30  32
HETATM   32  O   UNK A   0      42.270  -9.463  12.846  1.00  0.00    -0.323 OA
HETATM   33  C   UNK A   0      40.987 -10.090  12.886  1.00  0.00     0.213 C 
ENDBRANCH  30  32
ENDBRANCH  26  30
ENDBRANCH  23  24
ENDBRANCH  22  23
ENDBRANCH   1  22
TORSDOF 10
ENDMDL
MODEL 2
REMARK VINA RESULT:      -8.3      1.770      2.639
REMARK  10 active torsions:
REMARK  status: ('A' for Active; 'I' for Inactive)
REMARK    1  A    between atoms: O_2  and  C_3 
REMARK    2  A    between atoms: C_3  and  C_4 
REMARK    3  A    between atoms: C_6  and  C_7 
REMARK    4  A    between atoms: C_7  and  C_8 
REMARK    5  A    between atoms: C_8  and  N_9 
REMARK       I    between atoms: N_9  and  C_10 
REMARK       I    between atoms: C_10  and  N_17 
REMARK    6  A    between atoms: N_17  and  CA_18 
REMARK    7  A    between atoms: CA_18  and  C_19 
REMARK    8  A    between atoms: CA_18  and  CB_21 
REMARK    9  A    between atoms: C_19  and  O_20 
REMARK   10  A    between atoms: CB_21  and  CG_22 
ROOT
HETATM    1  N   UNK A   0      43.565 -12.069   4.263  1.00  0.00    -0.343 N 
HETATM    2  C   UNK A   0      42.629 -13.070   4.300  1.00  0.00     0.316 C 
HETATM    3  O   UNK A   0      41.996 -13.389   5.294  1.00  0.00    -0.248 OA
HETATM    4  H   UNK A   0      43.727 -11.666   3.352  1.00  0.00     0.164 HD
ATOM      5  N   TRP A   1      42.487 -13.646   3.063  1.00  0.00    -0.336 N 
ATOM      6  H   TRP A   1      43.372 -13.689   2.573  1.00  0.00     0.164 HD
ENDROOT
BRANCH   5   7
ATOM      7  CA  TRP A   1      41.627 -14.826   2.862  1.00  0.00     0.114 C 
BRANCH   7   8
ATOM      8  C   TRP A   1      40.433 -14.511   1.936  1.00  0.00     0.189 C 
BRANCH   8   9
ATOM      9  O   TRP A   1      39.266 -15.214   2.364  1.00  0.00    -0.399 OA
ATOM     10  H   TRP A   1      38.740 -14.557   2.856  1.00  0.00     0.209 HD
ENDBRANCH   8   9
ENDBRANCH   7   8
BRANCH   7  11
ATOM     11  CB  TRP A   1      42.436 -16.000   2.263  1.00  0.00     0.068 C 
BRANCH  11  12
ATOM     12  CG  TRP A   1      43.003 -16.919   3.307  1.00  0.00    -0.028 A 
ATOM     13  CD2 TRP A   1      43.289 -18.315   3.158  1.00  0.00    -0.002 A 
ATOM     14  CE2 TRP A   1      43.827 -18.763   4.364  1.00  0.00     0.042 A 
ATOM     15  CE3 TRP A   1      43.149 -19.240   2.101  1.00  0.00     0.014 A 
ATOM     16  CZ2 TRP A   1      44.238 -20.086   4.566  1.00  0.00     0.030 A 
ATOM     17  NE1 TRP A   1      43.845 -17.690   5.223  1.00  0.00    -0.365 N 
ATOM     18  CH2 TRP A   1      44.095 -20.979   3.501  1.00  0.00     0.002 A 
ATOM     19  CZ3 TRP A   1      43.557 -20.566   2.285  1.00  0.00     0.001 A 
ATOM     20  HE1 TRP A   1      44.176 -17.725   6.177  1.00  0.00     0.165 HD
ATOM     21  CD1 TRP A   1      43.355 -16.574   4.598  1.00  0.00     0.096 A 
ENDBRANCH  11  12
ENDBRANCH   7  11
ENDBRANCH   5   7
BRANCH   1  22
HETATM   22  C   UNK A   0      43.782 -11.209   5.412  1.00  0.00     0.129 C 
BRANCH  22  23
HETATM   23  C   UNK A   0      44.963 -11.658   6.277  1.00  0.00     0.058 C 
BRANCH  23  24
HETATM   24  C   UNK A   0      45.082 -10.813   7.523  1.00  0.00    -0.056 A 
HETATM   25  C   UNK A   0      44.300 -11.093   8.654  1.00  0.00     0.024 A 
HETATM   26  C   UNK A   0      44.432 -10.328   9.823  1.00  0.00     0.040 A 
HETATM   27  C   UNK A   0      45.356  -9.276   9.857  1.00  0.00     0.017 A 
HETATM   28  C   UNK A   0      46.138  -8.995   8.735  1.00  0.00     0.002 A 
HETATM   29  C   UNK A   0      46.004  -9.759   7.576  1.00  0.00     0.007 A 
BRANCH  26  30
HETATM   30  C   UNK A   0      43.577 -10.678  10.990  1.00  0.00     0.292 C 
HETATM   31  O   UNK A   0      43.913 -11.467  11.859  1.00  0.00    -0.259 OA
BRANCH  30  32
HETATM   32  O   UNK A   0      42.402 -10.001  10.945  1.00  0.00    -0.323 OA
HETATM   33  C   UNK A   0      42.015  -9.428  12.194  1.00  0.00     0.213 C 
ENDBRANCH  30  32
ENDBRANCH  26  30
ENDBRANCH  23  24
ENDBRANCH  22  23
ENDBRANCH   1  22
TORSDOF 10
ENDMDL
MODEL 3
REMARK VINA RESULT:      -8.2      2.512      9.691
REMARK  10 active torsions:
REMARK  status: ('A' for Active; 'I' for Inactive)
REMARK    1  A    between atoms: O_2  and  C_3 
REMARK    2  A    between atoms: C_3  and  C_4 
REMARK    3  A    between atoms: C_6  and  C_7 
REMARK    4  A    between atoms: C_7  and  C_8 
REMARK    5  A    between atoms: C_8  and  N_9 
REMARK       I    between atoms: N_9  and  C_10 
REMARK       I    between atoms: C_10  and  N_17 
REMARK    6  A    between atoms: N_17  and  CA_18 
REMARK    7  A    between atoms: CA_18  and  C_19 
REMARK    8  A    between atoms: CA_18  and  CB_21 
REMARK    9  A    between atoms: C_19  and  O_20 
REMARK   10  A    between atoms: CB_21  and  CG_22 
ROOT
HETATM    1  N   UNK A   0      42.476 -12.135   6.333  1.00  0.00    -0.343 N 
HETATM    2  C   UNK A   0      43.652 -12.096   7.036  1.00  0.00     0.316 C 
HETATM    3  O   UNK A   0      44.422 -13.038   7.148  1.00  0.00    -0.248 OA
HETATM    4  H   UNK A   0      42.140 -11.240   6.009  1.00  0.00     0.164 HD
ATOM      5  N   TRP A   1      43.854 -10.851   7.574  1.00  0.00    -0.336 N 
ATOM      6  H   TRP A   1      42.981 -10.432   7.870  1.00  0.00     0.164 HD
ENDROOT
BRANCH   5   7
ATOM      7  CA  TRP A   1      44.990 -10.581   8.475  1.00  0.00     0.114 C 
BRANCH   7   8
ATOM      8  C   TRP A   1      46.283 -10.279   7.688  1.00  0.00     0.189 C 
BRANCH   8   9
ATOM      9  O   TRP A   1      46.571  -8.881   7.711  1.00  0.00    -0.399 OA
ATOM     10  H   TRP A   1      46.065  -8.505   6.967  1.00  0.00     0.209 HD
ENDBRANCH   8   9
ENDBRANCH   7   8
BRANCH   7  11
ATOM     11  CB  TRP A   1      44.677  -9.390   9.410  1.00  0.00     0.068 C 
BRANCH  11  12
ATOM     12  CG  TRP A   1      43.992  -9.803  10.682  1.00  0.00    -0.028 A 
ATOM     13  CD2 TRP A   1      43.315  -8.946  11.610  1.00  0.00    -0.002 A 
ATOM     14  CE2 TRP A   1      42.806  -9.751  12.628  1.00  0.00     0.042 A 
ATOM     15  CE3 TRP A   1      43.078  -7.556  11.672  1.00  0.00     0.014 A 
ATOM     16  CZ2 TRP A   1      42.067  -9.240  13.702  1.00  0.00     0.030 A 
ATOM     17  NE1 TRP A   1      43.180 -11.044  12.347  1.00  0.00    -0.365 N 
ATOM     18  CH2 TRP A   1      41.841  -7.861  13.735  1.00  0.00     0.002 A 
ATOM     19  CZ3 TRP A   1      42.339  -7.028  12.736  1.00  0.00     0.001 A 
ATOM     20  HE1 TRP A   1      42.956 -11.844  12.923  1.00  0.00     0.165 HD
ATOM     21  CD1 TRP A   1      43.891 -11.088  11.177  1.00  0.00     0.096 A 
ENDBRANCH  11  12
ENDBRANCH   7  11
ENDBRANCH   5   7
BRANCH   1  22
HETATM   22  C   UNK A   0      42.116 -13.299   5.545  1.00  0.00     0.129 C 
BRANCH  22  23
HETATM   23  C   UNK A   0      42.593 -13.206   4.093  1.00  0.00     0.058 C 
BRANCH  23  24
HETATM   24  C   UNK A   0      42.913 -14.571   3.533  1.00  0.00    -0.056 A 
HETATM   25  C   UNK A   0      43.130 -15.662   4.389  1.00  0.00     0.024 A 
HETATM   26  C   UNK A   0      43.397 -16.938   3.869  1.00  0.00     0.040 A 
HETATM   27  C   UNK A   0      43.445 -17.121   2.481  1.00  0.00     0.017 A 
HETATM   28  C   UNK A   0      43.226 -16.039   1.625  1.00  0.00     0.002 A 
HETATM   29  C   UNK A   0      42.961 -14.773   2.147  1.00  0.00     0.007 A 
BRANCH  26  30
HETATM   30  C   UNK A   0      43.615 -18.055   4.829  1.00  0.00     0.292 C 
HETATM   31  O   UNK A   0      43.412 -17.960   6.029  1.00  0.00    -0.259 OA
BRANCH  30  32
HETATM   32  O   UNK A   0      44.056 -19.164   4.184  1.00  0.00    -0.323 OA
HETATM   33  C   UNK A   0      44.299 -20.277   5.046  1.00  0.00     0.213 C 
ENDBRANCH  30  32
ENDBRANCH  26  30
ENDBRANCH  23  24
ENDBRANCH  22  23
ENDBRANCH   1  22
TORSDOF 10
ENDMDL
MODEL 4
REMARK VINA RESULT:      -7.9      1.804      2.440
REMARK  10 active torsions:
REMARK  status: ('A' for Active; 'I' for Inactive)
REMARK    1  A    between atoms: O_2  and  C_3 
REMARK    2  A    between atoms: C_3  and  C_4 
REMARK    3  A    between atoms: C_6  and  C_7 
REMARK    4  A    between atoms: C_7  and  C_8 
REMARK    5  A    between atoms: C_8  and  N_9 
REMARK       I    between atoms: N_9  and  C_10 
REMARK       I    between atoms: C_10  and  N_17 
REMARK    6  A    between atoms: N_17  and  CA_18 
REMARK    7  A    between atoms: CA_18  and  C_19 
REMARK    8  A    between atoms: CA_18  and  CB_21 
REMARK    9  A    between atoms: C_19  and  O_20 
REMARK   10  A    between atoms: CB_21  and  CG_22 
ROOT
HETATM    1  N   UNK A   0      43.685 -11.563   7.891  1.00  0.00    -0.343 N 
HETATM    2  C   UNK A   0      43.893 -12.717   7.181  1.00  0.00     0.316 C 
HETATM    3  O   UNK A   0      44.766 -12.864   6.339  1.00  0.00    -0.248 OA
HETATM    4  H   UNK A   0      43.217 -11.681   8.776  1.00  0.00     0.164 HD
ATOM      5  N   TRP A   1      43.002 -13.687   7.563  1.00  0.00    -0.336 N 
ATOM      6  H   TRP A   1      42.097 -13.290   7.783  1.00  0.00     0.164 HD
ENDROOT
BRANCH   5   7
ATOM      7  CA  TRP A   1      42.939 -14.986   6.868  1.00  0.00     0.114 C 
BRANCH   7   8
ATOM      8  C   TRP A   1      43.251 -16.159   7.820  1.00  0.00     0.189 C 
BRANCH   8   9
ATOM      9  O   TRP A   1      43.332 -15.702   9.170  1.00  0.00    -0.399 OA
ATOM     10  H   TRP A   1      44.163 -15.193   9.216  1.00  0.00     0.209 HD
ENDBRANCH   8   9
ENDBRANCH   7   8
BRANCH   7  11
ATOM     11  CB  TRP A   1      41.544 -15.203   6.237  1.00  0.00     0.068 C 
BRANCH  11  12
ATOM     12  CG  TRP A   1      41.607 -15.673   4.812  1.00  0.00    -0.028 A 
ATOM     13  CD2 TRP A   1      42.443 -16.712   4.287  1.00  0.00    -0.002 A 
ATOM     14  CE2 TRP A   1      42.156 -16.833   2.928  1.00  0.00     0.042 A 
ATOM     15  CE3 TRP A   1      43.412 -17.571   4.847  1.00  0.00     0.014 A 
ATOM     16  CZ2 TRP A   1      42.783 -17.772   2.100  1.00  0.00     0.030 A 
ATOM     17  NE1 TRP A   1      41.202 -15.889   2.630  1.00  0.00    -0.365 N 
ATOM     18  CH2 TRP A   1      43.734 -18.615   2.682  1.00  0.00     0.002 A 
ATOM     19  CZ3 TRP A   1      44.048 -18.517   4.035  1.00  0.00     0.001 A 
ATOM     20  HE1 TRP A   1      40.810 -15.740   1.710  1.00  0.00     0.165 HD
ATOM     21  CD1 TRP A   1      40.862 -15.187   3.755  1.00  0.00     0.096 A 
ENDBRANCH  11  12
ENDBRANCH   7  11
ENDBRANCH   5   7
BRANCH   1  22
HETATM   22  C   UNK A   0      44.600 -10.441   7.774  1.00  0.00     0.129 C 
BRANCH  22  23
HETATM   23  C   UNK A   0      45.179 -10.002   9.122  1.00  0.00     0.058 C 
BRANCH  23  24
HETATM   24  C   UNK A   0      44.318  -8.943   9.769  1.00  0.00    -0.056 A 
HETATM   25  C   UNK A   0      44.026  -8.999  11.140  1.00  0.00     0.024 A 
HETATM   26  C   UNK A   0      43.252  -8.000  11.749  1.00  0.00     0.040 A 
HETATM   27  C   UNK A   0      42.768  -6.936  10.976  1.00  0.00     0.017 A 
HETATM   28  C   UNK A   0      43.058  -6.875   9.612  1.00  0.00     0.002 A 
HETATM   29  C   UNK A   0      43.829  -7.871   9.012  1.00  0.00     0.007 A 
BRANCH  26  30
HETATM   30  C   UNK A   0      42.981  -8.114  13.209  1.00  0.00     0.292 C 
HETATM   31  O   UNK A   0      43.401  -7.320  14.036  1.00  0.00    -0.259 OA
BRANCH  30  32
HETATM   32  O   UNK A   0      42.214  -9.202  13.472  1.00  0.00    -0.323 OA
HETATM   33  C   UNK A   0      41.107  -8.936  14.334  1.00  0.00     0.213 C 
ENDBRANCH  30  32
ENDBRANCH  26  30
ENDBRANCH  23  24
ENDBRANCH  22  23
ENDBRANCH   1  22
TORSDOF 10
ENDMDL
MODEL 5
REMARK VINA RESULT:      -7.8      2.628      8.415
REMARK  10 active torsions:
REMARK  status: ('A' for Active; 'I' for Inactive)
REMARK    1  A    between atoms: O_2  and  C_3 
REMARK    2  A    between atoms: C_3  and  C_4 
REMARK    3  A    between atoms: C_6  and  C_7 
REMARK    4  A    between atoms: C_7  and  C_8 
REMARK    5  A    between atoms: C_8  and  N_9 
REMARK       I    between atoms: N_9  and  C_10 
REMARK       I    between atoms: C_10  and  N_17 
REMARK    6  A    between atoms: N_17  and  CA_18 
REMARK    7  A    between atoms: CA_18  and  C_19 
REMARK    8  A    between atoms: CA_18  and  CB_21 
REMARK    9  A    between atoms: C_19  and  O_20 
REMARK   10  A    between atoms: CB_21  and  CG_22 
ROOT
HETATM    1  N   UNK A   0      41.806 -13.949   2.404  1.00  0.00    -0.343 N 
HETATM    2  C   UNK A   0      41.660 -13.595   3.720  1.00  0.00     0.316 C 
HETATM    3  O   UNK A   0      41.190 -14.321   4.584  1.00  0.00    -0.248 OA
HETATM    4  H   UNK A   0      42.518 -13.443   1.899  1.00  0.00     0.164 HD
ATOM      5  N   TRP A   1      42.133 -12.327   3.936  1.00  0.00    -0.336 N 
ATOM      6  H   TRP A   1      41.947 -11.724   3.143  1.00  0.00     0.164 HD
ENDROOT
BRANCH   5   7
ATOM      7  CA  TRP A   1      41.984 -11.665   5.245  1.00  0.00     0.114 C 
BRANCH   7   8
ATOM      8  C   TRP A   1      40.512 -11.640   5.708  1.00  0.00     0.189 C 
BRANCH   8   9
ATOM      9  O   TRP A   1      40.292 -12.604   6.737  1.00  0.00    -0.399 OA
ATOM     10  H   TRP A   1      39.380 -12.446   7.043  1.00  0.00     0.209 HD
ENDBRANCH   8   9
ENDBRANCH   7   8
BRANCH   7  11
ATOM     11  CB  TRP A   1      42.840 -12.375   6.319  1.00  0.00     0.068 C 
BRANCH  11  12
ATOM     12  CG  TRP A   1      44.086 -11.616   6.677  1.00  0.00    -0.028 A 
ATOM     13  CD2 TRP A   1      44.330 -10.887   7.887  1.00  0.00    -0.002 A 
ATOM     14  CE2 TRP A   1      45.620 -10.364   7.808  1.00  0.00     0.042 A 
ATOM     15  CE3 TRP A   1      43.574 -10.633   9.051  1.00  0.00     0.014 A 
ATOM     16  CZ2 TRP A   1      46.196  -9.605   8.834  1.00  0.00     0.030 A 
ATOM     17  NE1 TRP A   1      46.133 -10.736   6.587  1.00  0.00    -0.365 N 
ATOM     18  CH2 TRP A   1      45.428  -9.375   9.979  1.00  0.00     0.002 A 
ATOM     19  CZ3 TRP A   1      44.134  -9.879  10.088  1.00  0.00     0.001 A 
ATOM     20  HE1 TRP A   1      47.054 -10.486   6.253  1.00  0.00     0.165 HD
ATOM     21  CD1 TRP A   1      45.221 -11.491   5.900  1.00  0.00     0.096 A 
ENDBRANCH  11  12
ENDBRANCH   7  11
ENDBRANCH   5   7
BRANCH   1  22
HETATM   22  C   UNK A   0      41.518 -15.301   1.959  1.00  0.00     0.129 C 
BRANCH  22  23
HETATM   23  C   UNK A   0      42.769 -16.056   1.500  1.00  0.00     0.058 C 
BRANCH  23  24
HETATM   24  C   UNK A   0      43.242 -17.026   2.556  1.00  0.00    -0.056 A 
HETATM   25  C   UNK A   0      43.518 -16.584   3.858  1.00  0.00     0.024 A 
HETATM   26  C   UNK A   0      43.928 -17.490   4.849  1.00  0.00     0.040 A 
HETATM   27  C   UNK A   0      44.060 -18.847   4.530  1.00  0.00     0.017 A 
HETATM   28  C   UNK A   0      43.783 -19.292   3.236  1.00  0.00     0.002 A 
HETATM   29  C   UNK A   0      43.375 -18.388   2.255  1.00  0.00     0.007 A 
BRANCH  26  30
HETATM   30  C   UNK A   0      44.203 -16.960   6.214  1.00  0.00     0.292 C 
HETATM   31  O   UNK A   0      45.237 -16.386   6.518  1.00  0.00    -0.259 OA
BRANCH  30  32
HETATM   32  O   UNK A   0      43.156 -17.201   7.042  1.00  0.00    -0.323 OA
HETATM   33  C   UNK A   0      42.420 -16.030   7.401  1.00  0.00     0.213 C 
ENDBRANCH  30  32
ENDBRANCH  26  30
ENDBRANCH  23  24
ENDBRANCH  22  23
ENDBRANCH   1  22
TORSDOF 10
ENDMDL
MODEL 6
REMARK VINA RESULT:      -7.7      2.290      3.529
REMARK  10 active torsions:
REMARK  status: ('A' for Active; 'I' for Inactive)
REMARK    1  A    between atoms: O_2  and  C_3 
REMARK    2  A    between atoms: C_3  and  C_4 
REMARK    3  A    between atoms: C_6  and  C_7 
REMARK    4  A    between atoms: C_7  and  C_8 
REMARK    5  A    between atoms: C_8  and  N_9 
REMARK       I    between atoms: N_9  and  C_10 
REMARK       I    between atoms: C_10  and  N_17 
REMARK    6  A    between atoms: N_17  and  CA_18 
REMARK    7  A    between atoms: CA_18  and  C_19 
REMARK    8  A    between atoms: CA_18  and  CB_21 
REMARK    9  A    between atoms: C_19  and  O_20 
REMARK   10  A    between atoms: CB_21  and  CG_22 
ROOT
HETATM    1  N   UNK A   0      43.248 -12.731   4.187  1.00  0.00    -0.343 N 
HETATM    2  C   UNK A   0      41.934 -12.937   3.853  1.00  0.00     0.316 C 
HETATM    3  O   UNK A   0      40.987 -12.404   4.410  1.00  0.00    -0.248 OA
HETATM    4  H   UNK A   0      43.912 -12.912   3.449  1.00  0.00     0.164 HD
ATOM      5  N   TRP A   1      41.834 -13.803   2.795  1.00  0.00    -0.336 N 
ATOM      6  H   TRP A   1      42.547 -14.521   2.838  1.00  0.00     0.164 HD
ENDROOT
BRANCH   5   7
ATOM      7  CA  TRP A   1      40.523 -14.281   2.318  1.00  0.00     0.114 C 
BRANCH   7   8
ATOM      8  C   TRP A   1      40.450 -14.303   0.776  1.00  0.00     0.189 C 
BRANCH   8   9
ATOM      9  O   TRP A   1      39.448 -15.218   0.333  1.00  0.00    -0.399 OA
ATOM     10  H   TRP A   1      38.742 -14.660  -0.040  1.00  0.00     0.209 HD
ENDBRANCH   8   9
ENDBRANCH   7   8
BRANCH   7  11
ATOM     11  CB  TRP A   1      40.226 -15.699   2.859  1.00  0.00     0.068 C 
BRANCH  11  12
ATOM     12  CG  TRP A   1      41.466 -16.461   3.229  1.00  0.00    -0.028 A 
ATOM     13  CD2 TRP A   1      42.033 -16.595   4.539  1.00  0.00    -0.002 A 
ATOM     14  CE2 TRP A   1      43.160 -17.407   4.426  1.00  0.00     0.042 A 
ATOM     15  CE3 TRP A   1      41.682 -16.107   5.816  1.00  0.00     0.014 A 
ATOM     16  CZ2 TRP A   1      43.953 -17.762   5.524  1.00  0.00     0.030 A 
ATOM     17  NE1 TRP A   1      43.292 -17.735   3.097  1.00  0.00    -0.365 N 
ATOM     18  CH2 TRP A   1      43.579 -17.272   6.778  1.00  0.00     0.002 A 
ATOM     19  CZ3 TRP A   1      42.462 -16.454   6.925  1.00  0.00     0.001 A 
ATOM     20  HE1 TRP A   1      44.032 -18.310   2.719  1.00  0.00     0.165 HD
ATOM     21  CD1 TRP A   1      42.277 -17.174   2.368  1.00  0.00     0.096 A 
ENDBRANCH  11  12
ENDBRANCH   7  11
ENDBRANCH   5   7
BRANCH   1  22
HETATM   22  C   UNK A   0      43.618 -11.736   5.177  1.00  0.00     0.129 C 
BRANCH  22  23
HETATM   23  C   UNK A   0      44.182 -12.353   6.460  1.00  0.00     0.058 C 
BRANCH  23  24
HETATM   24  C   UNK A   0      44.706 -11.289   7.395  1.00  0.00    -0.056 A 
HETATM   25  C   UNK A   0      44.100 -11.073   8.642  1.00  0.00     0.024 A 
HETATM   26  C   UNK A   0      44.605 -10.106   9.525  1.00  0.00     0.040 A 
HETATM   27  C   UNK A   0      45.725  -9.352   9.155  1.00  0.00     0.017 A 
HETATM   28  C   UNK A   0      46.333  -9.566   7.916  1.00  0.00     0.002 A 
HETATM   29  C   UNK A   0      45.828 -10.529   7.042  1.00  0.00     0.007 A 
BRANCH  26  30
HETATM   30  C   UNK A   0      43.919  -9.927  10.835  1.00  0.00     0.292 C 
HETATM   31  O   UNK A   0      43.594 -10.856  11.558  1.00  0.00    -0.259 OA
BRANCH  30  32
HETATM   32  O   UNK A   0      43.722  -8.611  11.099  1.00  0.00    -0.323 OA
HETATM   33  C   UNK A   0      43.203  -8.353  12.404  1.00  0.00     0.213 C 
ENDBRANCH  30  32
ENDBRANCH  26  30
ENDBRANCH  23  24
ENDBRANCH  22  23
ENDBRANCH   1  22
TORSDOF 10
ENDMDL
MODEL 7
REMARK VINA RESULT:      -7.7      6.506      9.977
REMARK  10 active torsions:
REMARK  status: ('A' for Active; 'I' for Inactive)
REMARK    1  A    between atoms: O_2  and  C_3 
REMARK    2  A    between atoms: C_3  and  C_4 
REMARK    3  A    between atoms: C_6  and  C_7 
REMARK    4  A    between atoms: C_7  and  C_8 
REMARK    5  A    between atoms: C_8  and  N_9 
REMARK       I    between atoms: N_9  and  C_10 
REMARK       I    between atoms: C_10  and  N_17 
REMARK    6  A    between atoms: N_17  and  CA_18 
REMARK    7  A    between atoms: CA_18  and  C_19 
REMARK    8  A    between atoms: CA_18  and  CB_21 
REMARK    9  A    between atoms: C_19  and  O_20 
REMARK   10  A    between atoms: CB_21  and  CG_22 
ROOT
HETATM    1  N   UNK A   0      39.477 -13.687   1.541  1.00  0.00    -0.343 N 
HETATM    2  C   UNK A   0      40.373 -13.182   0.635  1.00  0.00     0.316 C 
HETATM    3  O   UNK A   0      41.560 -13.000   0.863  1.00  0.00    -0.248 OA
HETATM    4  H   UNK A   0      38.663 -14.128   1.140  1.00  0.00     0.164 HD
ATOM      5  N   TRP A   1      39.759 -12.932  -0.565  1.00  0.00    -0.336 N 
ATOM      6  H   TRP A   1      38.811 -12.602  -0.433  1.00  0.00     0.164 HD
ENDROOT
BRANCH   5   7
ATOM      7  CA  TRP A   1      40.479 -12.275  -1.672  1.00  0.00     0.114 C 
BRANCH   7   8
ATOM      8  C   TRP A   1      40.323 -13.052  -2.996  1.00  0.00     0.189 C 
BRANCH   8   9
ATOM      9  O   TRP A   1      41.580 -13.581  -3.418  1.00  0.00    -0.399 OA
ATOM     10  H   TRP A   1      42.183 -13.435  -2.666  1.00  0.00     0.209 HD
ENDBRANCH   8   9
ENDBRANCH   7   8
BRANCH   7  11
ATOM     11  CB  TRP A   1      39.973 -10.827  -1.872  1.00  0.00     0.068 C 
BRANCH  11  12
ATOM     12  CG  TRP A   1      40.979  -9.789  -1.466  1.00  0.00    -0.028 A 
ATOM     13  CD2 TRP A   1      41.581  -8.799  -2.310  1.00  0.00    -0.002 A 
ATOM     14  CE2 TRP A   1      42.430  -8.031  -1.515  1.00  0.00     0.042 A 
ATOM     15  CE3 TRP A   1      41.471  -8.478  -3.680  1.00  0.00     0.014 A 
ATOM     16  CZ2 TRP A   1      43.172  -6.955  -2.016  1.00  0.00     0.030 A 
ATOM     17  NE1 TRP A   1      42.370  -8.547  -0.242  1.00  0.00    -0.365 N 
ATOM     18  CH2 TRP A   1      43.039  -6.654  -3.375  1.00  0.00     0.002 A 
ATOM     19  CZ3 TRP A   1      42.204  -7.404  -4.198  1.00  0.00     0.001 A 
ATOM     20  HE1 TRP A   1      42.895  -8.193   0.546  1.00  0.00     0.165 HD
ATOM     21  CD1 TRP A   1      41.499  -9.603  -0.200  1.00  0.00     0.096 A 
ENDBRANCH  11  12
ENDBRANCH   7  11
ENDBRANCH   5   7
BRANCH   1  22
HETATM   22  C   UNK A   0      39.919 -14.172   2.836  1.00  0.00     0.129 C 
BRANCH  22  23
HETATM   23  C   UNK A   0      39.860 -15.698   2.952  1.00  0.00     0.058 C 
BRANCH  23  24
HETATM   24  C   UNK A   0      41.225 -16.279   3.233  1.00  0.00    -0.056 A 
HETATM   25  C   UNK A   0      41.663 -16.470   4.553  1.00  0.00     0.024 A 
HETATM   26  C   UNK A   0      42.918 -17.039   4.815  1.00  0.00     0.040 A 
HETATM   27  C   UNK A   0      43.739 -17.421   3.746  1.00  0.00     0.017 A 
HETATM   28  C   UNK A   0      43.306 -17.236   2.432  1.00  0.00     0.002 A 
HETATM   29  C   UNK A   0      42.057 -16.670   2.176  1.00  0.00     0.007 A 
BRANCH  26  30
HETATM   30  C   UNK A   0      43.324 -17.218   6.237  1.00  0.00     0.292 C 
HETATM   31  O   UNK A   0      43.224 -18.277   6.837  1.00  0.00    -0.259 OA
BRANCH  30  32
HETATM   32  O   UNK A   0      43.811 -16.059   6.747  1.00  0.00    -0.323 OA
HETATM   33  C   UNK A   0      42.988 -15.482   7.762  1.00  0.00     0.213 C 
ENDBRANCH  30  32
ENDBRANCH  26  30
ENDBRANCH  23  24
ENDBRANCH  22  23
ENDBRANCH   1  22
TORSDOF 10
ENDMDL
MODEL 8
REMARK VINA RESULT:      -7.6      2.107      3.032
REMARK  10 active torsions:
REMARK  status: ('A' for Active; 'I' for Inactive)
REMARK    1  A    between atoms: O_2  and  C_3 
REMARK    2  A    between atoms: C_3  and  C_4 
REMARK    3  A    between atoms: C_6  and  C_7 
REMARK    4  A    between atoms: C_7  and  C_8 
REMARK    5  A    between atoms: C_8  and  N_9 
REMARK       I    between atoms: N_9  and  C_10 
REMARK       I    between atoms: C_10  and  N_17 
REMARK    6  A    between atoms: N_17  and  CA_18 
REMARK    7  A    between atoms: CA_18  and  C_19 
REMARK    8  A    between atoms: CA_18  and  CB_21 
REMARK    9  A    between atoms: C_19  and  O_20 
REMARK   10  A    between atoms: CB_21  and  CG_22 
ROOT
HETATM    1  N   UNK A   0      43.550 -11.260   7.895  1.00  0.00    -0.343 N 
HETATM    2  C   UNK A   0      43.978 -12.393   7.253  1.00  0.00     0.316 C 
HETATM    3  O   UNK A   0      45.023 -12.480   6.628  1.00  0.00    -0.248 OA
HETATM    4  H   UNK A   0      42.903 -11.415   8.655  1.00  0.00     0.164 HD
ATOM      5  N   TRP A   1      43.083 -13.416   7.430  1.00  0.00    -0.336 N 
ATOM      6  H   TRP A   1      42.130 -13.075   7.442  1.00  0.00     0.164 HD
ENDROOT
BRANCH   5   7
ATOM      7  CA  TRP A   1      43.252 -14.710   6.741  1.00  0.00     0.114 C 
BRANCH   7   8
ATOM      8  C   TRP A   1      43.867 -15.776   7.672  1.00  0.00     0.189 C 
BRANCH   8   9
ATOM      9  O   TRP A   1      43.276 -15.711   8.970  1.00  0.00    -0.399 OA
ATOM     10  H   TRP A   1      42.374 -16.065   8.855  1.00  0.00     0.209 HD
ENDBRANCH   8   9
ENDBRANCH   7   8
BRANCH   7  11
ATOM     11  CB  TRP A   1      41.898 -15.227   6.204  1.00  0.00     0.068 C 
BRANCH  11  12
ATOM     12  CG  TRP A   1      41.975 -15.725   4.789  1.00  0.00    -0.028 A 
ATOM     13  CD2 TRP A   1      42.695 -16.873   4.321  1.00  0.00    -0.002 A 
ATOM     14  CE2 TRP A   1      42.468 -16.978   2.950  1.00  0.00     0.042 A 
ATOM     15  CE3 TRP A   1      43.511 -17.842   4.943  1.00  0.00     0.014 A 
ATOM     16  CZ2 TRP A   1      43.010 -18.005   2.167  1.00  0.00     0.030 A 
ATOM     17  NE1 TRP A   1      41.664 -15.923   2.590  1.00  0.00    -0.365 N 
ATOM     18  CH2 TRP A   1      43.809 -18.955   2.809  1.00  0.00     0.002 A 
ATOM     19  CZ3 TRP A   1      44.060 -18.876   4.177  1.00  0.00     0.001 A 
ATOM     20  HE1 TRP A   1      41.345 -15.740   1.648  1.00  0.00     0.165 HD
ATOM     21  CD1 TRP A   1      41.359 -15.163   3.688  1.00  0.00     0.096 A 
ENDBRANCH  11  12
ENDBRANCH   7  11
ENDBRANCH   5   7
BRANCH   1  22
HETATM   22  C   UNK A   0      44.400 -10.086   7.983  1.00  0.00     0.129 C 
BRANCH  22  23
HETATM   23  C   UNK A   0      45.112  -9.965   9.333  1.00  0.00     0.058 C 
BRANCH  23  24
HETATM   24  C   UNK A   0      44.127  -9.720  10.451  1.00  0.00    -0.056 A 
HETATM   25  C   UNK A   0      43.398  -8.522  10.511  1.00  0.00     0.024 A 
HETATM   26  C   UNK A   0      42.459  -8.306  11.532  1.00  0.00     0.040 A 
HETATM   27  C   UNK A   0      42.251  -9.298  12.499  1.00  0.00     0.017 A 
HETATM   28  C   UNK A   0      42.973 -10.492  12.441  1.00  0.00     0.002 A 
HETATM   29  C   UNK A   0      43.903 -10.703  11.424  1.00  0.00     0.007 A 
BRANCH  26  30
HETATM   30  C   UNK A   0      41.715  -7.016  11.538  1.00  0.00     0.292 C 
HETATM   31  O   UNK A   0      40.496  -6.942  11.517  1.00  0.00    -0.259 OA
BRANCH  30  32
HETATM   32  O   UNK A   0      42.573  -5.966  11.575  1.00  0.00    -0.323 OA
HETATM   33  C   UNK A   0      42.341  -4.993  10.556  1.00  0.00     0.213 C 
ENDBRANCH  30  32
ENDBRANCH  26  30
ENDBRANCH  23  24
ENDBRANCH  22  23
ENDBRANCH   1  22
TORSDOF 10
ENDMDL
MODEL 9
REMARK VINA RESULT:      -7.5      2.738      8.917
REMARK  10 active torsions:
REMARK  status: ('A' for Active; 'I' for Inactive)
REMARK    1  A    between atoms: O_2  and  C_3 
REMARK    2  A    between atoms: C_3  and  C_4 
REMARK    3  A    between atoms: C_6  and  C_7 
REMARK    4  A    between atoms: C_7  and  C_8 
REMARK    5  A    between atoms: C_8  and  N_9 
REMARK       I    between atoms: N_9  and  C_10 
REMARK       I    between atoms: C_10  and  N_17 
REMARK    6  A    between atoms: N_17  and  CA_18 
REMARK    7  A    between atoms: CA_18  and  C_19 
REMARK    8  A    between atoms: CA_18  and  CB_21 
REMARK    9  A    between atoms: C_19  and  O_20 
REMARK   10  A    between atoms: CB_21  and  CG_22 
ROOT
HETATM    1  N   UNK A   0      42.850 -13.813   7.031  1.00  0.00    -0.343 N 
HETATM    2  C   UNK A   0      42.450 -12.937   6.055  1.00  0.00     0.316 C 
HETATM    3  O   UNK A   0      42.785 -13.007   4.882  1.00  0.00    -0.248 OA
HETATM    4  H   UNK A   0      42.236 -13.877   7.829  1.00  0.00     0.164 HD
ATOM      5  N   TRP A   1      41.606 -11.989   6.573  1.00  0.00    -0.336 N 
ATOM      6  H   TRP A   1      41.873 -11.733   7.515  1.00  0.00     0.164 HD
ENDROOT
BRANCH   5   7
ATOM      7  CA  TRP A   1      41.127 -10.860   5.754  1.00  0.00     0.114 C 
BRANCH   7   8
ATOM      8  C   TRP A   1      39.586 -10.776   5.741  1.00  0.00     0.189 C 
BRANCH   8   9
ATOM      9  O   TRP A   1      39.017 -11.905   6.404  1.00  0.00    -0.399 OA
ATOM     10  H   TRP A   1      39.312 -11.831   7.330  1.00  0.00     0.209 HD
ENDBRANCH   8   9
ENDBRANCH   7   8
BRANCH   7  11
ATOM     11  CB  TRP A   1      41.702  -9.522   6.273  1.00  0.00     0.068 C 
BRANCH  11  12
ATOM     12  CG  TRP A   1      41.998  -9.539   7.746  1.00  0.00    -0.028 A 
ATOM     13  CD2 TRP A   1      43.271  -9.767   8.364  1.00  0.00    -0.002 A 
ATOM     14  CE2 TRP A   1      43.090  -9.666   9.743  1.00  0.00     0.042 A 
ATOM     15  CE3 TRP A   1      44.566 -10.040   7.875  1.00  0.00     0.014 A 
ATOM     16  CZ2 TRP A   1      44.139  -9.818  10.658  1.00  0.00     0.030 A 
ATOM     17  NE1 TRP A   1      41.756  -9.412   9.959  1.00  0.00    -0.365 N 
ATOM     18  CH2 TRP A   1      45.413 -10.079  10.147  1.00  0.00     0.002 A 
ATOM     19  CZ3 TRP A   1      45.626 -10.191   8.775  1.00  0.00     0.001 A 
ATOM     20  HE1 TRP A   1      41.335  -9.301  10.871  1.00  0.00     0.165 HD
ATOM     21  CD1 TRP A   1      41.089  -9.331   8.766  1.00  0.00     0.096 A 
ENDBRANCH  11  12
ENDBRANCH   7  11
ENDBRANCH   5   7
BRANCH   1  22
HETATM   22  C   UNK A   0      43.625 -14.995   6.699  1.00  0.00     0.129 C 
BRANCH  22  23
HETATM   23  C   UNK A   0      42.756 -16.238   6.492  1.00  0.00     0.058 C 
BRANCH  23  24
HETATM   24  C   UNK A   0      42.686 -16.620   5.032  1.00  0.00    -0.056 A 
HETATM   25  C   UNK A   0      41.723 -16.045   4.189  1.00  0.00     0.024 A 
HETATM   26  C   UNK A   0      41.677 -16.376   2.825  1.00  0.00     0.040 A 
HETATM   27  C   UNK A   0      42.604 -17.289   2.306  1.00  0.00     0.017 A 
HETATM   28  C   UNK A   0      43.565 -17.861   3.141  1.00  0.00     0.002 A 
HETATM   29  C   UNK A   0      43.607 -17.529   4.495  1.00  0.00     0.007 A 
BRANCH  26  30
HETATM   30  C   UNK A   0      40.634 -15.729   1.982  1.00  0.00     0.292 C 
HETATM   31  O   UNK A   0      39.449 -15.711   2.272  1.00  0.00    -0.259 OA
BRANCH  30  32
HETATM   32  O   UNK A   0      41.189 -15.173   0.875  1.00  0.00    -0.323 OA
HETATM   33  C   UNK A   0      40.240 -14.580  -0.013  1.00  0.00     0.213 C 
ENDBRANCH  30  32
ENDBRANCH  26  30
ENDBRANCH  23  24
ENDBRANCH  22  23
ENDBRANCH   1  22
TORSDOF 10
ENDMDL
MODEL 10
REMARK VINA RESULT:      -7.4      2.356      3.680
REMARK  10 active torsions:
REMARK  status: ('A' for Active; 'I' for Inactive)
REMARK    1  A    between atoms: O_2  and  C_3 
REMARK    2  A    between atoms: C_3  and  C_4 
REMARK    3  A    between atoms: C_6  and  C_7 
REMARK    4  A    between atoms: C_7  and  C_8 
REMARK    5  A    between atoms: C_8  and  N_9 
REMARK       I    between atoms: N_9  and  C_10 
REMARK       I    between atoms: C_10  and  N_17 
REMARK    6  A    between atoms: N_17  and  CA_18 
REMARK    7  A    between atoms: CA_18  and  C_19 
REMARK    8  A    between atoms: CA_18  and  CB_21 
REMARK    9  A    between atoms: C_19  and  O_20 
REMARK   10  A    between atoms: CB_21  and  CG_22 
ROOT
HETATM    1  N   UNK A   0      40.588 -11.796   5.247  1.00  0.00    -0.343 N 
HETATM    2  C   UNK A   0      40.495 -13.160   5.142  1.00  0.00     0.316 C 
HETATM    3  O   UNK A   0      40.134 -13.901   6.044  1.00  0.00    -0.248 OA
HETATM    4  H   UNK A   0      40.526 -11.293   4.375  1.00  0.00     0.164 HD
ATOM      5  N   TRP A   1      40.840 -13.573   3.881  1.00  0.00    -0.336 N 
ATOM      6  H   TRP A   1      41.587 -13.005   3.499  1.00  0.00     0.164 HD
ENDROOT
BRANCH   5   7
ATOM      7  CA  TRP A   1      40.937 -15.005   3.543  1.00  0.00     0.114 C 
BRANCH   7   8
ATOM      8  C   TRP A   1      39.896 -15.412   2.479  1.00  0.00     0.189 C 
BRANCH   8   9
ATOM      9  O   TRP A   1      39.728 -14.371   1.516  1.00  0.00    -0.399 OA
ATOM     10  H   TRP A   1      40.091 -13.572   1.941  1.00  0.00     0.209 HD
ENDBRANCH   8   9
ENDBRANCH   7   8
BRANCH   7  11
ATOM     11  CB  TRP A   1      42.352 -15.353   3.026  1.00  0.00     0.068 C 
BRANCH  11  12
ATOM     12  CG  TRP A   1      43.008 -16.459   3.802  1.00  0.00    -0.028 A 
ATOM     13  CD2 TRP A   1      43.185 -17.817   3.380  1.00  0.00    -0.002 A 
ATOM     14  CE2 TRP A   1      43.864 -18.486   4.397  1.00  0.00     0.042 A 
ATOM     15  CE3 TRP A   1      42.837 -18.538   2.217  1.00  0.00     0.014 A 
ATOM     16  CZ2 TRP A   1      44.220 -19.838   4.309  1.00  0.00     0.030 A 
ATOM     17  NE1 TRP A   1      44.072 -17.580   5.410  1.00  0.00    -0.365 N 
ATOM     18  CH2 TRP A   1      43.871 -20.526   3.144  1.00  0.00     0.002 A 
ATOM     19  CZ3 TRP A   1      43.187 -19.888   2.112  1.00  0.00     0.001 A 
ATOM     20  HE1 TRP A   1      44.535 -17.792   6.283  1.00  0.00     0.165 HD
ATOM     21  CD1 TRP A   1      43.563 -16.357   5.063  1.00  0.00     0.096 A 
ENDBRANCH  11  12
ENDBRANCH   7  11
ENDBRANCH   5   7
BRANCH   1  22
HETATM   22  C   UNK A   0      40.127 -11.108   6.440  1.00  0.00     0.129 C 
BRANCH  22  23
HETATM   23  C   UNK A   0      40.599  -9.652   6.507  1.00  0.00     0.058 C 
BRANCH  23  24
HETATM   24  C   UNK A   0      41.439  -9.404   7.737  1.00  0.00    -0.056 A 
HETATM   25  C   UNK A   0      42.834  -9.299   7.639  1.00  0.00     0.024 A 
HETATM   26  C   UNK A   0      43.614  -9.038   8.777  1.00  0.00     0.040 A 
HETATM   27  C   UNK A   0      42.987  -8.880  10.020  1.00  0.00     0.017 A 
HETATM   28  C   UNK A   0      41.598  -8.981  10.121  1.00  0.00     0.002 A 
HETATM   29  C   UNK A   0      40.828  -9.240   8.987  1.00  0.00     0.007 A 
BRANCH  26  30
HETATM   30  C   UNK A   0      45.090  -8.934   8.608  1.00  0.00     0.292 C 
HETATM   31  O   UNK A   0      45.667  -7.886   8.363  1.00  0.00    -0.259 OA
BRANCH  30  32
HETATM   32  O   UNK A   0      45.678 -10.146   8.767  1.00  0.00    -0.323 OA
HETATM   33  C   UNK A   0      46.057 -10.772   7.541  1.00  0.00     0.213 C 
ENDBRANCH  30  32
ENDBRANCH  26  30
ENDBRANCH  23  24
ENDBRANCH  22  23
ENDBRANCH   1  22
TORSDOF 10
ENDMDL
