MODEL 1
REMARK VINA RESULT:     -10.4      0.000      0.000
REMARK  4 active torsions:
REMARK  status: ('A' for Active; 'I' for Inactive)
REMARK    1  A    between atoms: C_2  and  C_3 
REMARK    2  A    between atoms: C_2  and  C_19 
REMARK       I    between atoms: C_3  and  N_4 
REMARK    3  A    between atoms: N_4  and  C_5 
REMARK    4  A    between atoms: C_12  and  C_13 
REMARK       I    between atoms: C_13  and  N_14 
ROOT
HETATM    1  C   UNL     1      41.434 -14.356   2.511  1.00  0.00     0.230 C 
HETATM    2  N   UNL     1      41.540 -13.821   1.238  1.00  0.00    -0.327 N 
HETATM    3  O   UNL     1      40.380 -14.584   3.103  1.00  0.00    -0.272 OA
HETATM    4  H   UNL     1      42.451 -13.844   0.802  1.00  0.00     0.169 HD
ENDROOT
BRANCH   2   5
HETATM    5  C   UNL     1      40.495 -13.278   0.462  1.00  0.00     0.035 A 
HETATM    6  C   UNL     1      39.984 -13.905  -0.683  1.00  0.00     0.046 A 
HETATM    7  C   UNL     1      38.895 -13.323  -1.368  1.00  0.00     0.030 A 
HETATM    8  C   UNL     1      38.379 -12.119  -0.906  1.00  0.00     0.063 A 
HETATM    9  C   UNL     1      38.082 -13.668  -2.489  1.00  0.00     0.156 A 
HETATM   10  N   UNL     1      37.368 -11.803  -1.769  1.00  0.00    -0.277 N 
HETATM   11  C   UNL     1      38.870 -11.463   0.224  1.00  0.00     0.034 A 
HETATM   12  H   UNL     1      36.775 -10.982  -1.746  1.00  0.00     0.189 HD
HETATM   13  N   UNL     1      37.151 -12.716  -2.730  1.00  0.00    -0.168 NA
HETATM   14  C   UNL     1      39.925 -12.079   0.910  1.00  0.00     0.032 A 
BRANCH   9  15
HETATM   15  C   UNL     1      38.158 -14.884  -3.311  1.00  0.00     0.270 C 
HETATM   16  N   UNL     1      38.277 -16.040  -2.588  1.00  0.00    -0.365 N 
HETATM   17  H   UNL     1      38.333 -15.976  -1.579  1.00  0.00     0.159 HD
HETATM   18  H   UNL     1      38.382 -16.919  -3.070  1.00  0.00     0.159 HD
HETATM   19  O   UNL     1      38.139 -14.902  -4.537  1.00  0.00    -0.266 OA
ENDBRANCH   9  15
ENDBRANCH   2   5
BRANCH   1  20
HETATM   20  C   UNL     1      42.779 -14.655   3.194  1.00  0.00     0.107 C 
HETATM   21  C   UNL     1      42.888 -13.942   4.546  1.00  0.00     0.025 C 
BRANCH  20  22
HETATM   22  C   UNL     1      43.073 -16.150   3.189  1.00  0.00    -0.044 A 
HETATM   23  C   UNL     1      43.235 -16.801   4.428  1.00  0.00     0.020 A 
HETATM   24  C   UNL     1      43.506 -18.176   4.515  1.00  0.00    -0.025 A 
HETATM   25  C   UNL     1      43.611 -18.933   3.330  1.00  0.00    -0.026 A 
HETATM   26  C   UNL     1      43.676 -18.811   5.756  1.00  0.00     0.012 A 
HETATM   27  C   UNL     1      43.442 -18.290   2.094  1.00  0.00     0.013 A 
HETATM   28  C   UNL     1      43.878 -20.310   3.417  1.00  0.00     0.012 A 
HETATM   29  C   UNL     1      43.175 -16.918   2.023  1.00  0.00     0.009 A 
HETATM   30  C   UNL     1      44.042 -20.928   4.659  1.00  0.00     0.001 A 
HETATM   31  C   UNL     1      43.942 -20.178   5.827  1.00  0.00     0.001 A 
ENDBRANCH  20  22
ENDBRANCH   1  20
TORSDOF 4
ENDMDL
MODEL 2
REMARK VINA RESULT:     -10.4      0.602      1.464
REMARK  4 active torsions:
REMARK  status: ('A' for Active; 'I' for Inactive)
REMARK    1  A    between atoms: C_2  and  C_3 
REMARK    2  A    between atoms: C_2  and  C_19 
REMARK       I    between atoms: C_3  and  N_4 
REMARK    3  A    between atoms: N_4  and  C_5 
REMARK    4  A    between atoms: C_12  and  C_13 
REMARK       I    between atoms: C_13  and  N_14 
ROOT
HETATM    1  C   UNL     1      41.687 -14.271   2.286  1.00  0.00     0.230 C 
HETATM    2  N   UNL     1      41.692 -13.522   1.121  1.00  0.00    -0.327 N 
HETATM    3  O   UNL     1      40.700 -14.810   2.783  1.00  0.00    -0.272 OA
HETATM    4  H   UNL     1      42.592 -13.280   0.731  1.00  0.00     0.169 HD
ENDROOT
BRANCH   2   5
HETATM    5  C   UNL     1      40.565 -13.090   0.392  1.00  0.00     0.035 A 
HETATM    6  C   UNL     1      40.068 -13.770  -0.728  1.00  0.00     0.046 A 
HETATM    7  C   UNL     1      38.898 -13.304  -1.364  1.00  0.00     0.030 A 
HETATM    8  C   UNL     1      38.285 -12.155  -0.880  1.00  0.00     0.063 A 
HETATM    9  C   UNL     1      38.074 -13.734  -2.447  1.00  0.00     0.156 A 
HETATM   10  N   UNL     1      37.210 -11.946  -1.698  1.00  0.00    -0.277 N 
HETATM   11  C   UNL     1      38.757 -11.447   0.227  1.00  0.00     0.034 A 
HETATM   12  H   UNL     1      36.539 -11.188  -1.649  1.00  0.00     0.189 HD
HETATM   13  N   UNL     1      37.042 -12.881  -2.647  1.00  0.00    -0.168 NA
HETATM   14  C   UNL     1      39.898 -11.952   0.864  1.00  0.00     0.032 A 
BRANCH   9  15
HETATM   15  C   UNL     1      38.234 -14.941  -3.271  1.00  0.00     0.270 C 
HETATM   16  N   UNL     1      38.363 -16.096  -2.550  1.00  0.00    -0.365 N 
HETATM   17  H   UNL     1      38.369 -16.037  -1.538  1.00  0.00     0.159 HD
HETATM   18  H   UNL     1      38.524 -16.967  -3.030  1.00  0.00     0.159 HD
HETATM   19  O   UNL     1      38.274 -14.951  -4.496  1.00  0.00    -0.266 OA
ENDBRANCH   9  15
ENDBRANCH   2   5
BRANCH   1  20
HETATM   20  C   UNL     1      43.056 -14.389   2.977  1.00  0.00     0.107 C 
HETATM   21  C   UNL     1      43.266 -13.263   3.994  1.00  0.00     0.025 C 
BRANCH  20  22
HETATM   22  C   UNL     1      43.294 -15.809   3.477  1.00  0.00    -0.044 A 
HETATM   23  C   UNL     1      43.244 -16.861   2.541  1.00  0.00     0.020 A 
HETATM   24  C   UNL     1      43.454 -18.199   2.915  1.00  0.00    -0.025 A 
HETATM   25  C   UNL     1      43.731 -18.501   4.264  1.00  0.00    -0.026 A 
HETATM   26  C   UNL     1      43.391 -19.239   1.974  1.00  0.00     0.012 A 
HETATM   27  C   UNL     1      43.790 -17.455   5.198  1.00  0.00     0.013 A 
HETATM   28  C   UNL     1      43.945 -19.838   4.637  1.00  0.00     0.012 A 
HETATM   29  C   UNL     1      43.576 -16.127   4.811  1.00  0.00     0.009 A 
HETATM   30  C   UNL     1      43.882 -20.863   3.690  1.00  0.00     0.001 A 
HETATM   31  C   UNL     1      43.604 -20.563   2.359  1.00  0.00     0.001 A 
ENDBRANCH  20  22
ENDBRANCH   1  20
TORSDOF 4
ENDMDL
MODEL 3
REMARK VINA RESULT:      -9.7      1.787      2.984
REMARK  4 active torsions:
REMARK  status: ('A' for Active; 'I' for Inactive)
REMARK    1  A    between atoms: C_2  and  C_3 
REMARK    2  A    between atoms: C_2  and  C_19 
REMARK       I    between atoms: C_3  and  N_4 
REMARK    3  A    between atoms: N_4  and  C_5 
REMARK    4  A    between atoms: C_12  and  C_13 
REMARK       I    between atoms: C_13  and  N_14 
ROOT
HETATM    1  C   UNL     1      41.496 -14.359   1.560  1.00  0.00     0.230 C 
HETATM    2  N   UNL     1      41.466 -13.987   0.227  1.00  0.00    -0.327 N 
HETATM    3  O   UNL     1      40.515 -14.667   2.236  1.00  0.00    -0.272 OA
HETATM    4  H   UNL     1      42.351 -13.927  -0.256  1.00  0.00     0.169 HD
ENDROOT
BRANCH   2   5
HETATM    5  C   UNL     1      40.319 -13.717  -0.548  1.00  0.00     0.035 A 
HETATM    6  C   UNL     1      39.663 -12.478  -0.543  1.00  0.00     0.046 A 
HETATM    7  C   UNL     1      38.557 -12.273  -1.396  1.00  0.00     0.030 A 
HETATM    8  C   UNL     1      38.124 -13.321  -2.197  1.00  0.00     0.063 A 
HETATM    9  C   UNL     1      37.695 -11.182  -1.717  1.00  0.00     0.156 A 
HETATM   10  N   UNL     1      37.046 -12.834  -2.880  1.00  0.00    -0.277 N 
HETATM   11  C   UNL     1      38.748 -14.570  -2.221  1.00  0.00     0.034 A 
HETATM   12  H   UNL     1      36.468 -13.329  -3.549  1.00  0.00     0.189 HD
HETATM   13  N   UNL     1      36.762 -11.546  -2.627  1.00  0.00    -0.168 NA
HETATM   14  C   UNL     1      39.867 -14.738  -1.394  1.00  0.00     0.032 A 
BRANCH   9  15
HETATM   15  C   UNL     1      37.756  -9.807  -1.198  1.00  0.00     0.270 C 
HETATM   16  N   UNL     1      37.853  -8.848  -2.169  1.00  0.00    -0.365 N 
HETATM   17  H   UNL     1      37.904  -9.142  -3.136  1.00  0.00     0.159 HD
HETATM   18  H   UNL     1      37.947  -7.881  -1.904  1.00  0.00     0.159 HD
HETATM   19  O   UNL     1      37.744  -9.507  -0.009  1.00  0.00    -0.266 OA
ENDBRANCH   9  15
ENDBRANCH   2   5
BRANCH   1  20
HETATM   20  C   UNL     1      42.896 -14.355   2.196  1.00  0.00     0.107 C 
HETATM   21  C   UNL     1      43.140 -13.074   3.000  1.00  0.00     0.025 C 
BRANCH  20  22
HETATM   22  C   UNL     1      43.174 -15.671   2.913  1.00  0.00    -0.044 A 
HETATM   23  C   UNL     1      43.170 -16.857   2.152  1.00  0.00     0.020 A 
HETATM   24  C   UNL     1      43.418 -18.112   2.732  1.00  0.00    -0.025 A 
HETATM   25  C   UNL     1      43.688 -18.190   4.114  1.00  0.00    -0.026 A 
HETATM   26  C   UNL     1      43.400 -19.288   1.965  1.00  0.00     0.012 A 
HETATM   27  C   UNL     1      43.701 -17.010   4.873  1.00  0.00     0.013 A 
HETATM   28  C   UNL     1      43.941 -19.446   4.693  1.00  0.00     0.012 A 
HETATM   29  C   UNL     1      43.449 -15.767   4.282  1.00  0.00     0.009 A 
HETATM   30  C   UNL     1      43.922 -20.607   3.917  1.00  0.00     0.001 A 
HETATM   31  C   UNL     1      43.651 -20.527   2.553  1.00  0.00     0.001 A 
ENDBRANCH  20  22
ENDBRANCH   1  20
TORSDOF 4
ENDMDL
MODEL 4
REMARK VINA RESULT:      -9.6      2.276      3.327
REMARK  4 active torsions:
REMARK  status: ('A' for Active; 'I' for Inactive)
REMARK    1  A    between atoms: C_2  and  C_3 
REMARK    2  A    between atoms: C_2  and  C_19 
REMARK       I    between atoms: C_3  and  N_4 
REMARK    3  A    between atoms: N_4  and  C_5 
REMARK    4  A    between atoms: C_12  and  C_13 
REMARK       I    between atoms: C_13  and  N_14 
ROOT
HETATM    1  C   UNL     1      42.719 -14.075   2.800  1.00  0.00     0.230 C 
HETATM    2  N   UNL     1      41.428 -13.742   2.429  1.00  0.00    -0.327 N 
HETATM    3  O   UNL     1      43.700 -14.062   2.059  1.00  0.00    -0.272 OA
HETATM    4  H   UNL     1      40.749 -13.628   3.168  1.00  0.00     0.169 HD
ENDROOT
BRANCH   2   5
HETATM    5  C   UNL     1      40.962 -13.506   1.118  1.00  0.00     0.035 A 
HETATM    6  C   UNL     1      41.179 -12.303   0.433  1.00  0.00     0.046 A 
HETATM    7  C   UNL     1      40.732 -12.171  -0.900  1.00  0.00     0.030 A 
HETATM    8  C   UNL     1      40.054 -13.231  -1.488  1.00  0.00     0.063 A 
HETATM    9  C   UNL     1      40.811 -11.173  -1.917  1.00  0.00     0.156 A 
HETATM   10  N   UNL     1      39.736 -12.805  -2.746  1.00  0.00    -0.277 N 
HETATM   11  C   UNL     1      39.813 -14.439  -0.831  1.00  0.00     0.034 A 
HETATM   12  H   UNL     1      39.226 -13.316  -3.458  1.00  0.00     0.189 HD
HETATM   13  N   UNL     1      40.184 -11.575  -3.047  1.00  0.00    -0.168 NA
HETATM   14  C   UNL     1      40.299 -14.561   0.477  1.00  0.00     0.032 A 
BRANCH   9  15
HETATM   15  C   UNL     1      41.485  -9.868  -1.844  1.00  0.00     0.270 C 
HETATM   16  N   UNL     1      40.976  -8.929  -2.698  1.00  0.00    -0.365 N 
HETATM   17  H   UNL     1      40.221  -9.196  -3.318  1.00  0.00     0.159 HD
HETATM   18  H   UNL     1      41.405  -8.019  -2.749  1.00  0.00     0.159 HD
HETATM   19  O   UNL     1      42.433  -9.611  -1.111  1.00  0.00    -0.266 OA
ENDBRANCH   9  15
ENDBRANCH   2   5
BRANCH   1  20
HETATM   20  C   UNL     1      42.873 -14.500   4.270  1.00  0.00     0.107 C 
HETATM   21  C   UNL     1      41.686 -14.026   5.115  1.00  0.00     0.025 C 
BRANCH  20  22
HETATM   22  C   UNL     1      43.235 -15.977   4.376  1.00  0.00    -0.044 A 
HETATM   23  C   UNL     1      43.000 -16.802   3.257  1.00  0.00     0.020 A 
HETATM   24  C   UNL     1      43.305 -18.173   3.268  1.00  0.00    -0.025 A 
HETATM   25  C   UNL     1      43.873 -18.742   4.426  1.00  0.00    -0.026 A 
HETATM   26  C   UNL     1      43.057 -18.986   2.150  1.00  0.00     0.012 A 
HETATM   27  C   UNL     1      44.116 -17.923   5.539  1.00  0.00     0.013 A 
HETATM   28  C   UNL     1      44.182 -20.113   4.435  1.00  0.00     0.012 A 
HETATM   29  C   UNL     1      43.803 -16.559   5.515  1.00  0.00     0.009 A 
HETATM   30  C   UNL     1      43.932 -20.909   3.315  1.00  0.00     0.001 A 
HETATM   31  C   UNL     1      43.368 -20.345   2.173  1.00  0.00     0.001 A 
ENDBRANCH  20  22
ENDBRANCH   1  20
TORSDOF 4
ENDMDL
MODEL 5
REMARK VINA RESULT:      -9.2      1.878      2.594
REMARK  4 active torsions:
REMARK  status: ('A' for Active; 'I' for Inactive)
REMARK    1  A    between atoms: C_2  and  C_3 
REMARK    2  A    between atoms: C_2  and  C_19 
REMARK       I    between atoms: C_3  and  N_4 
REMARK    3  A    between atoms: N_4  and  C_5 
REMARK    4  A    between atoms: C_12  and  C_13 
REMARK       I    between atoms: C_13  and  N_14 
ROOT
HETATM    1  C   UNL     1      42.457 -12.997   3.445  1.00  0.00     0.230 C 
HETATM    2  N   UNL     1      41.301 -12.534   2.839  1.00  0.00    -0.327 N 
HETATM    3  O   UNL     1      43.598 -12.848   3.012  1.00  0.00    -0.272 OA
HETATM    4  H   UNL     1      40.449 -12.572   3.380  1.00  0.00     0.169 HD
ENDROOT
BRANCH   2   5
HETATM    5  C   UNL     1      41.192 -11.973   1.549  1.00  0.00     0.035 A 
HETATM    6  C   UNL     1      40.600 -12.643   0.470  1.00  0.00     0.046 A 
HETATM    7  C   UNL     1      40.476 -11.986  -0.773  1.00  0.00     0.030 A 
HETATM    8  C   UNL     1      40.977 -10.696  -0.903  1.00  0.00     0.063 A 
HETATM    9  C   UNL     1      39.903 -12.289  -2.045  1.00  0.00     0.156 A 
HETATM   10  N   UNL     1      40.732 -10.342  -2.200  1.00  0.00    -0.277 N 
HETATM   11  C   UNL     1      41.580 -10.004   0.148  1.00  0.00     0.034 A 
HETATM   12  H   UNL     1      40.974  -9.469  -2.654  1.00  0.00     0.189 HD
HETATM   13  N   UNL     1      40.077 -11.269  -2.917  1.00  0.00    -0.168 NA
HETATM   14  C   UNL     1      41.657 -10.662   1.382  1.00  0.00     0.032 A 
BRANCH   9  15
HETATM   15  C   UNL     1      39.179 -13.508  -2.434  1.00  0.00     0.270 C 
HETATM   16  N   UNL     1      37.964 -13.655  -1.822  1.00  0.00    -0.365 N 
HETATM   17  H   UNL     1      37.674 -12.958  -1.148  1.00  0.00     0.159 HD
HETATM   18  H   UNL     1      37.418 -14.485  -1.994  1.00  0.00     0.159 HD
HETATM   19  O   UNL     1      39.600 -14.352  -3.218  1.00  0.00    -0.266 OA
ENDBRANCH   9  15
ENDBRANCH   2   5
BRANCH   1  20
HETATM   20  C   UNL     1      42.228 -13.767   4.756  1.00  0.00     0.107 C 
HETATM   21  C   UNL     1      40.773 -13.657   5.221  1.00  0.00     0.025 C 
BRANCH  20  22
HETATM   22  C   UNL     1      42.810 -15.173   4.673  1.00  0.00    -0.044 A 
HETATM   23  C   UNL     1      42.479 -15.965   3.555  1.00  0.00     0.020 A 
HETATM   24  C   UNL     1      42.972 -17.271   3.398  1.00  0.00    -0.025 A 
HETATM   25  C   UNL     1      43.832 -17.804   4.379  1.00  0.00    -0.026 A 
HETATM   26  C   UNL     1      42.625 -18.054   2.285  1.00  0.00     0.012 A 
HETATM   27  C   UNL     1      44.172 -17.016   5.489  1.00  0.00     0.013 A 
HETATM   28  C   UNL     1      44.329 -19.109   4.219  1.00  0.00     0.012 A 
HETATM   29  C   UNL     1      43.669 -15.717   5.635  1.00  0.00     0.009 A 
HETATM   30  C   UNL     1      43.978 -19.875   3.106  1.00  0.00     0.001 A 
HETATM   31  C   UNL     1      43.125 -19.348   2.140  1.00  0.00     0.001 A 
ENDBRANCH  20  22
ENDBRANCH   1  20
TORSDOF 4
ENDMDL
MODEL 6
REMARK VINA RESULT:      -9.1      4.418      7.644
REMARK  4 active torsions:
REMARK  status: ('A' for Active; 'I' for Inactive)
REMARK    1  A    between atoms: C_2  and  C_3 
REMARK    2  A    between atoms: C_2  and  C_19 
REMARK       I    between atoms: C_3  and  N_4 
REMARK    3  A    between atoms: N_4  and  C_5 
REMARK    4  A    between atoms: C_12  and  C_13 
REMARK       I    between atoms: C_13  and  N_14 
ROOT
HETATM    1  C   UNL     1      42.515 -13.223   3.616  1.00  0.00     0.230 C 
HETATM    2  N   UNL     1      41.765 -12.817   4.706  1.00  0.00    -0.327 N 
HETATM    3  O   UNL     1      43.548 -12.686   3.221  1.00  0.00    -0.272 OA
HETATM    4  H   UNL     1      41.039 -13.441   5.026  1.00  0.00     0.169 HD
ENDROOT
BRANCH   2   5
HETATM    5  C   UNL     1      41.933 -11.629   5.450  1.00  0.00     0.035 A 
HETATM    6  C   UNL     1      43.054 -11.379   6.252  1.00  0.00     0.046 A 
HETATM    7  C   UNL     1      43.173 -10.138   6.914  1.00  0.00     0.030 A 
HETATM    8  C   UNL     1      42.150  -9.206   6.781  1.00  0.00     0.063 A 
HETATM    9  C   UNL     1      44.149  -9.500   7.738  1.00  0.00     0.156 A 
HETATM   10  N   UNL     1      42.534  -8.137   7.540  1.00  0.00    -0.277 N 
HETATM   11  C   UNL     1      41.016  -9.427   5.999  1.00  0.00     0.034 A 
HETATM   12  H   UNL     1      42.023  -7.274   7.688  1.00  0.00     0.189 HD
HETATM   13  N   UNL     1      43.736  -8.271   8.123  1.00  0.00    -0.168 NA
HETATM   14  C   UNL     1      40.939 -10.650   5.319  1.00  0.00     0.032 A 
BRANCH   9  15
HETATM   15  C   UNL     1      45.462 -10.024   8.140  1.00  0.00     0.270 C 
HETATM   16  N   UNL     1      46.515  -9.231   7.773  1.00  0.00    -0.365 N 
HETATM   17  H   UNL     1      46.325  -8.388   7.244  1.00  0.00     0.159 HD
HETATM   18  H   UNL     1      47.456  -9.533   7.966  1.00  0.00     0.159 HD
HETATM   19  O   UNL     1      45.642 -11.080   8.735  1.00  0.00    -0.266 OA
ENDBRANCH   9  15
ENDBRANCH   2   5
BRANCH   1  20
HETATM   20  C   UNL     1      41.951 -14.444   2.869  1.00  0.00     0.107 C 
HETATM   21  C   UNL     1      41.971 -14.228   1.353  1.00  0.00     0.025 C 
BRANCH  20  22
HETATM   22  C   UNL     1      42.580 -15.734   3.381  1.00  0.00    -0.044 A 
HETATM   23  C   UNL     1      42.550 -16.867   2.543  1.00  0.00     0.020 A 
HETATM   24  C   UNL     1      43.107 -18.095   2.934  1.00  0.00    -0.025 A 
HETATM   25  C   UNL     1      43.724 -18.200   4.197  1.00  0.00    -0.026 A 
HETATM   26  C   UNL     1      43.060 -19.220   2.094  1.00  0.00     0.012 A 
HETATM   27  C   UNL     1      43.763 -17.072   5.031  1.00  0.00     0.013 A 
HETATM   28  C   UNL     1      44.285 -19.428   4.587  1.00  0.00     0.012 A 
HETATM   29  C   UNL     1      43.200 -15.855   4.629  1.00  0.00     0.009 A 
HETATM   30  C   UNL     1      44.234 -20.537   3.740  1.00  0.00     0.001 A 
HETATM   31  C   UNL     1      43.621 -20.433   2.494  1.00  0.00     0.001 A 
ENDBRANCH  20  22
ENDBRANCH   1  20
TORSDOF 4
ENDMDL
MODEL 7
REMARK VINA RESULT:      -9.0      5.046      8.562
REMARK  4 active torsions:
REMARK  status: ('A' for Active; 'I' for Inactive)
REMARK    1  A    between atoms: C_2  and  C_3 
REMARK    2  A    between atoms: C_2  and  C_19 
REMARK       I    between atoms: C_3  and  N_4 
REMARK    3  A    between atoms: N_4  and  C_5 
REMARK    4  A    between atoms: C_12  and  C_13 
REMARK       I    between atoms: C_13  and  N_14 
ROOT
HETATM    1  C   UNL     1      43.054 -12.339   4.036  1.00  0.00     0.230 C 
HETATM    2  N   UNL     1      43.089 -12.505   5.410  1.00  0.00    -0.327 N 
HETATM    3  O   UNL     1      43.756 -11.560   3.394  1.00  0.00    -0.272 OA
HETATM    4  H   UNL     1      42.588 -13.293   5.794  1.00  0.00     0.169 HD
ENDROOT
BRANCH   2   5
HETATM    5  C   UNL     1      43.788 -11.705   6.339  1.00  0.00     0.035 A 
HETATM    6  C   UNL     1      43.151 -10.944   7.328  1.00  0.00     0.046 A 
HETATM    7  C   UNL     1      43.929 -10.219   8.257  1.00  0.00     0.030 A 
HETATM    8  C   UNL     1      45.313 -10.252   8.143  1.00  0.00     0.063 A 
HETATM    9  C   UNL     1      43.671  -9.408   9.403  1.00  0.00     0.156 A 
HETATM   10  N   UNL     1      45.778  -9.453   9.149  1.00  0.00    -0.277 N 
HETATM   11  C   UNL     1      45.979 -10.991   7.164  1.00  0.00     0.034 A 
HETATM   12  H   UNL     1      46.744  -9.233   9.362  1.00  0.00     0.189 HD
HETATM   13  N   UNL     1      44.821  -8.935   9.937  1.00  0.00    -0.168 NA
HETATM   14  C   UNL     1      45.188 -11.733   6.278  1.00  0.00     0.032 A 
BRANCH   9  15
HETATM   15  C   UNL     1      42.367  -9.098  10.008  1.00  0.00     0.270 C 
HETATM   16  N   UNL     1      41.844 -10.115  10.758  1.00  0.00    -0.365 N 
HETATM   17  H   UNL     1      42.357 -10.987  10.817  1.00  0.00     0.159 HD
HETATM   18  H   UNL     1      40.932 -10.009  11.173  1.00  0.00     0.159 HD
HETATM   19  O   UNL     1      41.762  -8.042   9.861  1.00  0.00    -0.266 OA
ENDBRANCH   9  15
ENDBRANCH   2   5
BRANCH   1  20
HETATM   20  C   UNL     1      42.022 -13.220   3.311  1.00  0.00     0.107 C 
HETATM   21  C   UNL     1      41.487 -12.530   2.053  1.00  0.00     0.025 C 
BRANCH  20  22
HETATM   22  C   UNL     1      42.544 -14.641   3.138  1.00  0.00    -0.044 A 
HETATM   23  C   UNL     1      42.743 -15.423   4.293  1.00  0.00     0.020 A 
HETATM   24  C   UNL     1      43.219 -16.743   4.224  1.00  0.00    -0.025 A 
HETATM   25  C   UNL     1      43.498 -17.309   2.963  1.00  0.00    -0.026 A 
HETATM   26  C   UNL     1      43.423 -17.508   5.383  1.00  0.00     0.012 A 
HETATM   27  C   UNL     1      43.293 -16.536   1.809  1.00  0.00     0.013 A 
HETATM   28  C   UNL     1      43.970 -18.630   2.894  1.00  0.00     0.012 A 
HETATM   29  C   UNL     1      42.822 -15.221   1.894  1.00  0.00     0.009 A 
HETATM   30  C   UNL     1      44.166 -19.380   4.055  1.00  0.00     0.001 A 
HETATM   31  C   UNL     1      43.893 -18.818   5.300  1.00  0.00     0.001 A 
ENDBRANCH  20  22
ENDBRANCH   1  20
TORSDOF 4
ENDMDL
MODEL 8
REMARK VINA RESULT:      -9.0      1.731      2.714
REMARK  4 active torsions:
REMARK  status: ('A' for Active; 'I' for Inactive)
REMARK    1  A    between atoms: C_2  and  C_3 
REMARK    2  A    between atoms: C_2  and  C_19 
REMARK       I    between atoms: C_3  and  N_4 
REMARK    3  A    between atoms: N_4  and  C_5 
REMARK    4  A    between atoms: C_12  and  C_13 
REMARK       I    between atoms: C_13  and  N_14 
ROOT
HETATM    1  C   UNL     1      41.837 -14.271   4.777  1.00  0.00     0.230 C 
HETATM    2  N   UNL     1      41.926 -13.476   3.647  1.00  0.00    -0.327 N 
HETATM    3  O   UNL     1      40.792 -14.626   5.319  1.00  0.00    -0.272 OA
HETATM    4  H   UNL     1      42.830 -13.399   3.205  1.00  0.00     0.169 HD
ENDROOT
BRANCH   2   5
HETATM    5  C   UNL     1      40.869 -12.785   3.017  1.00  0.00     0.035 A 
HETATM    6  C   UNL     1      40.496 -13.004   1.684  1.00  0.00     0.046 A 
HETATM    7  C   UNL     1      39.386 -12.314   1.150  1.00  0.00     0.030 A 
HETATM    8  C   UNL     1      38.711 -11.405   1.954  1.00  0.00     0.063 A 
HETATM    9  C   UNL     1      38.680 -12.307  -0.091  1.00  0.00     0.156 A 
HETATM   10  N   UNL     1      37.719 -10.892   1.166  1.00  0.00    -0.277 N 
HETATM   11  C   UNL     1      39.061 -11.155   3.282  1.00  0.00     0.034 A 
HETATM   12  H   UNL     1      37.036 -10.188   1.420  1.00  0.00     0.189 HD
HETATM   13  N   UNL     1      37.660 -11.418  -0.068  1.00  0.00    -0.168 NA
HETATM   14  C   UNL     1      40.142 -11.880   3.802  1.00  0.00     0.032 A 
BRANCH   9  15
HETATM   15  C   UNL     1      38.939 -13.138  -1.276  1.00  0.00     0.270 C 
HETATM   16  N   UNL     1      37.811 -13.648  -1.857  1.00  0.00    -0.365 N 
HETATM   17  H   UNL     1      36.914 -13.450  -1.430  1.00  0.00     0.159 HD
HETATM   18  H   UNL     1      37.895 -14.267  -2.647  1.00  0.00     0.159 HD
HETATM   19  O   UNL     1      40.052 -13.391  -1.723  1.00  0.00    -0.266 OA
ENDBRANCH   9  15
ENDBRANCH   2   5
BRANCH   1  20
HETATM   20  C   UNL     1      43.192 -14.701   5.365  1.00  0.00     0.107 C 
HETATM   21  C   UNL     1      43.417 -14.090   6.752  1.00  0.00     0.025 C 
BRANCH  20  22
HETATM   22  C   UNL     1      43.384 -16.208   5.247  1.00  0.00    -0.044 A 
HETATM   23  C   UNL     1      43.399 -16.779   3.959  1.00  0.00     0.020 A 
HETATM   24  C   UNL     1      43.572 -18.158   3.759  1.00  0.00    -0.025 A 
HETATM   25  C   UNL     1      43.746 -18.999   4.878  1.00  0.00    -0.026 A 
HETATM   26  C   UNL     1      43.574 -18.716   2.470  1.00  0.00     0.012 A 
HETATM   27  C   UNL     1      43.740 -18.433   6.162  1.00  0.00     0.013 A 
HETATM   28  C   UNL     1      43.924 -20.378   4.677  1.00  0.00     0.012 A 
HETATM   29  C   UNL     1      43.563 -17.057   6.346  1.00  0.00     0.009 A 
HETATM   30  C   UNL     1      43.926 -20.918   3.390  1.00  0.00     0.001 A 
HETATM   31  C   UNL     1      43.750 -20.087   2.287  1.00  0.00     0.001 A 
ENDBRANCH  20  22
ENDBRANCH   1  20
TORSDOF 4
ENDMDL
MODEL 9
REMARK VINA RESULT:      -8.8      5.706      9.060
REMARK  4 active torsions:
REMARK  status: ('A' for Active; 'I' for Inactive)
REMARK    1  A    between atoms: C_2  and  C_3 
REMARK    2  A    between atoms: C_2  and  C_19 
REMARK       I    between atoms: C_3  and  N_4 
REMARK    3  A    between atoms: N_4  and  C_5 
REMARK    4  A    between atoms: C_12  and  C_13 
REMARK       I    between atoms: C_13  and  N_14 
ROOT
HETATM    1  C   UNL     1      43.542 -14.148   5.994  1.00  0.00     0.230 C 
HETATM    2  N   UNL     1      43.310 -12.787   6.101  1.00  0.00    -0.327 N 
HETATM    3  O   UNL     1      44.232 -14.816   6.761  1.00  0.00    -0.272 OA
HETATM    4  H   UNL     1      42.592 -12.392   5.511  1.00  0.00     0.169 HD
ENDROOT
BRANCH   2   5
HETATM    5  C   UNL     1      43.950 -11.890   6.982  1.00  0.00     0.035 A 
HETATM    6  C   UNL     1      43.345 -11.396   8.146  1.00  0.00     0.046 A 
HETATM    7  C   UNL     1      44.079 -10.549   9.006  1.00  0.00     0.030 A 
HETATM    8  C   UNL     1      45.376 -10.198   8.654  1.00  0.00     0.063 A 
HETATM    9  C   UNL     1      43.852  -9.915  10.264  1.00  0.00     0.156 A 
HETATM   10  N   UNL     1      45.809  -9.371   9.651  1.00  0.00    -0.277 N 
HETATM   11  C   UNL     1      46.005 -10.664   7.499  1.00  0.00     0.034 A 
HETATM   12  H   UNL     1      46.710  -8.912   9.720  1.00  0.00     0.189 HD
HETATM   13  N   UNL     1      44.925  -9.184  10.644  1.00  0.00    -0.168 NA
HETATM   14  C   UNL     1      45.271 -11.534   6.681  1.00  0.00     0.032 A 
BRANCH   9  15
HETATM   15  C   UNL     1      42.655 -10.010  11.113  1.00  0.00     0.270 C 
HETATM   16  N   UNL     1      42.874 -10.617  12.319  1.00  0.00    -0.365 N 
HETATM   17  H   UNL     1      43.800 -10.972  12.521  1.00  0.00     0.159 HD
HETATM   18  H   UNL     1      42.101 -10.767  12.947  1.00  0.00     0.159 HD
HETATM   19  O   UNL     1      41.540  -9.610  10.798  1.00  0.00    -0.266 OA
ENDBRANCH   9  15
ENDBRANCH   2   5
BRANCH   1  20
HETATM   20  C   UNL     1      42.865 -14.819   4.787  1.00  0.00     0.107 C 
HETATM   21  C   UNL     1      43.088 -14.014   3.503  1.00  0.00     0.025 C 
BRANCH  20  22
HETATM   22  C   UNL     1      43.207 -16.303   4.726  1.00  0.00    -0.044 A 
HETATM   23  C   UNL     1      43.084 -16.964   3.487  1.00  0.00     0.020 A 
HETATM   24  C   UNL     1      43.379 -18.329   3.341  1.00  0.00    -0.025 A 
HETATM   25  C   UNL     1      43.822 -19.061   4.462  1.00  0.00    -0.026 A 
HETATM   26  C   UNL     1      43.242 -18.979   2.103  1.00  0.00     0.012 A 
HETATM   27  C   UNL     1      43.954 -18.405   5.695  1.00  0.00     0.013 A 
HETATM   28  C   UNL     1      44.122 -20.426   4.314  1.00  0.00     0.012 A 
HETATM   29  C   UNL     1      43.652 -17.044   5.826  1.00  0.00     0.009 A 
HETATM   30  C   UNL     1      43.983 -21.058   3.077  1.00  0.00     0.001 A 
HETATM   31  C   UNL     1      43.543 -20.334   1.972  1.00  0.00     0.001 A 
ENDBRANCH  20  22
ENDBRANCH   1  20
TORSDOF 4
ENDMDL
MODEL 10
REMARK VINA RESULT:      -8.7      5.867      9.315
REMARK  4 active torsions:
REMARK  status: ('A' for Active; 'I' for Inactive)
REMARK    1  A    between atoms: C_2  and  C_3 
REMARK    2  A    between atoms: C_2  and  C_19 
REMARK       I    between atoms: C_3  and  N_4 
REMARK    3  A    between atoms: N_4  and  C_5 
REMARK    4  A    between atoms: C_12  and  C_13 
REMARK       I    between atoms: C_13  and  N_14 
ROOT
HETATM    1  C   UNL     1      44.270 -11.447   6.765  1.00  0.00     0.230 C 
HETATM    2  N   UNL     1      43.424 -12.494   7.091  1.00  0.00    -0.327 N 
HETATM    3  O   UNL     1      44.316 -10.882   5.674  1.00  0.00    -0.272 OA
HETATM    4  H   UNL     1      43.364 -12.753   8.065  1.00  0.00     0.169 HD
ENDROOT
BRANCH   2   5
HETATM    5  C   UNL     1      42.599 -13.219   6.206  1.00  0.00     0.035 A 
HETATM    6  C   UNL     1      43.034 -14.352   5.506  1.00  0.00     0.046 A 
HETATM    7  C   UNL     1      42.126 -15.056   4.687  1.00  0.00     0.030 A 
HETATM    8  C   UNL     1      40.825 -14.583   4.568  1.00  0.00     0.063 A 
HETATM    9  C   UNL     1      42.162 -16.242   3.894  1.00  0.00     0.156 A 
HETATM   10  N   UNL     1      40.204 -15.445   3.708  1.00  0.00    -0.277 N 
HETATM   11  C   UNL     1      40.361 -13.453   5.242  1.00  0.00     0.034 A 
HETATM   12  H   UNL     1      39.246 -15.401   3.380  1.00  0.00     0.189 HD
HETATM   13  N   UNL     1      40.972 -16.464   3.289  1.00  0.00    -0.168 NA
HETATM   14  C   UNL     1      41.270 -12.793   6.080  1.00  0.00     0.032 A 
BRANCH   9  15
HETATM   15  C   UNL     1      43.288 -17.172   3.721  1.00  0.00     0.270 C 
HETATM   16  N   UNL     1      43.393 -17.693   2.461  1.00  0.00    -0.365 N 
HETATM   17  H   UNL     1      42.698 -17.435   1.770  1.00  0.00     0.159 HD
HETATM   18  H   UNL     1      44.108 -18.375   2.262  1.00  0.00     0.159 HD
HETATM   19  O   UNL     1      44.072 -17.493   4.607  1.00  0.00    -0.266 OA
ENDBRANCH   9  15
ENDBRANCH   2   5
BRANCH   1  20
HETATM   20  C   UNL     1      45.215 -11.011   7.897  1.00  0.00     0.107 C 
HETATM   21  C   UNL     1      46.596 -10.629   7.355  1.00  0.00     0.025 C 
BRANCH  20  22
HETATM   22  C   UNL     1      44.539  -9.995   8.810  1.00  0.00    -0.044 A 
HETATM   23  C   UNL     1      44.119 -10.422  10.086  1.00  0.00     0.020 A 
HETATM   24  C   UNL     1      43.490  -9.551  10.991  1.00  0.00    -0.025 A 
HETATM   25  C   UNL     1      43.280  -8.208  10.620  1.00  0.00    -0.026 A 
HETATM   26  C   UNL     1      43.067  -9.993  12.255  1.00  0.00     0.012 A 
HETATM   27  C   UNL     1      43.704  -7.776   9.354  1.00  0.00     0.013 A 
HETATM   28  C   UNL     1      42.655  -7.336  11.527  1.00  0.00     0.012 A 
HETATM   29  C   UNL     1      44.326  -8.656   8.461  1.00  0.00     0.009 A 
HETATM   30  C   UNL     1      42.241  -7.788  12.782  1.00  0.00     0.001 A 
HETATM   31  C   UNL     1      42.446  -9.116  13.145  1.00  0.00     0.001 A 
ENDBRANCH  20  22
ENDBRANCH   1  20
TORSDOF 4
ENDMDL
