MODEL 1
REMARK VINA RESULT:      -8.8      0.000      0.000
REMARK  7 active torsions:
REMARK  status: ('A' for Active; 'I' for Inactive)
REMARK    1  A    between atoms: O_2  and  C_3 
REMARK    2  A    between atoms: C_5  and  C_6 
REMARK       I    between atoms: C_6  and  N_7 
REMARK    3  A    between atoms: N_7  and  C_8 
REMARK    4  A    between atoms: C_10  and  C_11 
REMARK    5  A    between atoms: C_11  and  C_12 
REMARK    6  A    between atoms: C_12  and  C_13 
REMARK    7  A    between atoms: C_13  and  C_14 
ROOT
HETATM    1  C   UNL     1      40.426 -14.652   3.433  1.00  0.00     0.725 A 
HETATM    2  N   UNL     1      41.114 -14.225   4.463  1.00  0.00    -0.046 NA
HETATM    3  C   UNL     1      41.031 -15.271   5.351  1.00  0.00     0.165 A 
HETATM    4  N   UNL     1      40.322 -16.323   4.921  1.00  0.00    -0.144 NA
HETATM    5  N   UNL     1      39.948 -15.906   3.699  1.00  0.00    -0.106 N 
HETATM    6  H   UNL     1      39.396 -16.498   3.084  1.00  0.00     0.208 HD
ENDROOT
BRANCH   3   7
HETATM    7  C   UNL     1      41.738 -15.284   6.660  1.00  0.00     0.083 C 
BRANCH   7   8
HETATM    8  C   UNL     1      42.683 -16.471   6.842  1.00  0.00     0.012 C 
BRANCH   8   9
HETATM    9  C   UNL     1      43.917 -16.313   5.953  1.00  0.00     0.041 C 
BRANCH   9  10
HETATM   10  C   UNL     1      43.792 -17.036   4.650  1.00  0.00    -0.030 A 
HETATM   11  C   UNL     1      43.841 -18.453   4.446  1.00  0.00    -0.002 A 
HETATM   12  C   UNL     1      43.707 -18.685   3.078  1.00  0.00     0.042 A 
HETATM   13  C   UNL     1      43.993 -19.563   5.303  1.00  0.00     0.014 A 
HETATM   14  C   UNL     1      43.722 -19.969   2.520  1.00  0.00     0.030 A 
HETATM   15  N   UNL     1      43.574 -17.458   2.472  1.00  0.00    -0.365 N 
HETATM   16  C   UNL     1      43.875 -21.051   3.391  1.00  0.00     0.002 A 
HETATM   17  C   UNL     1      44.008 -20.855   4.764  1.00  0.00     0.001 A 
HETATM   18  H   UNL     1      43.461 -17.319   1.478  1.00  0.00     0.165 HD
HETATM   19  C   UNL     1      43.622 -16.459   3.407  1.00  0.00     0.096 A 
ENDBRANCH   9  10
ENDBRANCH   8   9
ENDBRANCH   7   8
ENDBRANCH   3   7
BRANCH   1  20
HETATM   20  N   UNL     1      40.224 -13.962   2.265  1.00  0.00    -0.152 N 
HETATM   21  C   UNL     1      40.834 -14.346   1.091  1.00  0.00     0.270 C 
HETATM   22  O   UNL     1      41.590 -15.308   0.981  1.00  0.00    -0.267 OA
HETATM   23  H   UNL     1      39.683 -13.113   2.345  1.00  0.00     0.187 HD
BRANCH  21  24
HETATM   24  C   UNL     1      40.558 -13.484  -0.086  1.00  0.00     0.035 A 
HETATM   25  C   UNL     1      40.093 -14.090  -1.259  1.00  0.00     0.053 A 
HETATM   26  C   UNL     1      39.818 -13.321  -2.392  1.00  0.00     0.069 A 
HETATM   27  C   UNL     1      40.001 -11.939  -2.342  1.00  0.00     0.037 A 
HETATM   28  C   UNL     1      40.449 -11.328  -1.166  1.00  0.00     0.004 A 
HETATM   29  C   UNL     1      40.729 -12.098  -0.035  1.00  0.00     0.017 A 
BRANCH  26  30
HETATM   30  O   UNL     1      39.388 -14.038  -3.475  1.00  0.00    -0.356 OA
HETATM   31  C   UNL     1      38.255 -14.875  -3.287  1.00  0.00     0.210 C 
ENDBRANCH  26  30
ENDBRANCH  21  24
ENDBRANCH   1  20
TORSDOF 7
ENDMDL
MODEL 2
REMARK VINA RESULT:      -8.7      4.364      7.099
REMARK  7 active torsions:
REMARK  status: ('A' for Active; 'I' for Inactive)
REMARK    1  A    between atoms: O_2  and  C_3 
REMARK    2  A    between atoms: C_5  and  C_6 
REMARK       I    between atoms: C_6  and  N_7 
REMARK    3  A    between atoms: N_7  and  C_8 
REMARK    4  A    between atoms: C_10  and  C_11 
REMARK    5  A    between atoms: C_11  and  C_12 
REMARK    6  A    between atoms: C_12  and  C_13 
REMARK    7  A    between atoms: C_13  and  C_14 
ROOT
HETATM    1  C   UNL     1      42.114 -12.748   5.046  1.00  0.00     0.725 A 
HETATM    2  N   UNL     1      42.166 -12.941   3.751  1.00  0.00    -0.046 NA
HETATM    3  C   UNL     1      41.284 -13.977   3.553  1.00  0.00     0.165 A 
HETATM    4  N   UNL     1      40.692 -14.436   4.663  1.00  0.00    -0.144 NA
HETATM    5  N   UNL     1      41.234 -13.639   5.599  1.00  0.00    -0.106 N 
HETATM    6  H   UNL     1      40.972 -13.719   6.578  1.00  0.00     0.208 HD
ENDROOT
BRANCH   3   7
HETATM    7  C   UNL     1      40.940 -14.504   2.205  1.00  0.00     0.083 C 
BRANCH   7   8
HETATM    8  C   UNL     1      41.432 -15.928   1.953  1.00  0.00     0.012 C 
BRANCH   8   9
HETATM    9  C   UNL     1      42.953 -16.000   2.090  1.00  0.00     0.041 C 
BRANCH   9  10
HETATM   10  C   UNL     1      43.394 -16.893   3.206  1.00  0.00    -0.030 A 
HETATM   11  C   UNL     1      43.527 -18.318   3.164  1.00  0.00    -0.002 A 
HETATM   12  C   UNL     1      43.938 -18.739   4.429  1.00  0.00     0.042 A 
HETATM   13  C   UNL     1      43.329 -19.294   2.165  1.00  0.00     0.014 A 
HETATM   14  C   UNL     1      44.158 -20.084   4.747  1.00  0.00     0.030 A 
HETATM   15  N   UNL     1      44.059 -17.612   5.208  1.00  0.00    -0.365 N 
HETATM   16  C   UNL     1      43.953 -21.030   3.739  1.00  0.00     0.002 A 
HETATM   17  C   UNL     1      43.546 -20.644   2.465  1.00  0.00     0.001 A 
HETATM   18  H   UNL     1      44.342 -17.615   6.177  1.00  0.00     0.165 HD
HETATM   19  C   UNL     1      43.736 -16.497   4.485  1.00  0.00     0.096 A 
ENDBRANCH   9  10
ENDBRANCH   8   9
ENDBRANCH   7   8
ENDBRANCH   3   7
BRANCH   1  20
HETATM   20  N   UNL     1      42.816 -11.798   5.742  1.00  0.00    -0.152 N 
HETATM   21  C   UNL     1      43.824 -12.147   6.614  1.00  0.00     0.270 C 
HETATM   22  O   UNL     1      44.179 -13.300   6.844  1.00  0.00    -0.267 OA
HETATM   23  H   UNL     1      42.485 -10.849   5.645  1.00  0.00     0.187 HD
BRANCH  21  24
HETATM   24  C   UNL     1      44.471 -11.018   7.330  1.00  0.00     0.035 A 
HETATM   25  C   UNL     1      43.686 -10.238   8.187  1.00  0.00     0.053 A 
HETATM   26  C   UNL     1      44.249  -9.165   8.883  1.00  0.00     0.069 A 
HETATM   27  C   UNL     1      45.606  -8.885   8.725  1.00  0.00     0.037 A 
HETATM   28  C   UNL     1      46.398  -9.673   7.882  1.00  0.00     0.004 A 
HETATM   29  C   UNL     1      45.833 -10.741   7.183  1.00  0.00     0.017 A 
BRANCH  26  30
HETATM   30  O   UNL     1      43.370  -8.475   9.671  1.00  0.00    -0.356 OA
HETATM   31  C   UNL     1      42.210  -9.170  10.109  1.00  0.00     0.210 C 
ENDBRANCH  26  30
ENDBRANCH  21  24
ENDBRANCH   1  20
TORSDOF 7
ENDMDL
MODEL 3
REMARK VINA RESULT:      -8.6      4.718      7.671
REMARK  7 active torsions:
REMARK  status: ('A' for Active; 'I' for Inactive)
REMARK    1  A    between atoms: O_2  and  C_3 
REMARK    2  A    between atoms: C_5  and  C_6 
REMARK       I    between atoms: C_6  and  N_7 
REMARK    3  A    between atoms: N_7  and  C_8 
REMARK    4  A    between atoms: C_10  and  C_11 
REMARK    5  A    between atoms: C_11  and  C_12 
REMARK    6  A    between atoms: C_12  and  C_13 
REMARK    7  A    between atoms: C_13  and  C_14 
ROOT
HETATM    1  C   UNL     1      42.712 -11.308   4.667  1.00  0.00     0.725 A 
HETATM    2  N   UNL     1      42.388 -12.533   4.335  1.00  0.00    -0.046 NA
HETATM    3  C   UNL     1      42.340 -12.484   2.961  1.00  0.00     0.165 A 
HETATM    4  N   UNL     1      42.618 -11.286   2.430  1.00  0.00    -0.144 NA
HETATM    5  N   UNL     1      42.852 -10.555   3.533  1.00  0.00    -0.106 N 
HETATM    6  H   UNL     1      43.115  -9.575   3.472  1.00  0.00     0.208 HD
ENDROOT
BRANCH   3   7
HETATM    7  C   UNL     1      42.085 -13.679   2.114  1.00  0.00     0.083 C 
BRANCH   7   8
HETATM    8  C   UNL     1      43.306 -14.578   1.928  1.00  0.00     0.012 C 
BRANCH   8   9
HETATM    9  C   UNL     1      42.883 -16.047   1.861  1.00  0.00     0.041 C 
BRANCH   9  10
HETATM   10  C   UNL     1      43.301 -16.827   3.066  1.00  0.00    -0.030 A 
HETATM   11  C   UNL     1      43.490 -18.244   3.149  1.00  0.00    -0.002 A 
HETATM   12  C   UNL     1      43.853 -18.543   4.462  1.00  0.00     0.042 A 
HETATM   13  C   UNL     1      43.381 -19.304   2.225  1.00  0.00     0.014 A 
HETATM   14  C   UNL     1      44.108 -19.848   4.901  1.00  0.00     0.030 A 
HETATM   15  N   UNL     1      43.891 -17.354   5.151  1.00  0.00    -0.365 N 
HETATM   16  C   UNL     1      43.991 -20.880   3.965  1.00  0.00     0.002 A 
HETATM   17  C   UNL     1      43.635 -20.615   2.645  1.00  0.00     0.001 A 
HETATM   18  H   UNL     1      44.124 -17.266   6.129  1.00  0.00     0.165 HD
HETATM   19  C   UNL     1      43.561 -16.315   4.323  1.00  0.00     0.096 A 
ENDBRANCH   9  10
ENDBRANCH   8   9
ENDBRANCH   7   8
ENDBRANCH   3   7
BRANCH   1  20
HETATM   20  N   UNL     1      42.899 -10.849   5.946  1.00  0.00    -0.152 N 
HETATM   21  C   UNL     1      44.147 -10.835   6.527  1.00  0.00     0.270 C 
HETATM   22  O   UNL     1      45.177 -11.217   5.978  1.00  0.00    -0.267 OA
HETATM   23  H   UNL     1      42.058 -10.616   6.455  1.00  0.00     0.187 HD
BRANCH  21  24
HETATM   24  C   UNL     1      44.195 -10.351   7.930  1.00  0.00     0.035 A 
HETATM   25  C   UNL     1      43.020  -9.843   8.498  1.00  0.00     0.053 A 
HETATM   26  C   UNL     1      43.015  -9.376   9.815  1.00  0.00     0.069 A 
HETATM   27  C   UNL     1      44.190  -9.430  10.565  1.00  0.00     0.037 A 
HETATM   28  C   UNL     1      45.361  -9.952  10.006  1.00  0.00     0.004 A 
HETATM   29  C   UNL     1      45.367 -10.414   8.689  1.00  0.00     0.017 A 
BRANCH  26  30
HETATM   30  O   UNL     1      41.809  -8.891  10.241  1.00  0.00    -0.356 OA
HETATM   31  C   UNL     1      41.134  -9.630  11.250  1.00  0.00     0.210 C 
ENDBRANCH  26  30
ENDBRANCH  21  24
ENDBRANCH   1  20
TORSDOF 7
ENDMDL
MODEL 4
REMARK VINA RESULT:      -8.6      6.544      9.999
REMARK  7 active torsions:
REMARK  status: ('A' for Active; 'I' for Inactive)
REMARK    1  A    between atoms: O_2  and  C_3 
REMARK    2  A    between atoms: C_5  and  C_6 
REMARK       I    between atoms: C_6  and  N_7 
REMARK    3  A    between atoms: N_7  and  C_8 
REMARK    4  A    between atoms: C_10  and  C_11 
REMARK    5  A    between atoms: C_11  and  C_12 
REMARK    6  A    between atoms: C_12  and  C_13 
REMARK    7  A    between atoms: C_13  and  C_14 
ROOT
HETATM    1  C   UNL     1      43.912 -12.336   6.672  1.00  0.00     0.725 A 
HETATM    2  N   UNL     1      44.995 -11.789   7.165  1.00  0.00    -0.046 NA
HETATM    3  C   UNL     1      44.514 -10.692   7.841  1.00  0.00     0.165 A 
HETATM    4  N   UNL     1      43.185 -10.534   7.786  1.00  0.00    -0.144 NA
HETATM    5  N   UNL     1      42.824 -11.591   7.039  1.00  0.00    -0.106 N 
HETATM    6  H   UNL     1      41.849 -11.776   6.821  1.00  0.00     0.208 HD
ENDROOT
BRANCH   3   7
HETATM    7  C   UNL     1      45.380  -9.789   8.645  1.00  0.00     0.083 C 
BRANCH   7   8
HETATM    8  C   UNL     1      45.294 -10.028  10.151  1.00  0.00     0.012 C 
BRANCH   8   9
HETATM    9  C   UNL     1      44.641  -8.832  10.846  1.00  0.00     0.041 C 
BRANCH   9  10
HETATM   10  C   UNL     1      43.476  -9.221  11.699  1.00  0.00    -0.030 A 
HETATM   11  C   UNL     1      43.024  -8.563  12.888  1.00  0.00    -0.002 A 
HETATM   12  C   UNL     1      41.928  -9.275  13.372  1.00  0.00     0.042 A 
HETATM   13  C   UNL     1      43.452  -7.425  13.602  1.00  0.00     0.014 A 
HETATM   14  C   UNL     1      41.239  -8.912  14.535  1.00  0.00     0.030 A 
HETATM   15  N   UNL     1      41.714 -10.323  12.507  1.00  0.00    -0.365 N 
HETATM   16  C   UNL     1      41.685  -7.781  15.225  1.00  0.00     0.002 A 
HETATM   17  C   UNL     1      42.775  -7.044  14.767  1.00  0.00     0.001 A 
HETATM   18  H   UNL     1      40.982 -11.010  12.610  1.00  0.00     0.165 HD
HETATM   19  C   UNL     1      42.638 -10.301  11.497  1.00  0.00     0.096 A 
ENDBRANCH   9  10
ENDBRANCH   8   9
ENDBRANCH   7   8
ENDBRANCH   3   7
BRANCH   1  20
HETATM   20  N   UNL     1      43.865 -13.481   5.918  1.00  0.00    -0.152 N 
HETATM   21  C   UNL     1      43.385 -14.662   6.439  1.00  0.00     0.270 C 
HETATM   22  O   UNL     1      42.967 -14.800   7.585  1.00  0.00    -0.267 OA
HETATM   23  H   UNL     1      44.289 -13.421   5.003  1.00  0.00     0.187 HD
BRANCH  21  24
HETATM   24  C   UNL     1      43.432 -15.830   5.524  1.00  0.00     0.035 A 
HETATM   25  C   UNL     1      42.561 -15.851   4.428  1.00  0.00     0.053 A 
HETATM   26  C   UNL     1      42.568 -16.929   3.538  1.00  0.00     0.069 A 
HETATM   27  C   UNL     1      43.461 -17.981   3.745  1.00  0.00     0.037 A 
HETATM   28  C   UNL     1      44.344 -17.955   4.830  1.00  0.00     0.004 A 
HETATM   29  C   UNL     1      44.332 -16.881   5.721  1.00  0.00     0.017 A 
BRANCH  26  30
HETATM   30  O   UNL     1      41.658 -16.833   2.522  1.00  0.00    -0.356 OA
HETATM   31  C   UNL     1      40.985 -15.590   2.372  1.00  0.00     0.210 C 
ENDBRANCH  26  30
ENDBRANCH  21  24
ENDBRANCH   1  20
TORSDOF 7
ENDMDL
MODEL 5
REMARK VINA RESULT:      -8.6      6.664      9.742
REMARK  7 active torsions:
REMARK  status: ('A' for Active; 'I' for Inactive)
REMARK    1  A    between atoms: O_2  and  C_3 
REMARK    2  A    between atoms: C_5  and  C_6 
REMARK       I    between atoms: C_6  and  N_7 
REMARK    3  A    between atoms: N_7  and  C_8 
REMARK    4  A    between atoms: C_10  and  C_11 
REMARK    5  A    between atoms: C_11  and  C_12 
REMARK    6  A    between atoms: C_12  and  C_13 
REMARK    7  A    between atoms: C_13  and  C_14 
ROOT
HETATM    1  C   UNL     1      44.404 -10.372   8.726  1.00  0.00     0.725 A 
HETATM    2  N   UNL     1      43.821 -11.203   7.897  1.00  0.00    -0.046 NA
HETATM    3  C   UNL     1      44.838 -11.563   7.046  1.00  0.00     0.165 A 
HETATM    4  N   UNL     1      46.022 -10.994   7.307  1.00  0.00    -0.144 NA
HETATM    5  N   UNL     1      45.722 -10.242   8.380  1.00  0.00    -0.106 N 
HETATM    6  H   UNL     1      46.429  -9.681   8.847  1.00  0.00     0.208 HD
ENDROOT
BRANCH   3   7
HETATM    7  C   UNL     1      44.674 -12.572   5.965  1.00  0.00     0.083 C 
BRANCH   7   8
HETATM    8  C   UNL     1      43.298 -13.235   5.941  1.00  0.00     0.012 C 
BRANCH   8   9
HETATM    9  C   UNL     1      43.437 -14.757   5.996  1.00  0.00     0.041 C 
BRANCH   9  10
HETATM   10  C   UNL     1      43.098 -15.418   4.698  1.00  0.00    -0.030 A 
HETATM   11  C   UNL     1      43.464 -16.740   4.286  1.00  0.00    -0.002 A 
HETATM   12  C   UNL     1      42.961 -16.933   3.000  1.00  0.00     0.042 A 
HETATM   13  C   UNL     1      44.184 -17.792   4.889  1.00  0.00     0.014 A 
HETATM   14  C   UNL     1      43.144 -18.122   2.283  1.00  0.00     0.030 A 
HETATM   15  N   UNL     1      42.307 -15.777   2.645  1.00  0.00    -0.365 N 
HETATM   16  C   UNL     1      43.863 -19.148   2.904  1.00  0.00     0.002 A 
HETATM   17  C   UNL     1      44.375 -18.989   4.189  1.00  0.00     0.001 A 
HETATM   18  H   UNL     1      41.844 -15.630   1.760  1.00  0.00     0.165 HD
HETATM   19  C   UNL     1      42.382 -14.859   3.657  1.00  0.00     0.096 A 
ENDBRANCH   9  10
ENDBRANCH   8   9
ENDBRANCH   7   8
ENDBRANCH   3   7
BRANCH   1  20
HETATM   20  N   UNL     1      43.800  -9.741   9.783  1.00  0.00    -0.152 N 
HETATM   21  C   UNL     1      43.918 -10.224  11.068  1.00  0.00     0.270 C 
HETATM   22  O   UNL     1      44.551 -11.229  11.380  1.00  0.00    -0.267 OA
HETATM   23  H   UNL     1      43.197  -8.967   9.545  1.00  0.00     0.187 HD
BRANCH  21  24
HETATM   24  C   UNL     1      43.178  -9.464  12.107  1.00  0.00     0.035 A 
HETATM   25  C   UNL     1      41.991 -10.009  12.610  1.00  0.00     0.053 A 
HETATM   26  C   UNL     1      41.260  -9.332  13.590  1.00  0.00     0.069 A 
HETATM   27  C   UNL     1      41.731  -8.111  14.073  1.00  0.00     0.037 A 
HETATM   28  C   UNL     1      42.926  -7.572  13.584  1.00  0.00     0.004 A 
HETATM   29  C   UNL     1      43.653  -8.246  12.602  1.00  0.00     0.017 A 
BRANCH  26  30
HETATM   30  O   UNL     1      40.112  -9.964  13.981  1.00  0.00    -0.356 OA
HETATM   31  C   UNL     1      39.425 -10.725  12.996  1.00  0.00     0.210 C 
ENDBRANCH  26  30
ENDBRANCH  21  24
ENDBRANCH   1  20
TORSDOF 7
ENDMDL
MODEL 6
REMARK VINA RESULT:      -8.5      6.499      9.873
REMARK  7 active torsions:
REMARK  status: ('A' for Active; 'I' for Inactive)
REMARK    1  A    between atoms: O_2  and  C_3 
REMARK    2  A    between atoms: C_5  and  C_6 
REMARK       I    between atoms: C_6  and  N_7 
REMARK    3  A    between atoms: N_7  and  C_8 
REMARK    4  A    between atoms: C_10  and  C_11 
REMARK    5  A    between atoms: C_11  and  C_12 
REMARK    6  A    between atoms: C_12  and  C_13 
REMARK    7  A    between atoms: C_13  and  C_14 
ROOT
HETATM    1  C   UNL     1      43.785 -12.299   6.489  1.00  0.00     0.725 A 
HETATM    2  N   UNL     1      44.856 -11.727   6.980  1.00  0.00    -0.046 NA
HETATM    3  C   UNL     1      44.349 -10.654   7.674  1.00  0.00     0.165 A 
HETATM    4  N   UNL     1      43.015 -10.535   7.634  1.00  0.00    -0.144 NA
HETATM    5  N   UNL     1      42.679 -11.592   6.875  1.00  0.00    -0.106 N 
HETATM    6  H   UNL     1      41.707 -11.803   6.664  1.00  0.00     0.208 HD
ENDROOT
BRANCH   3   7
HETATM    7  C   UNL     1      45.195  -9.736   8.483  1.00  0.00     0.083 C 
BRANCH   7   8
HETATM    8  C   UNL     1      45.217 -10.067   9.974  1.00  0.00     0.012 C 
BRANCH   8   9
HETATM    9  C   UNL     1      44.676  -8.892  10.790  1.00  0.00     0.041 C 
BRANCH   9  10
HETATM   10  C   UNL     1      43.499  -9.263  11.633  1.00  0.00    -0.030 A 
HETATM   11  C   UNL     1      43.035  -8.587  12.807  1.00  0.00    -0.002 A 
HETATM   12  C   UNL     1      41.928  -9.287  13.286  1.00  0.00     0.042 A 
HETATM   13  C   UNL     1      43.460  -7.441  13.512  1.00  0.00     0.014 A 
HETATM   14  C   UNL     1      41.226  -8.904  14.435  1.00  0.00     0.030 A 
HETATM   15  N   UNL     1      41.721 -10.345  12.433  1.00  0.00    -0.365 N 
HETATM   16  C   UNL     1      41.669  -7.766  15.115  1.00  0.00     0.002 A 
HETATM   17  C   UNL     1      42.769  -7.041  14.662  1.00  0.00     0.001 A 
HETATM   18  H   UNL     1      40.983 -11.027  12.536  1.00  0.00     0.165 HD
HETATM   19  C   UNL     1      42.658 -10.341  11.435  1.00  0.00     0.096 A 
ENDBRANCH   9  10
ENDBRANCH   8   9
ENDBRANCH   7   8
ENDBRANCH   3   7
BRANCH   1  20
HETATM   20  N   UNL     1      43.765 -13.435   5.720  1.00  0.00    -0.152 N 
HETATM   21  C   UNL     1      43.050 -13.493   4.544  1.00  0.00     0.270 C 
HETATM   22  O   UNL     1      42.385 -12.567   4.087  1.00  0.00    -0.267 OA
HETATM   23  H   UNL     1      44.225 -14.241   6.118  1.00  0.00     0.187 HD
BRANCH  21  24
HETATM   24  C   UNL     1      43.086 -14.797   3.837  1.00  0.00     0.035 A 
HETATM   25  C   UNL     1      43.237 -15.962   4.598  1.00  0.00     0.053 A 
HETATM   26  C   UNL     1      43.275 -17.214   3.978  1.00  0.00     0.069 A 
HETATM   27  C   UNL     1      43.150 -17.294   2.591  1.00  0.00     0.037 A 
HETATM   28  C   UNL     1      42.982 -16.133   1.828  1.00  0.00     0.004 A 
HETATM   29  C   UNL     1      42.949 -14.883   2.448  1.00  0.00     0.017 A 
BRANCH  26  30
HETATM   30  O   UNL     1      43.444 -18.267   4.833  1.00  0.00    -0.356 OA
HETATM   31  C   UNL     1      43.382 -17.987   6.226  1.00  0.00     0.210 C 
ENDBRANCH  26  30
ENDBRANCH  21  24
ENDBRANCH   1  20
TORSDOF 7
ENDMDL
MODEL 7
REMARK VINA RESULT:      -8.3      0.922      1.716
REMARK  7 active torsions:
REMARK  status: ('A' for Active; 'I' for Inactive)
REMARK    1  A    between atoms: O_2  and  C_3 
REMARK    2  A    between atoms: C_5  and  C_6 
REMARK       I    between atoms: C_6  and  N_7 
REMARK    3  A    between atoms: N_7  and  C_8 
REMARK    4  A    between atoms: C_10  and  C_11 
REMARK    5  A    between atoms: C_11  and  C_12 
REMARK    6  A    between atoms: C_12  and  C_13 
REMARK    7  A    between atoms: C_13  and  C_14 
ROOT
HETATM    1  C   UNL     1      40.201 -14.890   3.086  1.00  0.00     0.725 A 
HETATM    2  N   UNL     1      40.940 -14.259   3.965  1.00  0.00    -0.046 NA
HETATM    3  C   UNL     1      41.019 -15.152   5.008  1.00  0.00     0.165 A 
HETATM    4  N   UNL     1      40.362 -16.304   4.816  1.00  0.00    -0.144 NA
HETATM    5  N   UNL     1      39.851 -16.114   3.587  1.00  0.00    -0.106 N 
HETATM    6  H   UNL     1      39.297 -16.832   3.129  1.00  0.00     0.208 HD
ENDROOT
BRANCH   3   7
HETATM    7  C   UNL     1      41.836 -14.908   6.226  1.00  0.00     0.083 C 
BRANCH   7   8
HETATM    8  C   UNL     1      43.341 -14.873   5.966  1.00  0.00     0.012 C 
BRANCH   8   9
HETATM    9  C   UNL     1      43.925 -16.286   6.011  1.00  0.00     0.041 C 
BRANCH   9  10
HETATM   10  C   UNL     1      43.804 -17.006   4.706  1.00  0.00    -0.030 A 
HETATM   11  C   UNL     1      43.860 -18.422   4.498  1.00  0.00    -0.002 A 
HETATM   12  C   UNL     1      43.729 -18.651   3.129  1.00  0.00     0.042 A 
HETATM   13  C   UNL     1      44.017 -19.534   5.351  1.00  0.00     0.014 A 
HETATM   14  C   UNL     1      43.750 -19.933   2.568  1.00  0.00     0.030 A 
HETATM   15  N   UNL     1      43.589 -17.423   2.526  1.00  0.00    -0.365 N 
HETATM   16  C   UNL     1      43.908 -21.018   3.436  1.00  0.00     0.002 A 
HETATM   17  C   UNL     1      44.039 -20.824   4.809  1.00  0.00     0.001 A 
HETATM   18  H   UNL     1      43.477 -17.282   1.533  1.00  0.00     0.165 HD
HETATM   19  C   UNL     1      43.632 -16.426   3.464  1.00  0.00     0.096 A 
ENDBRANCH   9  10
ENDBRANCH   8   9
ENDBRANCH   7   8
ENDBRANCH   3   7
BRANCH   1  20
HETATM   20  N   UNL     1      39.843 -14.412   1.852  1.00  0.00    -0.152 N 
HETATM   21  C   UNL     1      40.568 -14.726   0.724  1.00  0.00     0.270 C 
HETATM   22  O   UNL     1      41.568 -15.439   0.714  1.00  0.00    -0.267 OA
HETATM   23  H   UNL     1      39.082 -13.748   1.843  1.00  0.00     0.187 HD
BRANCH  21  24
HETATM   24  C   UNL     1      40.090 -14.106  -0.538  1.00  0.00     0.035 A 
HETATM   25  C   UNL     1      40.542 -12.820  -0.859  1.00  0.00     0.053 A 
HETATM   26  C   UNL     1      40.122 -12.194  -2.035  1.00  0.00     0.069 A 
HETATM   27  C   UNL     1      39.254 -12.868  -2.896  1.00  0.00     0.037 A 
HETATM   28  C   UNL     1      38.814 -14.160  -2.586  1.00  0.00     0.004 A 
HETATM   29  C   UNL     1      39.230 -14.782  -1.408  1.00  0.00     0.017 A 
BRANCH  26  30
HETATM   30  O   UNL     1      40.622 -10.935  -2.220  1.00  0.00    -0.356 OA
HETATM   31  C   UNL     1      40.766 -10.120  -1.064  1.00  0.00     0.210 C 
ENDBRANCH  26  30
ENDBRANCH  21  24
ENDBRANCH   1  20
TORSDOF 7
ENDMDL
MODEL 8
REMARK VINA RESULT:      -8.3      5.782      8.834
REMARK  7 active torsions:
REMARK  status: ('A' for Active; 'I' for Inactive)
REMARK    1  A    between atoms: O_2  and  C_3 
REMARK    2  A    between atoms: C_5  and  C_6 
REMARK       I    between atoms: C_6  and  N_7 
REMARK    3  A    between atoms: N_7  and  C_8 
REMARK    4  A    between atoms: C_10  and  C_11 
REMARK    5  A    between atoms: C_11  and  C_12 
REMARK    6  A    between atoms: C_12  and  C_13 
REMARK    7  A    between atoms: C_13  and  C_14 
ROOT
HETATM    1  C   UNL     1      43.387 -10.832   6.802  1.00  0.00     0.725 A 
HETATM    2  N   UNL     1      42.575 -11.021   5.790  1.00  0.00    -0.046 NA
HETATM    3  C   UNL     1      43.430 -11.306   4.752  1.00  0.00     0.165 A 
HETATM    4  N   UNL     1      44.731 -11.300   5.073  1.00  0.00    -0.144 NA
HETATM    5  N   UNL     1      44.678 -10.997   6.381  1.00  0.00    -0.106 N 
HETATM    6  H   UNL     1      45.523 -10.931   6.943  1.00  0.00     0.208 HD
ENDROOT
BRANCH   3   7
HETATM    7  C   UNL     1      42.959 -11.678   3.391  1.00  0.00     0.083 C 
BRANCH   7   8
HETATM    8  C   UNL     1      43.178 -13.148   3.040  1.00  0.00     0.012 C 
BRANCH   8   9
HETATM    9  C   UNL     1      42.257 -14.040   3.874  1.00  0.00     0.041 C 
BRANCH   9  10
HETATM   10  C   UNL     1      42.970 -15.208   4.477  1.00  0.00    -0.030 A 
HETATM   11  C   UNL     1      43.201 -16.482   3.865  1.00  0.00    -0.002 A 
HETATM   12  C   UNL     1      43.877 -17.276   4.791  1.00  0.00     0.042 A 
HETATM   13  C   UNL     1      42.893 -17.036   2.606  1.00  0.00     0.014 A 
HETATM   14  C   UNL     1      44.258 -18.596   4.525  1.00  0.00     0.030 A 
HETATM   15  N   UNL     1      44.058 -16.512   5.921  1.00  0.00    -0.365 N 
HETATM   16  C   UNL     1      43.938 -19.122   3.270  1.00  0.00     0.002 A 
HETATM   17  C   UNL     1      43.267 -18.355   2.321  1.00  0.00     0.001 A 
HETATM   18  H   UNL     1      44.519 -16.832   6.760  1.00  0.00     0.165 HD
HETATM   19  C   UNL     1      43.517 -15.268   5.744  1.00  0.00     0.096 A 
ENDBRANCH   9  10
ENDBRANCH   8   9
ENDBRANCH   7   8
ENDBRANCH   3   7
BRANCH   1  20
HETATM   20  N   UNL     1      43.008 -10.531   8.085  1.00  0.00    -0.152 N 
HETATM   21  C   UNL     1      43.476  -9.404   8.724  1.00  0.00     0.270 C 
HETATM   22  O   UNL     1      44.248  -8.589   8.225  1.00  0.00    -0.267 OA
HETATM   23  H   UNL     1      42.449 -11.229   8.553  1.00  0.00     0.187 HD
BRANCH  21  24
HETATM   24  C   UNL     1      43.016  -9.224  10.124  1.00  0.00     0.035 A 
HETATM   25  C   UNL     1      41.711  -9.612  10.450  1.00  0.00     0.053 A 
HETATM   26  C   UNL     1      41.233  -9.464  11.754  1.00  0.00     0.069 A 
HETATM   27  C   UNL     1      42.073  -8.935  12.735  1.00  0.00     0.037 A 
HETATM   28  C   UNL     1      43.384  -8.563  12.417  1.00  0.00     0.004 A 
HETATM   29  C   UNL     1      43.859  -8.706  11.112  1.00  0.00     0.017 A 
BRANCH  26  30
HETATM   30  O   UNL     1      39.938  -9.864  11.934  1.00  0.00    -0.356 OA
HETATM   31  C   UNL     1      39.664 -10.683  13.063  1.00  0.00     0.210 C 
ENDBRANCH  26  30
ENDBRANCH  21  24
ENDBRANCH   1  20
TORSDOF 7
ENDMDL
MODEL 9
REMARK VINA RESULT:      -8.1      4.164      6.793
REMARK  7 active torsions:
REMARK  status: ('A' for Active; 'I' for Inactive)
REMARK    1  A    between atoms: O_2  and  C_3 
REMARK    2  A    between atoms: C_5  and  C_6 
REMARK       I    between atoms: C_6  and  N_7 
REMARK    3  A    between atoms: N_7  and  C_8 
REMARK    4  A    between atoms: C_10  and  C_11 
REMARK    5  A    between atoms: C_11  and  C_12 
REMARK    6  A    between atoms: C_12  and  C_13 
REMARK    7  A    between atoms: C_13  and  C_14 
ROOT
HETATM    1  C   UNL     1      40.893 -12.940   5.119  1.00  0.00     0.725 A 
HETATM    2  N   UNL     1      41.114 -14.228   5.019  1.00  0.00    -0.046 NA
HETATM    3  C   UNL     1      40.504 -14.559   3.832  1.00  0.00     0.165 A 
HETATM    4  N   UNL     1      39.913 -13.539   3.196  1.00  0.00    -0.144 NA
HETATM    5  N   UNL     1      40.175 -12.520   4.033  1.00  0.00    -0.106 N 
HETATM    6  H   UNL     1      39.870 -11.573   3.824  1.00  0.00     0.208 HD
ENDROOT
BRANCH   3   7
HETATM    7  C   UNL     1      40.558 -15.925   3.245  1.00  0.00     0.083 C 
BRANCH   7   8
HETATM    8  C   UNL     1      41.443 -16.031   2.004  1.00  0.00     0.012 C 
BRANCH   8   9
HETATM    9  C   UNL     1      42.912 -15.831   2.377  1.00  0.00     0.041 C 
BRANCH   9  10
HETATM   10  C   UNL     1      43.391 -16.811   3.400  1.00  0.00    -0.030 A 
HETATM   11  C   UNL     1      43.503 -18.230   3.243  1.00  0.00    -0.002 A 
HETATM   12  C   UNL     1      43.965 -18.751   4.451  1.00  0.00     0.042 A 
HETATM   13  C   UNL     1      43.249 -19.123   2.181  1.00  0.00     0.014 A 
HETATM   14  C   UNL     1      44.182 -20.119   4.655  1.00  0.00     0.030 A 
HETATM   15  N   UNL     1      44.135 -17.690   5.309  1.00  0.00    -0.365 N 
HETATM   16  C   UNL     1      43.920 -20.982   3.586  1.00  0.00     0.002 A 
HETATM   17  C   UNL     1      43.462 -20.494   2.365  1.00  0.00     0.001 A 
HETATM   18  H   UNL     1      44.460 -17.771   6.261  1.00  0.00     0.165 HD
HETATM   19  C   UNL     1      43.793 -16.519   4.689  1.00  0.00     0.096 A 
ENDBRANCH   9  10
ENDBRANCH   8   9
ENDBRANCH   7   8
ENDBRANCH   3   7
BRANCH   1  20
HETATM   20  N   UNL     1      41.321 -12.132   6.141  1.00  0.00    -0.152 N 
HETATM   21  C   UNL     1      41.860 -10.889   5.894  1.00  0.00     0.270 C 
HETATM   22  O   UNL     1      42.003 -10.401   4.776  1.00  0.00    -0.267 OA
HETATM   23  H   UNL     1      41.303 -12.544   7.063  1.00  0.00     0.187 HD
BRANCH  21  24
HETATM   24  C   UNL     1      42.320 -10.141   7.091  1.00  0.00     0.035 A 
HETATM   25  C   UNL     1      43.663 -10.252   7.469  1.00  0.00     0.053 A 
HETATM   26  C   UNL     1      44.143  -9.566   8.588  1.00  0.00     0.069 A 
HETATM   27  C   UNL     1      43.273  -8.759   9.321  1.00  0.00     0.037 A 
HETATM   28  C   UNL     1      41.933  -8.632   8.936  1.00  0.00     0.004 A 
HETATM   29  C   UNL     1      41.453  -9.322   7.821  1.00  0.00     0.017 A 
BRANCH  26  30
HETATM   30  O   UNL     1      45.467  -9.775   8.857  1.00  0.00    -0.356 OA
HETATM   31  C   UNL     1      46.259 -10.336   7.818  1.00  0.00     0.210 C 
ENDBRANCH  26  30
ENDBRANCH  21  24
ENDBRANCH   1  20
TORSDOF 7
ENDMDL
MODEL 10
REMARK VINA RESULT:      -8.1      4.489      7.667
REMARK  7 active torsions:
REMARK  status: ('A' for Active; 'I' for Inactive)
REMARK    1  A    between atoms: O_2  and  C_3 
REMARK    2  A    between atoms: C_5  and  C_6 
REMARK       I    between atoms: C_6  and  N_7 
REMARK    3  A    between atoms: N_7  and  C_8 
REMARK    4  A    between atoms: C_10  and  C_11 
REMARK    5  A    between atoms: C_11  and  C_12 
REMARK    6  A    between atoms: C_12  and  C_13 
REMARK    7  A    between atoms: C_13  and  C_14 
ROOT
HETATM    1  C   UNL     1      41.263 -12.118   5.920  1.00  0.00     0.725 A 
HETATM    2  N   UNL     1      41.200 -12.272   4.621  1.00  0.00    -0.046 NA
HETATM    3  C   UNL     1      40.080 -13.052   4.451  1.00  0.00     0.165 A 
HETATM    4  N   UNL     1      39.450 -13.390   5.584  1.00  0.00    -0.144 NA
HETATM    5  N   UNL     1      40.220 -12.784   6.504  1.00  0.00    -0.106 N 
HETATM    6  H   UNL     1      39.997 -12.832   7.495  1.00  0.00     0.208 HD
ENDROOT
BRANCH   3   7
HETATM    7  C   UNL     1      39.548 -13.430   3.114  1.00  0.00     0.083 C 
BRANCH   7   8
HETATM    8  C   UNL     1      40.420 -14.434   2.363  1.00  0.00     0.012 C 
BRANCH   8   9
HETATM    9  C   UNL     1      40.257 -15.834   2.958  1.00  0.00     0.041 C 
BRANCH   9  10
HETATM   10  C   UNL     1      41.559 -16.446   3.365  1.00  0.00    -0.030 A 
HETATM   11  C   UNL     1      42.094 -16.523   4.691  1.00  0.00    -0.002 A 
HETATM   12  C   UNL     1      43.337 -17.150   4.606  1.00  0.00     0.042 A 
HETATM   13  C   UNL     1      41.636 -16.112   5.960  1.00  0.00     0.014 A 
HETATM   14  C   UNL     1      44.148 -17.383   5.723  1.00  0.00     0.030 A 
HETATM   15  N   UNL     1      43.548 -17.451   3.281  1.00  0.00    -0.365 N 
HETATM   16  C   UNL     1      43.671 -16.963   6.969  1.00  0.00     0.002 A 
HETATM   17  C   UNL     1      42.432 -16.338   7.089  1.00  0.00     0.001 A 
HETATM   18  H   UNL     1      44.372 -17.910   2.922  1.00  0.00     0.165 HD
HETATM   19  C   UNL     1      42.486 -17.033   2.525  1.00  0.00     0.096 A 
ENDBRANCH   9  10
ENDBRANCH   8   9
ENDBRANCH   7   8
ENDBRANCH   3   7
BRANCH   1  20
HETATM   20  N   UNL     1      42.213 -11.395   6.595  1.00  0.00    -0.152 N 
HETATM   21  C   UNL     1      43.443 -11.935   6.899  1.00  0.00     0.270 C 
HETATM   22  O   UNL     1      43.796 -13.075   6.607  1.00  0.00    -0.267 OA
HETATM   23  H   UNL     1      41.918 -10.489   6.930  1.00  0.00     0.187 HD
BRANCH  21  24
HETATM   24  C   UNL     1      44.357 -11.053   7.668  1.00  0.00     0.035 A 
HETATM   25  C   UNL     1      43.956 -10.627   8.940  1.00  0.00     0.053 A 
HETATM   26  C   UNL     1      44.782  -9.797   9.702  1.00  0.00     0.069 A 
HETATM   27  C   UNL     1      46.018  -9.404   9.188  1.00  0.00     0.037 A 
HETATM   28  C   UNL     1      46.429  -9.841   7.924  1.00  0.00     0.004 A 
HETATM   29  C   UNL     1      45.601 -10.666   7.162  1.00  0.00     0.017 A 
BRANCH  26  30
HETATM   30  O   UNL     1      44.265  -9.441  10.917  1.00  0.00    -0.356 OA
HETATM   31  C   UNL     1      43.526 -10.430  11.621  1.00  0.00     0.210 C 
ENDBRANCH  26  30
ENDBRANCH  21  24
ENDBRANCH   1  20
TORSDOF 7
ENDMDL
