MODEL 1
REMARK VINA RESULT:      -9.7      0.000      0.000
REMARK  4 active torsions:
REMARK  status: ('A' for Active; 'I' for Inactive)
REMARK    1  A    between atoms: O_2  and  C_3 
REMARK    2  A    between atoms: C_3  and  C_4 
REMARK    3  A    between atoms: N_11  and  C_13 
REMARK    4  A    between atoms: C_13  and  C_14 
ROOT
HETATM    1  C   UNL     1      40.524 -11.501   2.787  1.00  0.00     0.290 C 
HETATM    2  N   UNL     1      40.598 -13.031   3.159  1.00  0.00    -0.047 N 
HETATM    3  H   UNL     1      39.697 -13.211   3.623  1.00  0.00     0.279 HD
HETATM    4  H   UNL     1      41.339 -13.088   3.869  1.00  0.00     0.279 HD
HETATM    5  C   UNL     1      40.769 -14.035   2.012  1.00  0.00     0.172 C 
HETATM    6  C   UNL     1      42.227 -14.156   1.525  1.00  0.00     0.073 C 
HETATM    7  C   UNL     1      43.183 -14.739   2.555  1.00  0.00     0.238 C 
HETATM    8  N   UNL     1      42.668 -16.084   3.012  1.00  0.00    -0.067 N 
HETATM    9  H   UNL     1      42.714 -16.727   2.206  1.00  0.00     0.280 HD
HETATM   10  C   UNL     1      41.260 -16.046   3.539  1.00  0.00     0.238 C 
HETATM   11  C   UNL     1      40.312 -15.420   2.522  1.00  0.00     0.073 C 
HETATM   12  C   UNL     1      39.898 -13.555   0.885  1.00  0.00     0.053 A 
HETATM   13  C   UNL     1      39.301 -12.312   0.763  1.00  0.00    -0.018 A 
HETATM   14  C   UNL     1      39.395 -11.238   1.787  1.00  0.00     0.085 C 
HETATM   15  N   UNL     1      39.585 -14.267  -0.252  1.00  0.00    -0.356 N 
HETATM   16  H   UNL     1      39.875 -15.207  -0.494  1.00  0.00     0.166 HD
HETATM   17  C   UNL     1      38.786 -13.513  -1.081  1.00  0.00     0.043 A 
HETATM   18  C   UNL     1      38.590 -12.278  -0.467  1.00  0.00    -0.001 A 
HETATM   19  C   UNL     1      38.227 -13.835  -2.323  1.00  0.00     0.030 A 
HETATM   20  C   UNL     1      37.443 -12.864  -2.951  1.00  0.00     0.002 A 
HETATM   21  C   UNL     1      37.229 -11.621  -2.361  1.00  0.00     0.001 A 
HETATM   22  C   UNL     1      37.795 -11.315  -1.118  1.00  0.00     0.014 A 
ENDROOT
BRANCH   1  23
HETATM   23  C   UNL     1      41.907 -10.966   2.427  1.00  0.00     0.289 C 
HETATM   24  O   UNL     1      42.109 -10.487   1.311  1.00  0.00    -0.263 OA
BRANCH  23  25
HETATM   25  O   UNL     1      42.818 -11.139   3.402  1.00  0.00    -0.325 OA
HETATM   26  C   UNL     1      42.550 -10.440   4.625  1.00  0.00     0.213 C 
ENDBRANCH  23  25
ENDBRANCH   1  23
BRANCH   8  27
HETATM   27  C   UNL     1      43.604 -16.750   4.037  1.00  0.00     0.273 C 
BRANCH  27  28
HETATM   28  C   UNL     1      43.696 -18.241   3.888  1.00  0.00    -0.033 A 
HETATM   29  C   UNL     1      44.017 -19.042   4.994  1.00  0.00     0.009 A 
HETATM   30  C   UNL     1      44.127 -20.426   4.858  1.00  0.00     0.001 A 
HETATM   31  C   UNL     1      43.917 -21.023   3.617  1.00  0.00     0.000 A 
HETATM   32  C   UNL     1      43.587 -20.239   2.514  1.00  0.00     0.001 A 
HETATM   33  C   UNL     1      43.474 -18.855   2.645  1.00  0.00     0.009 A 
ENDBRANCH  27  28
ENDBRANCH   8  27
TORSDOF 4
ENDMDL
MODEL 2
REMARK VINA RESULT:      -9.1      1.947      7.916
REMARK  4 active torsions:
REMARK  status: ('A' for Active; 'I' for Inactive)
REMARK    1  A    between atoms: O_2  and  C_3 
REMARK    2  A    between atoms: C_3  and  C_4 
REMARK    3  A    between atoms: N_11  and  C_13 
REMARK    4  A    between atoms: C_13  and  C_14 
ROOT
HETATM    1  C   UNL     1      42.196 -14.928   5.541  1.00  0.00     0.290 C 
HETATM    2  N   UNL     1      42.298 -14.383   4.066  1.00  0.00    -0.047 N 
HETATM    3  H   UNL     1      43.285 -14.105   3.978  1.00  0.00     0.279 HD
HETATM    4  H   UNL     1      41.727 -13.528   4.067  1.00  0.00     0.279 HD
HETATM    5  C   UNL     1      41.956 -15.349   2.925  1.00  0.00     0.172 C 
HETATM    6  C   UNL     1      40.440 -15.496   2.689  1.00  0.00     0.073 C 
HETATM    7  C   UNL     1      39.758 -14.228   2.199  1.00  0.00     0.238 C 
HETATM    8  N   UNL     1      40.441 -13.747   0.940  1.00  0.00    -0.067 N 
HETATM    9  H   UNL     1      40.269 -14.448   0.203  1.00  0.00     0.280 HD
HETATM   10  C   UNL     1      41.922 -13.540   1.096  1.00  0.00     0.238 C 
HETATM   11  C   UNL     1      42.597 -14.799   1.630  1.00  0.00     0.073 C 
HETATM   12  C   UNL     1      42.542 -16.682   3.298  1.00  0.00     0.053 A 
HETATM   13  C   UNL     1      43.020 -17.065   4.540  1.00  0.00    -0.018 A 
HETATM   14  C   UNL     1      43.073 -16.169   5.725  1.00  0.00     0.085 C 
HETATM   15  N   UNL     1      42.656 -17.774   2.467  1.00  0.00    -0.356 N 
HETATM   16  H   UNL     1      42.383 -17.844   1.494  1.00  0.00     0.166 HD
HETATM   17  C   UNL     1      43.216 -18.832   3.145  1.00  0.00     0.043 A 
HETATM   18  C   UNL     1      43.457 -18.414   4.452  1.00  0.00    -0.001 A 
HETATM   19  C   UNL     1      43.524 -20.122   2.697  1.00  0.00     0.030 A 
HETATM   20  C   UNL     1      44.097 -21.006   3.615  1.00  0.00     0.002 A 
HETATM   21  C   UNL     1      44.350 -20.616   4.927  1.00  0.00     0.001 A 
HETATM   22  C   UNL     1      44.036 -19.322   5.360  1.00  0.00     0.014 A 
ENDROOT
BRANCH   1  23
HETATM   23  C   UNL     1      40.737 -15.041   5.975  1.00  0.00     0.289 C 
HETATM   24  O   UNL     1      40.337 -16.067   6.524  1.00  0.00    -0.263 OA
BRANCH  23  25
HETATM   25  O   UNL     1      39.995 -13.969   5.639  1.00  0.00    -0.325 OA
HETATM   26  C   UNL     1      40.360 -12.742   6.283  1.00  0.00     0.213 C 
ENDBRANCH  23  25
ENDBRANCH   1  23
BRANCH   8  27
HETATM   27  C   UNL     1      39.783 -12.478   0.367  1.00  0.00     0.273 C 
BRANCH  27  28
HETATM   28  C   UNL     1      38.918 -12.738  -0.832  1.00  0.00    -0.033 A 
HETATM   29  C   UNL     1      37.968 -11.788  -1.236  1.00  0.00     0.009 A 
HETATM   30  C   UNL     1      37.146 -12.033  -2.336  1.00  0.00     0.001 A 
HETATM   31  C   UNL     1      37.264 -13.227  -3.043  1.00  0.00     0.000 A 
HETATM   32  C   UNL     1      38.210 -14.174  -2.657  1.00  0.00     0.001 A 
HETATM   33  C   UNL     1      39.037 -13.933  -1.559  1.00  0.00     0.009 A 
ENDBRANCH  27  28
ENDBRANCH   8  27
TORSDOF 4
ENDMDL
MODEL 3
REMARK VINA RESULT:      -8.6      2.974      7.841
REMARK  4 active torsions:
REMARK  status: ('A' for Active; 'I' for Inactive)
REMARK    1  A    between atoms: O_2  and  C_3 
REMARK    2  A    between atoms: C_3  and  C_4 
REMARK    3  A    between atoms: N_11  and  C_13 
REMARK    4  A    between atoms: C_13  and  C_14 
ROOT
HETATM    1  C   UNL     1      39.774 -14.371   1.952  1.00  0.00     0.290 C 
HETATM    2  N   UNL     1      39.595 -13.855   3.431  1.00  0.00    -0.047 N 
HETATM    3  H   UNL     1      38.899 -14.500   3.830  1.00  0.00     0.279 HD
HETATM    4  H   UNL     1      39.154 -12.933   3.330  1.00  0.00     0.279 HD
HETATM    5  C   UNL     1      40.834 -13.848   4.336  1.00  0.00     0.172 C 
HETATM    6  C   UNL     1      41.751 -12.632   4.098  1.00  0.00     0.073 C 
HETATM    7  C   UNL     1      41.124 -11.296   4.466  1.00  0.00     0.238 C 
HETATM    8  N   UNL     1      40.668 -11.336   5.906  1.00  0.00    -0.067 N 
HETATM    9  H   UNL     1      41.509 -11.412   6.499  1.00  0.00     0.280 HD
HETATM   10  C   UNL     1      39.736 -12.475   6.215  1.00  0.00     0.238 C 
HETATM   11  C   UNL     1      40.348 -13.809   5.803  1.00  0.00     0.073 C 
HETATM   12  C   UNL     1      41.588 -15.115   4.046  1.00  0.00     0.053 A 
HETATM   13  C   UNL     1      41.399 -15.972   2.975  1.00  0.00    -0.018 A 
HETATM   14  C   UNL     1      40.351 -15.789   1.936  1.00  0.00     0.085 C 
HETATM   15  N   UNL     1      42.640 -15.614   4.781  1.00  0.00    -0.356 N 
HETATM   16  H   UNL     1      43.051 -15.222   5.620  1.00  0.00     0.166 HD
HETATM   17  C   UNL     1      43.107 -16.778   4.216  1.00  0.00     0.043 A 
HETATM   18  C   UNL     1      42.343 -17.029   3.078  1.00  0.00    -0.001 A 
HETATM   19  C   UNL     1      44.145 -17.621   4.628  1.00  0.00     0.030 A 
HETATM   20  C   UNL     1      44.405 -18.754   3.852  1.00  0.00     0.002 A 
HETATM   21  C   UNL     1      43.657 -19.031   2.711  1.00  0.00     0.001 A 
HETATM   22  C   UNL     1      42.622 -18.177   2.312  1.00  0.00     0.014 A 
ENDROOT
BRANCH   1  23
HETATM   23  C   UNL     1      40.483 -13.325   1.097  1.00  0.00     0.289 C 
HETATM   24  O   UNL     1      41.604 -13.558   0.646  1.00  0.00    -0.263 OA
BRANCH  23  25
HETATM   25  O   UNL     1      39.791 -12.177   0.973  1.00  0.00    -0.325 OA
HETATM   26  C   UNL     1      38.854 -12.138  -0.112  1.00  0.00     0.213 C 
ENDBRANCH  23  25
ENDBRANCH   1  23
BRANCH   8  27
HETATM   27  C   UNL     1      40.048 -10.001   6.360  1.00  0.00     0.273 C 
BRANCH  27  28
HETATM   28  C   UNL     1      40.291  -9.686   7.807  1.00  0.00    -0.033 A 
HETATM   29  C   UNL     1      41.571  -9.308   8.242  1.00  0.00     0.009 A 
HETATM   30  C   UNL     1      41.809  -9.036   9.589  1.00  0.00     0.001 A 
HETATM   31  C   UNL     1      40.773  -9.138  10.515  1.00  0.00     0.000 A 
HETATM   32  C   UNL     1      39.496  -9.503  10.094  1.00  0.00     0.001 A 
HETATM   33  C   UNL     1      39.252  -9.774   8.747  1.00  0.00     0.009 A 
ENDBRANCH  27  28
ENDBRANCH   8  27
TORSDOF 4
ENDMDL
MODEL 4
REMARK VINA RESULT:      -8.6      2.590      7.527
REMARK  4 active torsions:
REMARK  status: ('A' for Active; 'I' for Inactive)
REMARK    1  A    between atoms: O_2  and  C_3 
REMARK    2  A    between atoms: C_3  and  C_4 
REMARK    3  A    between atoms: N_11  and  C_13 
REMARK    4  A    between atoms: C_13  and  C_14 
ROOT
HETATM    1  C   UNL     1      40.100 -14.575   2.343  1.00  0.00     0.290 C 
HETATM    2  N   UNL     1      40.356 -14.091   3.821  1.00  0.00    -0.047 N 
HETATM    3  H   UNL     1      39.688 -14.643   4.376  1.00  0.00     0.279 HD
HETATM    4  H   UNL     1      40.043 -13.112   3.828  1.00  0.00     0.279 HD
HETATM    5  C   UNL     1      41.762 -14.291   4.401  1.00  0.00     0.172 C 
HETATM    6  C   UNL     1      42.764 -13.210   3.949  1.00  0.00     0.073 C 
HETATM    7  C   UNL     1      42.445 -11.812   4.456  1.00  0.00     0.238 C 
HETATM    8  N   UNL     1      42.344 -11.836   5.964  1.00  0.00    -0.067 N 
HETATM    9  H   UNL     1      43.281 -12.052   6.337  1.00  0.00     0.280 HD
HETATM   10  C   UNL     1      41.356 -12.841   6.488  1.00  0.00     0.238 C 
HETATM   11  C   UNL     1      41.650 -14.234   5.942  1.00  0.00     0.073 C 
HETATM   12  C   UNL     1      42.231 -15.642   3.940  1.00  0.00     0.053 A 
HETATM   13  C   UNL     1      41.669 -16.425   2.946  1.00  0.00    -0.018 A 
HETATM   14  C   UNL     1      40.443 -16.060   2.190  1.00  0.00     0.085 C 
HETATM   15  N   UNL     1      43.343 -16.311   4.401  1.00  0.00    -0.356 N 
HETATM   16  H   UNL     1      43.994 -16.010   5.116  1.00  0.00     0.166 HD
HETATM   17  C   UNL     1      43.486 -17.509   3.741  1.00  0.00     0.043 A 
HETATM   18  C   UNL     1      42.446 -17.609   2.820  1.00  0.00    -0.001 A 
HETATM   19  C   UNL     1      44.457 -18.506   3.892  1.00  0.00     0.030 A 
HETATM   20  C   UNL     1      44.356 -19.636   3.077  1.00  0.00     0.002 A 
HETATM   21  C   UNL     1      43.327 -19.764   2.150  1.00  0.00     0.001 A 
HETATM   22  C   UNL     1      42.363 -18.758   2.010  1.00  0.00     0.014 A 
ENDROOT
BRANCH   1  23
HETATM   23  C   UNL     1      40.731 -13.612   1.341  1.00  0.00     0.289 C 
HETATM   24  O   UNL     1      41.557 -14.026   0.528  1.00  0.00    -0.263 OA
BRANCH  23  25
HETATM   25  O   UNL     1      40.337 -12.335   1.506  1.00  0.00    -0.325 OA
HETATM   26  C   UNL     1      41.130 -11.355   0.825  1.00  0.00     0.213 C 
ENDBRANCH  23  25
ENDBRANCH   1  23
BRANCH   8  27
HETATM   27  C   UNL     1      42.052 -10.444   6.552  1.00  0.00     0.273 C 
BRANCH  27  28
HETATM   28  C   UNL     1      43.182  -9.887   7.369  1.00  0.00    -0.033 A 
HETATM   29  C   UNL     1      43.077  -8.609   7.939  1.00  0.00     0.009 A 
HETATM   30  C   UNL     1      44.132  -8.076   8.681  1.00  0.00     0.001 A 
HETATM   31  C   UNL     1      45.299  -8.814   8.861  1.00  0.00     0.000 A 
HETATM   32  C   UNL     1      45.411 -10.088   8.309  1.00  0.00     0.001 A 
HETATM   33  C   UNL     1      44.358 -10.626   7.568  1.00  0.00     0.009 A 
ENDBRANCH  27  28
ENDBRANCH   8  27
TORSDOF 4
ENDMDL
MODEL 5
REMARK VINA RESULT:      -8.0      2.949      6.560
REMARK  4 active torsions:
REMARK  status: ('A' for Active; 'I' for Inactive)
REMARK    1  A    between atoms: O_2  and  C_3 
REMARK    2  A    between atoms: C_3  and  C_4 
REMARK    3  A    between atoms: N_11  and  C_13 
REMARK    4  A    between atoms: C_13  and  C_14 
ROOT
HETATM    1  C   UNL     1      42.644 -15.707   2.522  1.00  0.00     0.290 C 
HETATM    2  N   UNL     1      43.269 -14.385   3.110  1.00  0.00    -0.047 N 
HETATM    3  H   UNL     1      43.975 -14.119   2.411  1.00  0.00     0.279 HD
HETATM    4  H   UNL     1      43.760 -14.690   3.960  1.00  0.00     0.279 HD
HETATM    5  C   UNL     1      42.330 -13.194   3.338  1.00  0.00     0.172 C 
HETATM    6  C   UNL     1      41.515 -13.305   4.641  1.00  0.00     0.073 C 
HETATM    7  C   UNL     1      42.354 -13.248   5.909  1.00  0.00     0.238 C 
HETATM    8  N   UNL     1      43.176 -11.981   5.910  1.00  0.00    -0.067 N 
HETATM    9  H   UNL     1      42.524 -11.185   5.982  1.00  0.00     0.280 HD
HETATM   10  C   UNL     1      44.033 -11.814   4.685  1.00  0.00     0.238 C 
HETATM   11  C   UNL     1      43.196 -11.916   3.415  1.00  0.00     0.073 C 
HETATM   12  C   UNL     1      41.397 -13.149   2.160  1.00  0.00     0.053 A 
HETATM   13  C   UNL     1      41.198 -14.141   1.215  1.00  0.00    -0.018 A 
HETATM   14  C   UNL     1      41.939 -15.430   1.191  1.00  0.00     0.085 C 
HETATM   15  N   UNL     1      40.537 -12.118   1.851  1.00  0.00    -0.356 N 
HETATM   16  H   UNL     1      40.412 -11.245   2.349  1.00  0.00     0.166 HD
HETATM   17  C   UNL     1      39.815 -12.423   0.720  1.00  0.00     0.043 A 
HETATM   18  C   UNL     1      40.212 -13.689   0.296  1.00  0.00    -0.001 A 
HETATM   19  C   UNL     1      38.845 -11.672   0.046  1.00  0.00     0.030 A 
HETATM   20  C   UNL     1      38.268 -12.236  -1.095  1.00  0.00     0.002 A 
HETATM   21  C   UNL     1      38.646 -13.499  -1.542  1.00  0.00     0.001 A 
HETATM   22  C   UNL     1      39.617 -14.237  -0.857  1.00  0.00     0.014 A 
ENDROOT
BRANCH   1  23
HETATM   23  C   UNL     1      41.842 -16.447   3.588  1.00  0.00     0.289 C 
HETATM   24  O   UNL     1      40.613 -16.469   3.529  1.00  0.00    -0.263 OA
BRANCH  23  25
HETATM   25  O   UNL     1      42.608 -16.975   4.562  1.00  0.00    -0.325 OA
HETATM   26  C   UNL     1      43.637 -17.870   4.118  1.00  0.00     0.213 C 
ENDBRANCH  23  25
ENDBRANCH   1  23
BRANCH   8  27
HETATM   27  C   UNL     1      44.032 -11.841   7.182  1.00  0.00     0.273 C 
BRANCH  27  28
HETATM   28  C   UNL     1      44.095 -10.438   7.713  1.00  0.00    -0.033 A 
HETATM   29  C   UNL     1      42.943  -9.637   7.730  1.00  0.00     0.009 A 
HETATM   30  C   UNL     1      42.999  -8.325   8.201  1.00  0.00     0.001 A 
HETATM   31  C   UNL     1      44.205  -7.801   8.659  1.00  0.00     0.000 A 
HETATM   32  C   UNL     1      45.353  -8.589   8.657  1.00  0.00     0.001 A 
HETATM   33  C   UNL     1      45.302  -9.903   8.189  1.00  0.00     0.009 A 
ENDBRANCH  27  28
ENDBRANCH   8  27
TORSDOF 4
ENDMDL
MODEL 6
REMARK VINA RESULT:      -8.0     15.679     18.203
REMARK  4 active torsions:
REMARK  status: ('A' for Active; 'I' for Inactive)
REMARK    1  A    between atoms: O_2  and  C_3 
REMARK    2  A    between atoms: C_3  and  C_4 
REMARK    3  A    between atoms: N_11  and  C_13 
REMARK    4  A    between atoms: C_13  and  C_14 
ROOT
HETATM    1  C   UNL     1      44.606 -29.371   2.095  1.00  0.00     0.290 C 
HETATM    2  N   UNL     1      44.908 -28.823   0.649  1.00  0.00    -0.047 N 
HETATM    3  H   UNL     1      45.088 -27.822   0.802  1.00  0.00     0.279 HD
HETATM    4  H   UNL     1      44.014 -28.912   0.149  1.00  0.00     0.279 HD
HETATM    5  C   UNL     1      46.097 -29.427  -0.107  1.00  0.00     0.172 C 
HETATM    6  C   UNL     1      45.772 -30.782  -0.766  1.00  0.00     0.073 C 
HETATM    7  C   UNL     1      44.741 -30.703  -1.881  1.00  0.00     0.238 C 
HETATM    8  N   UNL     1      45.203 -29.710  -2.922  1.00  0.00    -0.067 N 
HETATM    9  H   UNL     1      46.052 -30.095  -3.365  1.00  0.00     0.280 HD
HETATM   10  C   UNL     1      45.506 -28.347  -2.366  1.00  0.00     0.238 C 
HETATM   11  C   UNL     1      46.506 -28.434  -1.219  1.00  0.00     0.073 C 
HETATM   12  C   UNL     1      47.201 -29.604   0.897  1.00  0.00     0.053 A 
HETATM   13  C   UNL     1      47.094 -29.539   2.276  1.00  0.00    -0.018 A 
HETATM   14  C   UNL     1      45.833 -29.226   2.999  1.00  0.00     0.085 C 
HETATM   15  N   UNL     1      48.512 -29.914   0.609  1.00  0.00    -0.356 N 
HETATM   16  H   UNL     1      48.930 -30.053  -0.304  1.00  0.00     0.166 HD
HETATM   17  C   UNL     1      49.242 -30.024   1.770  1.00  0.00     0.043 A 
HETATM   18  C   UNL     1      48.375 -29.792   2.835  1.00  0.00    -0.001 A 
HETATM   19  C   UNL     1      50.600 -30.312   1.951  1.00  0.00     0.030 A 
HETATM   20  C   UNL     1      51.081 -30.360   3.262  1.00  0.00     0.002 A 
HETATM   21  C   UNL     1      50.239 -30.131   4.346  1.00  0.00     0.001 A 
HETATM   22  C   UNL     1      48.883 -29.845   4.148  1.00  0.00     0.014 A 
ENDROOT
BRANCH   1  23
HETATM   23  C   UNL     1      43.957 -30.750   2.026  1.00  0.00     0.289 C 
HETATM   24  O   UNL     1      44.498 -31.713   2.569  1.00  0.00    -0.263 OA
BRANCH  23  25
HETATM   25  O   UNL     1      42.830 -30.774   1.288  1.00  0.00    -0.325 OA
HETATM   26  C   UNL     1      41.695 -30.127   1.878  1.00  0.00     0.213 C 
ENDBRANCH  23  25
ENDBRANCH   1  23
BRANCH   8  27
HETATM   27  C   UNL     1      44.219 -29.600  -4.101  1.00  0.00     0.273 C 
BRANCH  27  28
HETATM   28  C   UNL     1      44.583 -30.465  -5.272  1.00  0.00    -0.033 A 
HETATM   29  C   UNL     1      45.843 -31.080  -5.330  1.00  0.00     0.009 A 
HETATM   30  C   UNL     1      46.196 -31.867  -6.426  1.00  0.00     0.001 A 
HETATM   31  C   UNL     1      45.297 -32.048  -7.474  1.00  0.00     0.000 A 
HETATM   32  C   UNL     1      44.039 -31.450  -7.423  1.00  0.00     0.001 A 
HETATM   33  C   UNL     1      43.679 -30.664  -6.328  1.00  0.00     0.009 A 
ENDBRANCH  27  28
ENDBRANCH   8  27
TORSDOF 4
ENDMDL
MODEL 7
REMARK VINA RESULT:      -8.0      2.424      7.840
REMARK  4 active torsions:
REMARK  status: ('A' for Active; 'I' for Inactive)
REMARK    1  A    between atoms: O_2  and  C_3 
REMARK    2  A    between atoms: C_3  and  C_4 
REMARK    3  A    between atoms: N_11  and  C_13 
REMARK    4  A    between atoms: C_13  and  C_14 
ROOT
HETATM    1  C   UNL     1      39.970 -14.391   2.019  1.00  0.00     0.290 C 
HETATM    2  N   UNL     1      39.729 -13.982   3.522  1.00  0.00    -0.047 N 
HETATM    3  H   UNL     1      38.999 -14.635   3.837  1.00  0.00     0.279 HD
HETATM    4  H   UNL     1      39.314 -13.043   3.469  1.00  0.00     0.279 HD
HETATM    5  C   UNL     1      40.919 -14.074   4.485  1.00  0.00     0.172 C 
HETATM    6  C   UNL     1      41.874 -12.869   4.385  1.00  0.00     0.073 C 
HETATM    7  C   UNL     1      41.260 -11.547   4.821  1.00  0.00     0.238 C 
HETATM    8  N   UNL     1      40.731 -11.681   6.229  1.00  0.00    -0.067 N 
HETATM    9  H   UNL     1      41.538 -11.824   6.855  1.00  0.00     0.280 HD
HETATM   10  C   UNL     1      39.758 -12.815   6.405  1.00  0.00     0.238 C 
HETATM   11  C   UNL     1      40.360 -14.131   5.925  1.00  0.00     0.073 C 
HETATM   12  C   UNL     1      41.658 -15.336   4.138  1.00  0.00     0.053 A 
HETATM   13  C   UNL     1      41.504 -16.106   2.998  1.00  0.00    -0.018 A 
HETATM   14  C   UNL     1      40.515 -15.819   1.925  1.00  0.00     0.085 C 
HETATM   15  N   UNL     1      42.660 -15.916   4.885  1.00  0.00    -0.356 N 
HETATM   16  H   UNL     1      43.036 -15.598   5.770  1.00  0.00     0.166 HD
HETATM   17  C   UNL     1      43.128 -17.047   4.257  1.00  0.00     0.043 A 
HETATM   18  C   UNL     1      42.418 -17.192   3.068  1.00  0.00    -0.001 A 
HETATM   19  C   UNL     1      44.125 -17.945   4.655  1.00  0.00     0.030 A 
HETATM   20  C   UNL     1      44.398 -19.024   3.810  1.00  0.00     0.002 A 
HETATM   21  C   UNL     1      43.703 -19.196   2.616  1.00  0.00     0.001 A 
HETATM   22  C   UNL     1      42.710 -18.288   2.232  1.00  0.00     0.014 A 
ENDROOT
BRANCH   1  23
HETATM   23  C   UNL     1      40.746 -13.305   1.281  1.00  0.00     0.289 C 
HETATM   24  O   UNL     1      41.920 -13.495   0.963  1.00  0.00    -0.263 OA
BRANCH  23  25
HETATM   25  O   UNL     1      40.040 -12.172   1.102  1.00  0.00    -0.325 OA
HETATM   26  C   UNL     1      40.352 -11.436  -0.089  1.00  0.00     0.213 C 
ENDBRANCH  23  25
ENDBRANCH   1  23
BRANCH   8  27
HETATM   27  C   UNL     1      40.119 -10.368   6.751  1.00  0.00     0.273 C 
BRANCH  27  28
HETATM   28  C   UNL     1      39.707  -9.422   5.661  1.00  0.00    -0.033 A 
HETATM   29  C   UNL     1      38.484  -9.602   4.995  1.00  0.00     0.009 A 
HETATM   30  C   UNL     1      38.105  -8.740   3.966  1.00  0.00     0.001 A 
HETATM   31  C   UNL     1      38.941  -7.691   3.592  1.00  0.00     0.000 A 
HETATM   32  C   UNL     1      40.152  -7.497   4.251  1.00  0.00     0.001 A 
HETATM   33  C   UNL     1      40.536  -8.354   5.283  1.00  0.00     0.009 A 
ENDBRANCH  27  28
ENDBRANCH   8  27
TORSDOF 4
ENDMDL
MODEL 8
REMARK VINA RESULT:      -7.7     15.496     17.011
REMARK  4 active torsions:
REMARK  status: ('A' for Active; 'I' for Inactive)
REMARK    1  A    between atoms: O_2  and  C_3 
REMARK    2  A    between atoms: C_3  and  C_4 
REMARK    3  A    between atoms: N_11  and  C_13 
REMARK    4  A    between atoms: C_13  and  C_14 
ROOT
HETATM    1  C   UNL     1      46.119 -28.864   2.538  1.00  0.00     0.290 C 
HETATM    2  N   UNL     1      44.607 -29.062   2.935  1.00  0.00    -0.047 N 
HETATM    3  H   UNL     1      44.235 -28.103   2.957  1.00  0.00     0.279 HD
HETATM    4  H   UNL     1      44.639 -29.413   3.901  1.00  0.00     0.279 HD
HETATM    5  C   UNL     1      43.731 -29.908   2.003  1.00  0.00     0.172 C 
HETATM    6  C   UNL     1      43.911 -31.425   2.213  1.00  0.00     0.073 C 
HETATM    7  C   UNL     1      43.444 -31.926   3.571  1.00  0.00     0.238 C 
HETATM    8  N   UNL     1      42.000 -31.535   3.781  1.00  0.00    -0.067 N 
HETATM    9  H   UNL     1      41.432 -32.052   3.092  1.00  0.00     0.280 HD
HETATM   10  C   UNL     1      41.745 -30.061   3.631  1.00  0.00     0.238 C 
HETATM   11  C   UNL     1      42.254 -29.551   2.287  1.00  0.00     0.073 C 
HETATM   12  C   UNL     1      44.118 -29.542   0.598  1.00  0.00     0.053 A 
HETATM   13  C   UNL     1      45.237 -28.831   0.199  1.00  0.00    -0.018 A 
HETATM   14  C   UNL     1      46.239 -28.259   1.136  1.00  0.00     0.085 C 
HETATM   15  N   UNL     1      43.440 -29.902  -0.546  1.00  0.00    -0.356 N 
HETATM   16  H   UNL     1      42.587 -30.444  -0.616  1.00  0.00     0.166 HD
HETATM   17  C   UNL     1      44.089 -29.417  -1.658  1.00  0.00     0.043 A 
HETATM   18  C   UNL     1      45.223 -28.737  -1.219  1.00  0.00    -0.001 A 
HETATM   19  C   UNL     1      43.755 -29.531  -3.012  1.00  0.00     0.030 A 
HETATM   20  C   UNL     1      44.607 -28.930  -3.942  1.00  0.00     0.002 A 
HETATM   21  C   UNL     1      45.747 -28.243  -3.533  1.00  0.00     0.001 A 
HETATM   22  C   UNL     1      46.067 -28.138  -2.174  1.00  0.00     0.014 A 
ENDROOT
BRANCH   1  23
HETATM   23  C   UNL     1      46.921 -30.132   2.814  1.00  0.00     0.289 C 
HETATM   24  O   UNL     1      46.837 -30.686   3.910  1.00  0.00    -0.263 OA
BRANCH  23  25
HETATM   25  O   UNL     1      47.722 -30.492   1.793  1.00  0.00    -0.325 OA
HETATM   26  C   UNL     1      47.460 -31.785   1.232  1.00  0.00     0.213 C 
ENDBRANCH  23  25
ENDBRANCH   1  23
BRANCH   8  27
HETATM   27  C   UNL     1      41.448 -32.038   5.127  1.00  0.00     0.273 C 
BRANCH  27  28
HETATM   28  C   UNL     1      40.053 -32.582   5.040  1.00  0.00    -0.033 A 
HETATM   29  C   UNL     1      39.329 -32.861   6.210  1.00  0.00     0.009 A 
HETATM   30  C   UNL     1      38.040 -33.389   6.137  1.00  0.00     0.001 A 
HETATM   31  C   UNL     1      37.461 -33.643   4.896  1.00  0.00     0.000 A 
HETATM   32  C   UNL     1      38.165 -33.362   3.727  1.00  0.00     0.001 A 
HETATM   33  C   UNL     1      39.454 -32.832   3.795  1.00  0.00     0.009 A 
ENDBRANCH  27  28
ENDBRANCH   8  27
TORSDOF 4
ENDMDL
MODEL 9
REMARK VINA RESULT:      -7.3      3.530      8.224
REMARK  4 active torsions:
REMARK  status: ('A' for Active; 'I' for Inactive)
REMARK    1  A    between atoms: O_2  and  C_3 
REMARK    2  A    between atoms: C_3  and  C_4 
REMARK    3  A    between atoms: N_11  and  C_13 
REMARK    4  A    between atoms: C_13  and  C_14 
ROOT
HETATM    1  C   UNL     1      41.516 -12.934   2.518  1.00  0.00     0.290 C 
HETATM    2  N   UNL     1      40.570 -12.724   3.760  1.00  0.00    -0.047 N 
HETATM    3  H   UNL     1      39.723 -13.254   3.513  1.00  0.00     0.279 HD
HETATM    4  H   UNL     1      40.336 -11.724   3.740  1.00  0.00     0.279 HD
HETATM    5  C   UNL     1      41.071 -13.210   5.126  1.00  0.00     0.172 C 
HETATM    6  C   UNL     1      42.051 -12.228   5.797  1.00  0.00     0.073 C 
HETATM    7  C   UNL     1      41.431 -10.893   6.182  1.00  0.00     0.238 C 
HETATM    8  N   UNL     1      40.236 -11.134   7.075  1.00  0.00    -0.067 N 
HETATM    9  H   UNL     1      40.583 -11.536   7.959  1.00  0.00     0.280 HD
HETATM   10  C   UNL     1      39.210 -12.055   6.477  1.00  0.00     0.238 C 
HETATM   11  C   UNL     1      39.842 -13.376   6.050  1.00  0.00     0.073 C 
HETATM   12  C   UNL     1      41.755 -14.527   4.891  1.00  0.00     0.053 A 
HETATM   13  C   UNL     1      42.143 -15.060   3.674  1.00  0.00    -0.018 A 
HETATM   14  C   UNL     1      41.889 -14.411   2.361  1.00  0.00     0.085 C 
HETATM   15  N   UNL     1      42.161 -15.411   5.867  1.00  0.00    -0.356 N 
HETATM   16  H   UNL     1      42.051 -15.320   6.870  1.00  0.00     0.166 HD
HETATM   17  C   UNL     1      42.775 -16.502   5.296  1.00  0.00     0.043 A 
HETATM   18  C   UNL     1      42.776 -16.309   3.916  1.00  0.00    -0.001 A 
HETATM   19  C   UNL     1      43.327 -17.638   5.899  1.00  0.00     0.030 A 
HETATM   20  C   UNL     1      43.893 -18.604   5.063  1.00  0.00     0.002 A 
HETATM   21  C   UNL     1      43.907 -18.439   3.681  1.00  0.00     0.001 A 
HETATM   22  C   UNL     1      43.352 -17.297   3.093  1.00  0.00     0.014 A 
ENDROOT
BRANCH   1  23
HETATM   23  C   UNL     1      42.664 -11.929   2.537  1.00  0.00     0.289 C 
HETATM   24  O   UNL     1      42.481 -10.779   2.140  1.00  0.00    -0.263 OA
BRANCH  23  25
HETATM   25  O   UNL     1      43.830 -12.458   2.954  1.00  0.00    -0.325 OA
HETATM   26  C   UNL     1      44.608 -11.622   3.821  1.00  0.00     0.213 C 
ENDBRANCH  23  25
ENDBRANCH   1  23
BRANCH   8  27
HETATM   27  C   UNL     1      39.574  -9.821   7.531  1.00  0.00     0.273 C 
BRANCH  27  28
HETATM   28  C   UNL     1      39.982  -9.388   8.909  1.00  0.00    -0.033 A 
HETATM   29  C   UNL     1      41.117  -8.581   9.087  1.00  0.00     0.009 A 
HETATM   30  C   UNL     1      41.516  -8.194  10.367  1.00  0.00     0.001 A 
HETATM   31  C   UNL     1      40.786  -8.606  11.479  1.00  0.00     0.000 A 
HETATM   32  C   UNL     1      39.652  -9.399  11.314  1.00  0.00     0.001 A 
HETATM   33  C   UNL     1      39.248  -9.787  10.036  1.00  0.00     0.009 A 
ENDBRANCH  27  28
ENDBRANCH   8  27
TORSDOF 4
ENDMDL
MODEL 10
REMARK VINA RESULT:      -7.1     15.808     17.844
REMARK  4 active torsions:
REMARK  status: ('A' for Active; 'I' for Inactive)
REMARK    1  A    between atoms: O_2  and  C_3 
REMARK    2  A    between atoms: C_3  and  C_4 
REMARK    3  A    between atoms: N_11  and  C_13 
REMARK    4  A    between atoms: C_13  and  C_14 
ROOT
HETATM    1  C   UNL     1      43.461 -32.554   0.930  1.00  0.00     0.290 C 
HETATM    2  N   UNL     1      44.936 -32.738   1.454  1.00  0.00    -0.047 N 
HETATM    3  H   UNL     1      45.329 -33.453   0.827  1.00  0.00     0.279 HD
HETATM    4  H   UNL     1      44.828 -33.158   2.386  1.00  0.00     0.279 HD
HETATM    5  C   UNL     1      45.856 -31.511   1.437  1.00  0.00     0.172 C 
HETATM    6  C   UNL     1      45.626 -30.564   2.632  1.00  0.00     0.073 C 
HETATM    7  C   UNL     1      45.983 -31.166   3.983  1.00  0.00     0.238 C 
HETATM    8  N   UNL     1      47.417 -31.640   3.957  1.00  0.00    -0.067 N 
HETATM    9  H   UNL     1      48.020 -30.808   3.864  1.00  0.00     0.280 HD
HETATM   10  C   UNL     1      47.717 -32.601   2.840  1.00  0.00     0.238 C 
HETATM   11  C   UNL     1      47.317 -32.013   1.491  1.00  0.00     0.073 C 
HETATM   12  C   UNL     1      45.578 -30.782   0.153  1.00  0.00     0.053 A 
HETATM   13  C   UNL     1      44.508 -30.977  -0.703  1.00  0.00    -0.018 A 
HETATM   14  C   UNL     1      43.456 -32.008  -0.500  1.00  0.00     0.085 C 
HETATM   15  N   UNL     1      46.328 -29.750  -0.367  1.00  0.00    -0.356 N 
HETATM   16  H   UNL     1      47.171 -29.341   0.018  1.00  0.00     0.166 HD
HETATM   17  C   UNL     1      45.771 -29.302  -1.543  1.00  0.00     0.043 A 
HETATM   18  C   UNL     1      44.625 -30.057  -1.780  1.00  0.00    -0.001 A 
HETATM   19  C   UNL     1      46.198 -28.288  -2.408  1.00  0.00     0.030 A 
HETATM   20  C   UNL     1      45.429 -28.044  -3.549  1.00  0.00     0.002 A 
HETATM   21  C   UNL     1      44.280 -28.784  -3.812  1.00  0.00     0.001 A 
HETATM   22  C   UNL     1      43.866 -29.795  -2.937  1.00  0.00     0.014 A 
ENDROOT
BRANCH   1  23
HETATM   23  C   UNL     1      42.612 -31.811   1.957  1.00  0.00     0.289 C 
HETATM   24  O   UNL     1      42.617 -32.170   3.135  1.00  0.00    -0.263 OA
BRANCH  23  25
HETATM   25  O   UNL     1      41.863 -30.828   1.422  1.00  0.00    -0.325 OA
HETATM   26  C   UNL     1      42.142 -29.509   1.908  1.00  0.00     0.213 C 
ENDBRANCH  23  25
ENDBRANCH   1  23
BRANCH   8  27
HETATM   27  C   UNL     1      47.859 -32.235   5.306  1.00  0.00     0.273 C 
BRANCH  27  28
HETATM   28  C   UNL     1      49.321 -32.051   5.595  1.00  0.00    -0.033 A 
HETATM   29  C   UNL     1      50.050 -31.052   4.932  1.00  0.00     0.009 A 
HETATM   30  C   UNL     1      51.414 -30.890   5.179  1.00  0.00     0.001 A 
HETATM   31  C   UNL     1      52.061 -31.722   6.089  1.00  0.00     0.000 A 
HETATM   32  C   UNL     1      51.346 -32.710   6.761  1.00  0.00     0.001 A 
HETATM   33  C   UNL     1      49.981 -32.876   6.520  1.00  0.00     0.009 A 
ENDBRANCH  27  28
ENDBRANCH   8  27
TORSDOF 4
ENDMDL
