MODEL 1
REMARK VINA RESULT:      -8.3      0.000      0.000
REMARK  6 active torsions:
REMARK  status: ('A' for Active; 'I' for Inactive)
REMARK    1  A    between atoms: C_2  and  N_3 
REMARK       I    between atoms: N_3  and  C_4 
REMARK    2  A    between atoms: C_4  and  C_5 
REMARK    3  A    between atoms: C_5  and  O_6 
REMARK    4  A    between atoms: O_6  and  C_7 
REMARK    5  A    between atoms: C_10  and  N_11 
REMARK       I    between atoms: N_11  and  C_12 
REMARK    6  A    between atoms: C_12  and  C_13 
ROOT
HETATM    1  N   UNL     1      43.195 -13.347   4.990  1.00  0.00    -0.322 N 
HETATM    2  C   UNL     1      43.106 -14.693   5.295  1.00  0.00     0.277 C 
HETATM    3  O   UNL     1      43.166 -15.189   6.415  1.00  0.00    -0.266 OA
HETATM    4  H   UNL     1      43.090 -13.154   3.997  1.00  0.00     0.169 HD
ENDROOT
BRANCH   1   5
HETATM    5  C   UNL     1      43.519 -12.281   5.844  1.00  0.00     0.035 A 
HETATM    6  C   UNL     1      42.590 -11.339   6.294  1.00  0.00     0.032 A 
HETATM    7  C   UNL     1      42.967 -10.353   7.212  1.00  0.00     0.039 A 
HETATM    8  C   UNL     1      44.275 -10.315   7.684  1.00  0.00     0.069 A 
HETATM    9  C   UNL     1      45.226 -11.211   7.206  1.00  0.00     0.039 A 
HETATM   10  C   UNL     1      44.844 -12.198   6.293  1.00  0.00     0.032 A 
BRANCH   8  11
HETATM   11  O   UNL     1      44.654  -9.367   8.594  1.00  0.00    -0.342 OA
BRANCH  11  12
HETATM   12  C   UNL     1      45.254  -9.981   9.741  1.00  0.00     0.278 C 
BRANCH  12  13
HETATM   13  C   UNL     1      44.282 -10.137  10.912  1.00  0.00     0.241 C 
HETATM   14  N   UNL     1      43.927  -8.946  11.512  1.00  0.00    -0.360 N 
HETATM   15  H   UNL     1      44.138  -8.105  10.982  1.00  0.00     0.162 HD
HETATM   16  O   UNL     1      43.894 -11.235  11.301  1.00  0.00    -0.271 OA
BRANCH  14  17
HETATM   17  C   UNL     1      42.900  -8.902  12.531  1.00  0.00     0.118 C 
HETATM   18  C   UNL     1      43.105  -7.733  13.473  1.00  0.00     0.026 C 
ENDBRANCH  14  17
ENDBRANCH  12  13
ENDBRANCH  11  12
ENDBRANCH   8  11
ENDBRANCH   1   5
BRANCH   2  19
HETATM   19  C   UNL     1      42.962 -15.518   4.080  1.00  0.00     0.157 A 
HETATM   20  N   UNL     1      42.567 -14.979   2.905  1.00  0.00    -0.168 NA
HETATM   21  N   UNL     1      42.603 -16.018   2.050  1.00  0.00    -0.277 N 
HETATM   22  H   UNL     1      42.346 -15.857   1.083  1.00  0.00     0.189 HD
HETATM   23  C   UNL     1      43.018 -17.196   2.607  1.00  0.00     0.063 A 
HETATM   24  C   UNL     1      43.246 -16.908   3.946  1.00  0.00     0.029 A 
HETATM   25  C   UNL     1      43.220 -18.464   2.055  1.00  0.00     0.032 A 
HETATM   26  C   UNL     1      43.694 -17.939   4.795  1.00  0.00     0.023 A 
HETATM   27  C   UNL     1      43.897 -19.228   4.275  1.00  0.00    -0.061 A 
HETATM   28  C   UNL     1      43.672 -19.471   2.915  1.00  0.00     0.009 A 
HETATM   29  C   UNL     1      44.416 -20.316   5.172  1.00  0.00     0.048 C 
ENDBRANCH   2  19
TORSDOF 6
ENDMDL
MODEL 2
REMARK VINA RESULT:      -8.2      5.575      8.601
REMARK  6 active torsions:
REMARK  status: ('A' for Active; 'I' for Inactive)
REMARK    1  A    between atoms: C_2  and  N_3 
REMARK       I    between atoms: N_3  and  C_4 
REMARK    2  A    between atoms: C_4  and  C_5 
REMARK    3  A    between atoms: C_5  and  O_6 
REMARK    4  A    between atoms: O_6  and  C_7 
REMARK    5  A    between atoms: C_10  and  N_11 
REMARK       I    between atoms: N_11  and  C_12 
REMARK    6  A    between atoms: C_12  and  C_13 
ROOT
HETATM    1  N   UNL     1      41.360 -15.781   3.523  1.00  0.00    -0.322 N 
HETATM    2  C   UNL     1      42.547 -15.526   4.186  1.00  0.00     0.277 C 
HETATM    3  O   UNL     1      43.180 -14.476   4.163  1.00  0.00    -0.266 OA
HETATM    4  H   UNL     1      40.991 -16.712   3.706  1.00  0.00     0.169 HD
ENDROOT
BRANCH   1   5
HETATM    5  C   UNL     1      40.704 -14.981   2.574  1.00  0.00     0.035 A 
HETATM    6  C   UNL     1      40.027 -13.800   2.893  1.00  0.00     0.032 A 
HETATM    7  C   UNL     1      39.468 -13.009   1.885  1.00  0.00     0.039 A 
HETATM    8  C   UNL     1      39.594 -13.396   0.555  1.00  0.00     0.069 A 
HETATM    9  C   UNL     1      40.218 -14.595   0.224  1.00  0.00     0.039 A 
HETATM   10  C   UNL     1      40.779 -15.381   1.234  1.00  0.00     0.032 A 
BRANCH   8  11
HETATM   11  O   UNL     1      39.067 -12.623  -0.442  1.00  0.00    -0.342 OA
BRANCH  11  12
HETATM   12  C   UNL     1      39.217 -13.268  -1.713  1.00  0.00     0.278 C 
BRANCH  12  13
HETATM   13  C   UNL     1      40.056 -12.456  -2.700  1.00  0.00     0.241 C 
HETATM   14  N   UNL     1      39.704 -11.124  -2.776  1.00  0.00    -0.360 N 
HETATM   15  H   UNL     1      39.118 -10.778  -2.021  1.00  0.00     0.162 HD
HETATM   16  O   UNL     1      40.935 -12.965  -3.390  1.00  0.00    -0.271 OA
BRANCH  14  17
HETATM   17  C   UNL     1      40.495 -10.186  -3.543  1.00  0.00     0.118 C 
HETATM   18  C   UNL     1      41.257  -9.237  -2.640  1.00  0.00     0.026 C 
ENDBRANCH  14  17
ENDBRANCH  12  13
ENDBRANCH  11  12
ENDBRANCH   8  11
ENDBRANCH   1   5
BRANCH   2  19
HETATM   19  C   UNL     1      43.018 -16.708   4.932  1.00  0.00     0.157 A 
HETATM   20  N   UNL     1      43.135 -16.692   6.279  1.00  0.00    -0.168 NA
HETATM   21  N   UNL     1      43.537 -17.941   6.579  1.00  0.00    -0.277 N 
HETATM   22  H   UNL     1      43.693 -18.177   7.552  1.00  0.00     0.189 HD
HETATM   23  C   UNL     1      43.669 -18.769   5.499  1.00  0.00     0.063 A 
HETATM   24  C   UNL     1      43.352 -17.986   4.396  1.00  0.00     0.029 A 
HETATM   25  C   UNL     1      44.021 -20.118   5.400  1.00  0.00     0.032 A 
HETATM   26  C   UNL     1      43.394 -18.570   3.115  1.00  0.00     0.023 A 
HETATM   27  C   UNL     1      43.755 -19.920   2.979  1.00  0.00    -0.061 A 
HETATM   28  C   UNL     1      44.050 -20.678   4.118  1.00  0.00     0.009 A 
HETATM   29  C   UNL     1      43.758 -20.553   1.616  1.00  0.00     0.048 C 
ENDBRANCH   2  19
TORSDOF 6
ENDMDL
MODEL 3
REMARK VINA RESULT:      -8.2      6.857     10.137
REMARK  6 active torsions:
REMARK  status: ('A' for Active; 'I' for Inactive)
REMARK    1  A    between atoms: C_2  and  N_3 
REMARK       I    between atoms: N_3  and  C_4 
REMARK    2  A    between atoms: C_4  and  C_5 
REMARK    3  A    between atoms: C_5  and  O_6 
REMARK    4  A    between atoms: O_6  and  C_7 
REMARK    5  A    between atoms: C_10  and  N_11 
REMARK       I    between atoms: N_11  and  C_12 
REMARK    6  A    between atoms: C_12  and  C_13 
ROOT
HETATM    1  N   UNL     1      41.241 -14.680   0.822  1.00  0.00    -0.322 N 
HETATM    2  C   UNL     1      40.736 -15.347   1.924  1.00  0.00     0.277 C 
HETATM    3  O   UNL     1      39.560 -15.626   2.127  1.00  0.00    -0.266 OA
HETATM    4  H   UNL     1      42.253 -14.581   0.844  1.00  0.00     0.169 HD
ENDROOT
BRANCH   1   5
HETATM    5  C   UNL     1      40.532 -14.048  -0.212  1.00  0.00     0.035 A 
HETATM    6  C   UNL     1      39.597 -14.700  -1.020  1.00  0.00     0.032 A 
HETATM    7  C   UNL     1      38.867 -13.988  -1.976  1.00  0.00     0.039 A 
HETATM    8  C   UNL     1      39.069 -12.619  -2.119  1.00  0.00     0.069 A 
HETATM    9  C   UNL     1      40.033 -11.964  -1.360  1.00  0.00     0.039 A 
HETATM   10  C   UNL     1      40.758 -12.678  -0.402  1.00  0.00     0.032 A 
BRANCH   8  11
HETATM   11  O   UNL     1      38.349 -11.906  -3.038  1.00  0.00    -0.342 OA
BRANCH  11  12
HETATM   12  C   UNL     1      37.601 -10.867  -2.397  1.00  0.00     0.278 C 
BRANCH  12  13
HETATM   13  C   UNL     1      36.128 -10.852  -2.805  1.00  0.00     0.241 C 
HETATM   14  N   UNL     1      35.798 -11.794  -3.759  1.00  0.00    -0.360 N 
HETATM   15  H   UNL     1      36.479 -12.534  -3.901  1.00  0.00     0.162 HD
HETATM   16  O   UNL     1      35.327 -10.040  -2.349  1.00  0.00    -0.271 OA
BRANCH  14  17
HETATM   17  C   UNL     1      34.420 -12.018  -4.141  1.00  0.00     0.118 C 
HETATM   18  C   UNL     1      34.120 -11.423  -5.502  1.00  0.00     0.026 C 
ENDBRANCH  14  17
ENDBRANCH  12  13
ENDBRANCH  11  12
ENDBRANCH   8  11
ENDBRANCH   1   5
BRANCH   2  19
HETATM   19  C   UNL     1      41.798 -15.675   2.894  1.00  0.00     0.157 A 
HETATM   20  N   UNL     1      42.127 -14.827   3.894  1.00  0.00    -0.168 NA
HETATM   21  N   UNL     1      43.079 -15.491   4.575  1.00  0.00    -0.277 N 
HETATM   22  H   UNL     1      43.488 -15.048   5.390  1.00  0.00     0.189 HD
HETATM   23  C   UNL     1      43.370 -16.732   4.079  1.00  0.00     0.063 A 
HETATM   24  C   UNL     1      42.558 -16.879   2.962  1.00  0.00     0.029 A 
HETATM   25  C   UNL     1      44.253 -17.723   4.516  1.00  0.00     0.032 A 
HETATM   26  C   UNL     1      42.627 -18.079   2.226  1.00  0.00     0.023 A 
HETATM   27  C   UNL     1      43.512 -19.091   2.631  1.00  0.00    -0.061 A 
HETATM   28  C   UNL     1      44.301 -18.909   3.773  1.00  0.00     0.009 A 
HETATM   29  C   UNL     1      43.555 -20.386   1.871  1.00  0.00     0.048 C 
ENDBRANCH   2  19
TORSDOF 6
ENDMDL
MODEL 4
REMARK VINA RESULT:      -7.9      6.542      9.533
REMARK  6 active torsions:
REMARK  status: ('A' for Active; 'I' for Inactive)
REMARK    1  A    between atoms: C_2  and  N_3 
REMARK       I    between atoms: N_3  and  C_4 
REMARK    2  A    between atoms: C_4  and  C_5 
REMARK    3  A    between atoms: C_5  and  O_6 
REMARK    4  A    between atoms: O_6  and  C_7 
REMARK    5  A    between atoms: C_10  and  N_11 
REMARK       I    between atoms: N_11  and  C_12 
REMARK    6  A    between atoms: C_12  and  C_13 
ROOT
HETATM    1  N   UNL     1      40.842 -14.477   1.230  1.00  0.00    -0.322 N 
HETATM    2  C   UNL     1      40.519 -15.412   2.198  1.00  0.00     0.277 C 
HETATM    3  O   UNL     1      39.426 -15.944   2.357  1.00  0.00    -0.266 OA
HETATM    4  H   UNL     1      41.817 -14.190   1.261  1.00  0.00     0.169 HD
ENDROOT
BRANCH   1   5
HETATM    5  C   UNL     1      39.983 -13.823   0.333  1.00  0.00     0.035 A 
HETATM    6  C   UNL     1      39.446 -12.553   0.561  1.00  0.00     0.032 A 
HETATM    7  C   UNL     1      38.665 -11.928  -0.415  1.00  0.00     0.039 A 
HETATM    8  C   UNL     1      38.428 -12.571  -1.625  1.00  0.00     0.069 A 
HETATM    9  C   UNL     1      38.910 -13.857  -1.849  1.00  0.00     0.039 A 
HETATM   10  C   UNL     1      39.694 -14.477  -0.872  1.00  0.00     0.032 A 
BRANCH   8  11
HETATM   11  O   UNL     1      37.680 -11.964  -2.596  1.00  0.00    -0.342 OA
BRANCH  11  12
HETATM   12  C   UNL     1      37.744 -10.539  -2.464  1.00  0.00     0.278 C 
BRANCH  12  13
HETATM   13  C   UNL     1      38.593  -9.876  -3.550  1.00  0.00     0.241 C 
HETATM   14  N   UNL     1      39.942  -9.829  -3.261  1.00  0.00    -0.360 N 
HETATM   15  H   UNL     1      40.253 -10.436  -2.508  1.00  0.00     0.162 HD
HETATM   16  O   UNL     1      38.099  -9.393  -4.566  1.00  0.00    -0.271 OA
BRANCH  14  17
HETATM   17  C   UNL     1      40.900  -9.376  -4.246  1.00  0.00     0.118 C 
HETATM   18  C   UNL     1      41.486  -8.030  -3.871  1.00  0.00     0.026 C 
ENDBRANCH  14  17
ENDBRANCH  12  13
ENDBRANCH  11  12
ENDBRANCH   8  11
ENDBRANCH   1   5
BRANCH   2  19
HETATM   19  C   UNL     1      41.664 -15.694   3.084  1.00  0.00     0.157 A 
HETATM   20  N   UNL     1      42.027 -14.834   4.063  1.00  0.00    -0.168 NA
HETATM   21  N   UNL     1      43.057 -15.456   4.667  1.00  0.00    -0.277 N 
HETATM   22  H   UNL     1      43.505 -14.997   5.452  1.00  0.00     0.189 HD
HETATM   23  C   UNL     1      43.366 -16.681   4.142  1.00  0.00     0.063 A 
HETATM   24  C   UNL     1      42.481 -16.862   3.088  1.00  0.00     0.029 A 
HETATM   25  C   UNL     1      44.324 -17.631   4.506  1.00  0.00     0.032 A 
HETATM   26  C   UNL     1      42.550 -18.054   2.341  1.00  0.00     0.023 A 
HETATM   27  C   UNL     1      43.509 -19.026   2.672  1.00  0.00    -0.061 A 
HETATM   28  C   UNL     1      44.371 -18.811   3.754  1.00  0.00     0.009 A 
HETATM   29  C   UNL     1      43.554 -20.316   1.903  1.00  0.00     0.048 C 
ENDBRANCH   2  19
TORSDOF 6
ENDMDL
MODEL 5
REMARK VINA RESULT:      -7.8      5.260      8.193
REMARK  6 active torsions:
REMARK  status: ('A' for Active; 'I' for Inactive)
REMARK    1  A    between atoms: C_2  and  N_3 
REMARK       I    between atoms: N_3  and  C_4 
REMARK    2  A    between atoms: C_4  and  C_5 
REMARK    3  A    between atoms: C_5  and  O_6 
REMARK    4  A    between atoms: O_6  and  C_7 
REMARK    5  A    between atoms: C_10  and  N_11 
REMARK       I    between atoms: N_11  and  C_12 
REMARK    6  A    between atoms: C_12  and  C_13 
ROOT
HETATM    1  N   UNL     1      41.296 -15.460   4.699  1.00  0.00    -0.322 N 
HETATM    2  C   UNL     1      42.670 -15.619   4.664  1.00  0.00     0.277 C 
HETATM    3  O   UNL     1      43.475 -14.860   4.137  1.00  0.00    -0.266 OA
HETATM    4  H   UNL     1      40.821 -16.196   5.217  1.00  0.00     0.169 HD
ENDROOT
BRANCH   1   5
HETATM    5  C   UNL     1      40.514 -14.507   4.028  1.00  0.00     0.035 A 
HETATM    6  C   UNL     1      40.110 -13.297   4.598  1.00  0.00     0.032 A 
HETATM    7  C   UNL     1      39.402 -12.358   3.842  1.00  0.00     0.039 A 
HETATM    8  C   UNL     1      39.106 -12.628   2.509  1.00  0.00     0.069 A 
HETATM    9  C   UNL     1      39.454 -13.849   1.941  1.00  0.00     0.039 A 
HETATM   10  C   UNL     1      40.164 -14.784   2.700  1.00  0.00     0.032 A 
BRANCH   8  11
HETATM   11  O   UNL     1      38.429 -11.711   1.753  1.00  0.00    -0.342 OA
BRANCH  11  12
HETATM   12  C   UNL     1      39.174 -11.383   0.574  1.00  0.00     0.278 C 
BRANCH  12  13
HETATM   13  C   UNL     1      38.375 -11.591  -0.714  1.00  0.00     0.241 C 
HETATM   14  N   UNL     1      38.346 -12.899  -1.154  1.00  0.00    -0.360 N 
HETATM   15  H   UNL     1      38.632 -13.599  -0.476  1.00  0.00     0.162 HD
HETATM   16  O   UNL     1      37.847 -10.660  -1.317  1.00  0.00    -0.271 OA
BRANCH  14  17
HETATM   17  C   UNL     1      37.509 -13.292  -2.267  1.00  0.00     0.118 C 
HETATM   18  C   UNL     1      38.252 -14.204  -3.223  1.00  0.00     0.026 C 
ENDBRANCH  14  17
ENDBRANCH  12  13
ENDBRANCH  11  12
ENDBRANCH   8  11
ENDBRANCH   1   5
BRANCH   2  19
HETATM   19  C   UNL     1      43.089 -16.870   5.325  1.00  0.00     0.157 A 
HETATM   20  N   UNL     1      43.173 -16.964   6.671  1.00  0.00    -0.168 NA
HETATM   21  N   UNL     1      43.533 -18.244   6.879  1.00  0.00    -0.277 N 
HETATM   22  H   UNL     1      43.657 -18.561   7.834  1.00  0.00     0.189 HD
HETATM   23  C   UNL     1      43.668 -18.988   5.740  1.00  0.00     0.063 A 
HETATM   24  C   UNL     1      43.401 -18.111   4.696  1.00  0.00     0.029 A 
HETATM   25  C   UNL     1      43.985 -20.335   5.542  1.00  0.00     0.032 A 
HETATM   26  C   UNL     1      43.457 -18.593   3.373  1.00  0.00     0.023 A 
HETATM   27  C   UNL     1      43.784 -19.939   3.139  1.00  0.00    -0.061 A 
HETATM   28  C   UNL     1      44.029 -20.793   4.220  1.00  0.00     0.009 A 
HETATM   29  C   UNL     1      43.802 -20.463   1.731  1.00  0.00     0.048 C 
ENDBRANCH   2  19
TORSDOF 6
ENDMDL
MODEL 6
REMARK VINA RESULT:      -7.7      2.025      2.724
REMARK  6 active torsions:
REMARK  status: ('A' for Active; 'I' for Inactive)
REMARK    1  A    between atoms: C_2  and  N_3 
REMARK       I    between atoms: N_3  and  C_4 
REMARK    2  A    between atoms: C_4  and  C_5 
REMARK    3  A    between atoms: C_5  and  O_6 
REMARK    4  A    between atoms: O_6  and  C_7 
REMARK    5  A    between atoms: C_10  and  N_11 
REMARK       I    between atoms: N_11  and  C_12 
REMARK    6  A    between atoms: C_12  and  C_13 
ROOT
HETATM    1  N   UNL     1      41.855 -12.115   5.343  1.00  0.00    -0.322 N 
HETATM    2  C   UNL     1      40.574 -12.620   5.472  1.00  0.00     0.277 C 
HETATM    3  O   UNL     1      39.840 -12.498   6.447  1.00  0.00    -0.266 OA
HETATM    4  H   UNL     1      42.272 -12.308   4.436  1.00  0.00     0.169 HD
ENDROOT
BRANCH   1   5
HETATM    5  C   UNL     1      42.649 -11.499   6.323  1.00  0.00     0.035 A 
HETATM    6  C   UNL     1      43.792 -12.086   6.873  1.00  0.00     0.032 A 
HETATM    7  C   UNL     1      44.583 -11.380   7.785  1.00  0.00     0.039 A 
HETATM    8  C   UNL     1      44.233 -10.082   8.141  1.00  0.00     0.069 A 
HETATM    9  C   UNL     1      43.070  -9.502   7.644  1.00  0.00     0.039 A 
HETATM   10  C   UNL     1      42.284 -10.209   6.730  1.00  0.00     0.032 A 
BRANCH   8  11
HETATM   11  O   UNL     1      45.007  -9.373   9.018  1.00  0.00    -0.342 OA
BRANCH  11  12
HETATM   12  C   UNL     1      45.189 -10.106  10.235  1.00  0.00     0.278 C 
BRANCH  12  13
HETATM   13  C   UNL     1      44.063  -9.878  11.244  1.00  0.00     0.241 C 
HETATM   14  N   UNL     1      43.776  -8.548  11.476  1.00  0.00    -0.360 N 
HETATM   15  H   UNL     1      44.150  -7.891  10.798  1.00  0.00     0.162 HD
HETATM   16  O   UNL     1      43.501 -10.804  11.823  1.00  0.00    -0.271 OA
BRANCH  14  17
HETATM   17  C   UNL     1      42.639  -8.160  12.283  1.00  0.00     0.118 C 
HETATM   18  C   UNL     1      43.073  -7.634  13.636  1.00  0.00     0.026 C 
ENDBRANCH  14  17
ENDBRANCH  12  13
ENDBRANCH  11  12
ENDBRANCH   8  11
ENDBRANCH   1   5
BRANCH   2  19
HETATM   19  C   UNL     1      40.168 -13.386   4.278  1.00  0.00     0.157 A 
HETATM   20  N   UNL     1      39.148 -12.978   3.490  1.00  0.00    -0.168 NA
HETATM   21  N   UNL     1      39.122 -13.894   2.504  1.00  0.00    -0.277 N 
HETATM   22  H   UNL     1      38.426 -13.796   1.773  1.00  0.00     0.189 HD
HETATM   23  C   UNL     1      40.083 -14.862   2.603  1.00  0.00     0.063 A 
HETATM   24  C   UNL     1      40.779 -14.569   3.768  1.00  0.00     0.029 A 
HETATM   25  C   UNL     1      40.400 -15.943   1.776  1.00  0.00     0.032 A 
HETATM   26  C   UNL     1      41.852 -15.401   4.145  1.00  0.00     0.023 A 
HETATM   27  C   UNL     1      42.190 -16.503   3.342  1.00  0.00    -0.061 A 
HETATM   28  C   UNL     1      41.474 -16.752   2.166  1.00  0.00     0.009 A 
HETATM   29  C   UNL     1      43.361 -17.364   3.721  1.00  0.00     0.048 C 
ENDBRANCH   2  19
TORSDOF 6
ENDMDL
MODEL 7
REMARK VINA RESULT:      -7.5      2.059      2.777
REMARK  6 active torsions:
REMARK  status: ('A' for Active; 'I' for Inactive)
REMARK    1  A    between atoms: C_2  and  N_3 
REMARK       I    between atoms: N_3  and  C_4 
REMARK    2  A    between atoms: C_4  and  C_5 
REMARK    3  A    between atoms: C_5  and  O_6 
REMARK    4  A    between atoms: O_6  and  C_7 
REMARK    5  A    between atoms: C_10  and  N_11 
REMARK       I    between atoms: N_11  and  C_12 
REMARK    6  A    between atoms: C_12  and  C_13 
ROOT
HETATM    1  N   UNL     1      43.617 -13.242   6.047  1.00  0.00    -0.322 N 
HETATM    2  C   UNL     1      42.849 -14.363   6.302  1.00  0.00     0.277 C 
HETATM    3  O   UNL     1      41.889 -14.428   7.063  1.00  0.00    -0.266 OA
HETATM    4  H   UNL     1      44.347 -13.405   5.357  1.00  0.00     0.169 HD
ENDROOT
BRANCH   1   5
HETATM    5  C   UNL     1      43.581 -11.997   6.696  1.00  0.00     0.035 A 
HETATM    6  C   UNL     1      42.538 -11.078   6.549  1.00  0.00     0.032 A 
HETATM    7  C   UNL     1      42.528  -9.893   7.291  1.00  0.00     0.039 A 
HETATM    8  C   UNL     1      43.559  -9.632   8.188  1.00  0.00     0.069 A 
HETATM    9  C   UNL     1      44.632 -10.510   8.307  1.00  0.00     0.039 A 
HETATM   10  C   UNL     1      44.637 -11.695   7.566  1.00  0.00     0.032 A 
BRANCH   8  11
HETATM   11  O   UNL     1      43.553  -8.485   8.932  1.00  0.00    -0.342 OA
BRANCH  11  12
HETATM   12  C   UNL     1      43.323  -8.783  10.314  1.00  0.00     0.278 C 
BRANCH  12  13
HETATM   13  C   UNL     1      41.845  -8.709  10.703  1.00  0.00     0.241 C 
HETATM   14  N   UNL     1      41.280  -9.932  11.004  1.00  0.00    -0.360 N 
HETATM   15  H   UNL     1      41.934 -10.690  11.174  1.00  0.00     0.162 HD
HETATM   16  O   UNL     1      41.217  -7.653  10.702  1.00  0.00    -0.271 OA
BRANCH  14  17
HETATM   17  C   UNL     1      39.938 -10.021  11.538  1.00  0.00     0.118 C 
HETATM   18  C   UNL     1      39.952 -10.383  13.010  1.00  0.00     0.026 C 
ENDBRANCH  14  17
ENDBRANCH  12  13
ENDBRANCH  11  12
ENDBRANCH   8  11
ENDBRANCH   1   5
BRANCH   2  19
HETATM   19  C   UNL     1      43.340 -15.539   5.559  1.00  0.00     0.157 A 
HETATM   20  N   UNL     1      44.354 -16.299   6.030  1.00  0.00    -0.168 NA
HETATM   21  N   UNL     1      44.471 -17.278   5.115  1.00  0.00    -0.277 N 
HETATM   22  H   UNL     1      45.180 -17.989   5.256  1.00  0.00     0.189 HD
HETATM   23  C   UNL     1      43.574 -17.203   4.085  1.00  0.00     0.063 A 
HETATM   24  C   UNL     1      42.825 -16.060   4.336  1.00  0.00     0.029 A 
HETATM   25  C   UNL     1      43.354 -18.032   2.982  1.00  0.00     0.032 A 
HETATM   26  C   UNL     1      41.798 -15.711   3.436  1.00  0.00     0.023 A 
HETATM   27  C   UNL     1      41.558 -16.517   2.311  1.00  0.00    -0.061 A 
HETATM   28  C   UNL     1      42.325 -17.669   2.105  1.00  0.00     0.009 A 
HETATM   29  C   UNL     1      40.435 -16.167   1.375  1.00  0.00     0.048 C 
ENDBRANCH   2  19
TORSDOF 6
ENDMDL
MODEL 8
REMARK VINA RESULT:      -7.4      5.692      8.247
REMARK  6 active torsions:
REMARK  status: ('A' for Active; 'I' for Inactive)
REMARK    1  A    between atoms: C_2  and  N_3 
REMARK       I    between atoms: N_3  and  C_4 
REMARK    2  A    between atoms: C_4  and  C_5 
REMARK    3  A    between atoms: C_5  and  O_6 
REMARK    4  A    between atoms: O_6  and  C_7 
REMARK    5  A    between atoms: C_10  and  N_11 
REMARK       I    between atoms: N_11  and  C_12 
REMARK    6  A    between atoms: C_12  and  C_13 
ROOT
HETATM    1  N   UNL     1      41.397 -15.059   2.979  1.00  0.00    -0.322 N 
HETATM    2  C   UNL     1      42.736 -14.907   3.290  1.00  0.00     0.277 C 
HETATM    3  O   UNL     1      43.489 -14.043   2.854  1.00  0.00    -0.266 OA
HETATM    4  H   UNL     1      40.955 -15.827   3.479  1.00  0.00     0.169 HD
ENDROOT
BRANCH   1   5
HETATM    5  C   UNL     1      40.648 -14.381   2.004  1.00  0.00     0.035 A 
HETATM    6  C   UNL     1      40.047 -13.137   2.217  1.00  0.00     0.032 A 
HETATM    7  C   UNL     1      39.387 -12.481   1.174  1.00  0.00     0.039 A 
HETATM    8  C   UNL     1      39.334 -13.068  -0.086  1.00  0.00     0.069 A 
HETATM    9  C   UNL     1      39.879 -14.330  -0.302  1.00  0.00     0.039 A 
HETATM   10  C   UNL     1      40.542 -14.981   0.742  1.00  0.00     0.032 A 
BRANCH   8  11
HETATM   11  O   UNL     1      38.706 -12.430  -1.120  1.00  0.00    -0.342 OA
BRANCH  11  12
HETATM   12  C   UNL     1      37.859 -11.386  -0.628  1.00  0.00     0.278 C 
BRANCH  12  13
HETATM   13  C   UNL     1      38.184 -10.019  -1.231  1.00  0.00     0.241 C 
HETATM   14  N   UNL     1      37.940  -8.956  -0.384  1.00  0.00    -0.360 N 
HETATM   15  H   UNL     1      37.814  -9.194   0.596  1.00  0.00     0.162 HD
HETATM   16  O   UNL     1      38.585  -9.888  -2.385  1.00  0.00    -0.271 OA
BRANCH  14  17
HETATM   17  C   UNL     1      38.337  -7.612  -0.741  1.00  0.00     0.118 C 
HETATM   18  C   UNL     1      37.145  -6.677  -0.788  1.00  0.00     0.026 C 
ENDBRANCH  14  17
ENDBRANCH  12  13
ENDBRANCH  11  12
ENDBRANCH   8  11
ENDBRANCH   1   5
BRANCH   2  19
HETATM   19  C   UNL     1      43.202 -15.957   4.215  1.00  0.00     0.157 A 
HETATM   20  N   UNL     1      43.410 -15.701   5.527  1.00  0.00    -0.168 NA
HETATM   21  N   UNL     1      43.774 -16.894   6.031  1.00  0.00    -0.277 N 
HETATM   22  H   UNL     1      43.984 -16.957   7.021  1.00  0.00     0.189 HD
HETATM   23  C   UNL     1      43.795 -17.913   5.118  1.00  0.00     0.063 A 
HETATM   24  C   UNL     1      43.441 -17.328   3.909  1.00  0.00     0.029 A 
HETATM   25  C   UNL     1      44.079 -19.274   5.253  1.00  0.00     0.032 A 
HETATM   26  C   UNL     1      43.370 -18.139   2.759  1.00  0.00     0.023 A 
HETATM   27  C   UNL     1      43.660 -19.510   2.857  1.00  0.00    -0.061 A 
HETATM   28  C   UNL     1      43.996 -20.062   4.098  1.00  0.00     0.009 A 
HETATM   29  C   UNL     1      43.543 -20.382   1.639  1.00  0.00     0.048 C 
ENDBRANCH   2  19
TORSDOF 6
ENDMDL
MODEL 9
REMARK VINA RESULT:      -7.4      2.191      9.843
REMARK  6 active torsions:
REMARK  status: ('A' for Active; 'I' for Inactive)
REMARK    1  A    between atoms: C_2  and  N_3 
REMARK       I    between atoms: N_3  and  C_4 
REMARK    2  A    between atoms: C_4  and  C_5 
REMARK    3  A    between atoms: C_5  and  O_6 
REMARK    4  A    between atoms: O_6  and  C_7 
REMARK    5  A    between atoms: C_10  and  N_11 
REMARK       I    between atoms: N_11  and  C_12 
REMARK    6  A    between atoms: C_12  and  C_13 
ROOT
HETATM    1  N   UNL     1      43.157 -11.169   7.767  1.00  0.00    -0.322 N 
HETATM    2  C   UNL     1      44.245 -10.942   8.590  1.00  0.00     0.277 C 
HETATM    3  O   UNL     1      45.426 -11.051   8.278  1.00  0.00    -0.266 OA
HETATM    4  H   UNL     1      42.265 -10.990   8.223  1.00  0.00     0.169 HD
ENDROOT
BRANCH   1   5
HETATM    5  C   UNL     1      43.144 -11.710   6.471  1.00  0.00     0.035 A 
HETATM    6  C   UNL     1      43.453 -10.976   5.323  1.00  0.00     0.032 A 
HETATM    7  C   UNL     1      43.502 -11.602   4.074  1.00  0.00     0.039 A 
HETATM    8  C   UNL     1      43.248 -12.966   3.975  1.00  0.00     0.069 A 
HETATM    9  C   UNL     1      42.886 -13.701   5.100  1.00  0.00     0.039 A 
HETATM   10  C   UNL     1      42.842 -13.073   6.348  1.00  0.00     0.032 A 
BRANCH   8  11
HETATM   11  O   UNL     1      43.309 -13.595   2.762  1.00  0.00    -0.342 OA
BRANCH  11  12
HETATM   12  C   UNL     1      42.014 -14.068   2.374  1.00  0.00     0.278 C 
BRANCH  12  13
HETATM   13  C   UNL     1      41.878 -15.588   2.477  1.00  0.00     0.241 C 
HETATM   14  N   UNL     1      43.012 -16.281   2.102  1.00  0.00    -0.360 N 
HETATM   15  H   UNL     1      43.864 -15.732   2.040  1.00  0.00     0.162 HD
HETATM   16  O   UNL     1      40.833 -16.134   2.822  1.00  0.00    -0.271 OA
BRANCH  14  17
HETATM   17  C   UNL     1      43.105 -17.714   2.286  1.00  0.00     0.118 C 
HETATM   18  C   UNL     1      43.745 -18.060   3.615  1.00  0.00     0.026 C 
ENDBRANCH  14  17
ENDBRANCH  12  13
ENDBRANCH  11  12
ENDBRANCH   8  11
ENDBRANCH   1   5
BRANCH   2  19
HETATM   19  C   UNL     1      43.827 -10.573   9.955  1.00  0.00     0.157 A 
HETATM   20  N   UNL     1      43.850 -11.469  10.967  1.00  0.00    -0.168 NA
HETATM   21  N   UNL     1      43.453 -10.753  12.036  1.00  0.00    -0.277 N 
HETATM   22  H   UNL     1      43.393 -11.220  12.934  1.00  0.00     0.189 HD
HETATM   23  C   UNL     1      43.192  -9.437  11.772  1.00  0.00     0.063 A 
HETATM   24  C   UNL     1      43.410  -9.287  10.408  1.00  0.00     0.029 A 
HETATM   25  C   UNL     1      42.800  -8.383  12.602  1.00  0.00     0.032 A 
HETATM   26  C   UNL     1      43.223  -8.017   9.827  1.00  0.00     0.023 A 
HETATM   27  C   UNL     1      42.819  -6.938  10.631  1.00  0.00    -0.061 A 
HETATM   28  C   UNL     1      42.627  -7.130  12.004  1.00  0.00     0.009 A 
HETATM   29  C   UNL     1      42.662  -5.576  10.019  1.00  0.00     0.048 C 
ENDBRANCH   2  19
TORSDOF 6
ENDMDL
MODEL 10
REMARK VINA RESULT:      -7.3      6.572      9.175
REMARK  6 active torsions:
REMARK  status: ('A' for Active; 'I' for Inactive)
REMARK    1  A    between atoms: C_2  and  N_3 
REMARK       I    between atoms: N_3  and  C_4 
REMARK    2  A    between atoms: C_4  and  C_5 
REMARK    3  A    between atoms: C_5  and  O_6 
REMARK    4  A    between atoms: O_6  and  C_7 
REMARK    5  A    between atoms: C_10  and  N_11 
REMARK       I    between atoms: N_11  and  C_12 
REMARK    6  A    between atoms: C_12  and  C_13 
ROOT
HETATM    1  N   UNL     1      41.167 -14.264   0.820  1.00  0.00    -0.322 N 
HETATM    2  C   UNL     1      40.824 -15.373   1.572  1.00  0.00     0.277 C 
HETATM    3  O   UNL     1      39.808 -16.048   1.447  1.00  0.00    -0.266 OA
HETATM    4  H   UNL     1      42.071 -13.873   1.074  1.00  0.00     0.169 HD
ENDROOT
BRANCH   1   5
HETATM    5  C   UNL     1      40.387 -13.578  -0.125  1.00  0.00     0.035 A 
HETATM    6  C   UNL     1      40.426 -13.841  -1.497  1.00  0.00     0.032 A 
HETATM    7  C   UNL     1      39.560 -13.177  -2.371  1.00  0.00     0.039 A 
HETATM    8  C   UNL     1      38.648 -12.254  -1.869  1.00  0.00     0.069 A 
HETATM    9  C   UNL     1      38.632 -11.942  -0.513  1.00  0.00     0.039 A 
HETATM   10  C   UNL     1      39.496 -12.610   0.358  1.00  0.00     0.032 A 
BRANCH   8  11
HETATM   11  O   UNL     1      37.783 -11.610  -2.710  1.00  0.00    -0.342 OA
BRANCH  11  12
HETATM   12  C   UNL     1      38.430 -10.503  -3.347  1.00  0.00     0.278 C 
BRANCH  12  13
HETATM   13  C   UNL     1      38.150  -9.168  -2.655  1.00  0.00     0.241 C 
HETATM   14  N   UNL     1      36.868  -9.050  -2.157  1.00  0.00    -0.360 N 
HETATM   15  H   UNL     1      36.343  -9.916  -2.080  1.00  0.00     0.162 HD
HETATM   16  O   UNL     1      38.987  -8.271  -2.594  1.00  0.00    -0.271 OA
BRANCH  14  17
HETATM   17  C   UNL     1      36.487  -7.917  -1.341  1.00  0.00     0.118 C 
HETATM   18  C   UNL     1      36.456  -8.281   0.130  1.00  0.00     0.026 C 
ENDBRANCH  14  17
ENDBRANCH  12  13
ENDBRANCH  11  12
ENDBRANCH   8  11
ENDBRANCH   1   5
BRANCH   2  19
HETATM   19  C   UNL     1      41.831 -15.658   2.611  1.00  0.00     0.157 A 
HETATM   20  N   UNL     1      42.114 -14.763   3.584  1.00  0.00    -0.168 NA
HETATM   21  N   UNL     1      43.024 -15.398   4.346  1.00  0.00    -0.277 N 
HETATM   22  H   UNL     1      43.394 -14.916   5.158  1.00  0.00     0.189 HD
HETATM   23  C   UNL     1      43.331 -16.663   3.927  1.00  0.00     0.063 A 
HETATM   24  C   UNL     1      42.577 -16.861   2.778  1.00  0.00     0.029 A 
HETATM   25  C   UNL     1      44.182 -17.636   4.458  1.00  0.00     0.032 A 
HETATM   26  C   UNL     1      42.675 -18.096   2.106  1.00  0.00     0.023 A 
HETATM   27  C   UNL     1      43.530 -19.092   2.607  1.00  0.00    -0.061 A 
HETATM   28  C   UNL     1      44.260 -18.857   3.778  1.00  0.00     0.009 A 
HETATM   29  C   UNL     1      43.603 -20.423   1.915  1.00  0.00     0.048 C 
ENDBRANCH   2  19
TORSDOF 6
ENDMDL
