MODEL 1
REMARK VINA RESULT:      -7.2      0.000      0.000
REMARK  9 active torsions:
REMARK  status: ('A' for Active; 'I' for Inactive)
REMARK    1  A    between atoms: C_2  and  N_3 
REMARK       I    between atoms: N_3  and  C_4 
REMARK    2  A    between atoms: C_4  and  C_5 
REMARK    3  A    between atoms: C_5  and  S_6 
REMARK    4  A    between atoms: S_6  and  C_7 
REMARK    5  A    between atoms: N_8  and  C_9 
REMARK    6  A    between atoms: C_9  and  C_10 
REMARK    7  A    between atoms: C_10  and  C_11 
REMARK    8  A    between atoms: C_17  and  C_18 
REMARK    9  A    between atoms: C_21  and  O_22 
ROOT
HETATM    1  C   UNL     1      42.086 -10.923   4.517  1.00  0.00     0.192 A 
HETATM    2  N   UNL     1      41.700 -12.212   4.249  1.00  0.00    -0.307 N 
HETATM    3  C   UNL     1      42.826 -12.833   3.732  1.00  0.00     0.164 A 
HETATM    4  N   UNL     1      43.817 -11.956   3.745  1.00  0.00    -0.128 NA
HETATM    5  N   UNL     1      43.355 -10.770   4.237  1.00  0.00    -0.122 NA
ENDROOT
BRANCH   1   6
HETATM    6  S   UNL     1      41.042  -9.699   5.150  1.00  0.00    -0.081 SA
BRANCH   6   7
HETATM    7  C   UNL     1      41.159 -10.013   6.934  1.00  0.00     0.185 C 
BRANCH   7   8
HETATM    8  C   UNL     1      42.569  -9.775   7.453  1.00  0.00     0.227 C 
HETATM    9  N   UNL     1      43.283 -10.929   7.700  1.00  0.00    -0.361 N 
HETATM   10  H   UNL     1      42.987 -11.764   7.195  1.00  0.00     0.162 HD
HETATM   11  O   UNL     1      43.010  -8.647   7.656  1.00  0.00    -0.273 OA
BRANCH   9  12
HETATM   12  C   UNL     1      44.657 -10.898   8.155  1.00  0.00     0.118 C 
HETATM   13  C   UNL     1      45.629 -11.243   7.041  1.00  0.00     0.026 C 
ENDBRANCH   9  12
ENDBRANCH   7   8
ENDBRANCH   6   7
ENDBRANCH   1   6
BRANCH   2  14
HETATM   14  C   UNL     1      40.437 -12.827   4.610  1.00  0.00     0.137 C 
BRANCH  14  15
HETATM   15  C   UNL     1      39.356 -12.666   3.541  1.00  0.00     0.059 C 
BRANCH  15  16
HETATM   16  C   UNL     1      39.603 -13.588   2.371  1.00  0.00    -0.057 A 
HETATM   17  C   UNL     1      39.810 -13.061   1.088  1.00  0.00     0.007 A 
HETATM   18  C   UNL     1      40.011 -13.910  -0.001  1.00  0.00     0.001 A 
HETATM   19  C   UNL     1      40.008 -15.292   0.182  1.00  0.00     0.000 A 
HETATM   20  C   UNL     1      39.804 -15.825   1.453  1.00  0.00     0.001 A 
HETATM   21  C   UNL     1      39.600 -14.978   2.544  1.00  0.00     0.007 A 
ENDBRANCH  15  16
ENDBRANCH  14  15
ENDBRANCH   2  14
BRANCH   3  22
HETATM   22  C   UNL     1      42.980 -14.225   3.297  1.00  0.00     0.012 A 
HETATM   23  C   UNL     1      43.264 -14.590   1.979  1.00  0.00     0.018 A 
HETATM   24  C   UNL     1      43.435 -15.935   1.632  1.00  0.00     0.037 A 
HETATM   25  C   UNL     1      43.357 -16.939   2.599  1.00  0.00     0.068 A 
HETATM   26  C   UNL     1      43.087 -16.588   3.918  1.00  0.00     0.037 A 
HETATM   27  C   UNL     1      42.903 -15.242   4.262  1.00  0.00     0.018 A 
BRANCH  25  28
HETATM   28  O   UNL     1      43.564 -18.206   2.131  1.00  0.00    -0.356 OA
HETATM   29  C   UNL     1      43.925 -19.189   3.095  1.00  0.00     0.210 C 
ENDBRANCH  25  28
ENDBRANCH   3  22
TORSDOF 9
ENDMDL
MODEL 2
REMARK VINA RESULT:      -7.1      2.177      3.053
REMARK  9 active torsions:
REMARK  status: ('A' for Active; 'I' for Inactive)
REMARK    1  A    between atoms: C_2  and  N_3 
REMARK       I    between atoms: N_3  and  C_4 
REMARK    2  A    between atoms: C_4  and  C_5 
REMARK    3  A    between atoms: C_5  and  S_6 
REMARK    4  A    between atoms: S_6  and  C_7 
REMARK    5  A    between atoms: N_8  and  C_9 
REMARK    6  A    between atoms: C_9  and  C_10 
REMARK    7  A    between atoms: C_10  and  C_11 
REMARK    8  A    between atoms: C_17  and  C_18 
REMARK    9  A    between atoms: C_21  and  O_22 
ROOT
HETATM    1  C   UNL     1      42.784 -11.486   6.464  1.00  0.00     0.192 A 
HETATM    2  N   UNL     1      42.457 -12.729   5.986  1.00  0.00    -0.307 N 
HETATM    3  C   UNL     1      43.339 -13.603   6.601  1.00  0.00     0.164 A 
HETATM    4  N   UNL     1      44.102 -12.901   7.425  1.00  0.00    -0.128 NA
HETATM    5  N   UNL     1      43.752 -11.584   7.340  1.00  0.00    -0.122 NA
ENDROOT
BRANCH   1   6
HETATM    6  S   UNL     1      42.008 -10.017   5.988  1.00  0.00    -0.081 SA
BRANCH   6   7
HETATM    7  C   UNL     1      41.098  -9.583   7.497  1.00  0.00     0.185 C 
BRANCH   7   8
HETATM    8  C   UNL     1      42.014  -8.980   8.549  1.00  0.00     0.227 C 
HETATM    9  N   UNL     1      42.259  -9.805   9.627  1.00  0.00    -0.361 N 
HETATM   10  H   UNL     1      42.142 -10.806   9.468  1.00  0.00     0.162 HD
HETATM   11  O   UNL     1      42.467  -7.842   8.449  1.00  0.00    -0.273 OA
BRANCH   9  12
HETATM   12  C   UNL     1      43.145  -9.418  10.704  1.00  0.00     0.118 C 
HETATM   13  C   UNL     1      44.587  -9.790  10.412  1.00  0.00     0.026 C 
ENDBRANCH   9  12
ENDBRANCH   7   8
ENDBRANCH   6   7
ENDBRANCH   1   6
BRANCH   2  14
HETATM   14  C   UNL     1      41.313 -13.061   5.160  1.00  0.00     0.137 C 
BRANCH  14  15
HETATM   15  C   UNL     1      41.611 -13.013   3.661  1.00  0.00     0.059 C 
BRANCH  15  16
HETATM   16  C   UNL     1      42.041 -14.366   3.146  1.00  0.00    -0.057 A 
HETATM   17  C   UNL     1      43.125 -14.473   2.263  1.00  0.00     0.007 A 
HETATM   18  C   UNL     1      43.508 -15.718   1.763  1.00  0.00     0.001 A 
HETATM   19  C   UNL     1      42.813 -16.866   2.139  1.00  0.00     0.000 A 
HETATM   20  C   UNL     1      41.734 -16.769   3.016  1.00  0.00     0.001 A 
HETATM   21  C   UNL     1      41.347 -15.525   3.517  1.00  0.00     0.007 A 
ENDBRANCH  15  16
ENDBRANCH  14  15
ENDBRANCH   2  14
BRANCH   3  22
HETATM   22  C   UNL     1      43.419 -15.061   6.466  1.00  0.00     0.012 A 
HETATM   23  C   UNL     1      42.480 -15.935   7.020  1.00  0.00     0.018 A 
HETATM   24  C   UNL     1      42.591 -17.317   6.827  1.00  0.00     0.037 A 
HETATM   25  C   UNL     1      43.623 -17.850   6.052  1.00  0.00     0.068 A 
HETATM   26  C   UNL     1      44.558 -16.990   5.485  1.00  0.00     0.037 A 
HETATM   27  C   UNL     1      44.453 -15.608   5.690  1.00  0.00     0.018 A 
BRANCH  25  28
HETATM   28  O   UNL     1      43.604 -19.211   5.926  1.00  0.00    -0.356 OA
HETATM   29  C   UNL     1      44.175 -19.748   4.738  1.00  0.00     0.210 C 
ENDBRANCH  25  28
ENDBRANCH   3  22
TORSDOF 9
ENDMDL
MODEL 3
REMARK VINA RESULT:      -7.1      2.474      4.995
REMARK  9 active torsions:
REMARK  status: ('A' for Active; 'I' for Inactive)
REMARK    1  A    between atoms: C_2  and  N_3 
REMARK       I    between atoms: N_3  and  C_4 
REMARK    2  A    between atoms: C_4  and  C_5 
REMARK    3  A    between atoms: C_5  and  S_6 
REMARK    4  A    between atoms: S_6  and  C_7 
REMARK    5  A    between atoms: N_8  and  C_9 
REMARK    6  A    between atoms: C_9  and  C_10 
REMARK    7  A    between atoms: C_10  and  C_11 
REMARK    8  A    between atoms: C_17  and  C_18 
REMARK    9  A    between atoms: C_21  and  O_22 
ROOT
HETATM    1  C   UNL     1      41.975 -13.297   4.034  1.00  0.00     0.192 A 
HETATM    2  N   UNL     1      41.972 -13.869   2.787  1.00  0.00    -0.307 N 
HETATM    3  C   UNL     1      41.003 -13.184   2.071  1.00  0.00     0.164 A 
HETATM    4  N   UNL     1      40.509 -12.238   2.854  1.00  0.00    -0.128 NA
HETATM    5  N   UNL     1      41.118 -12.308   4.074  1.00  0.00    -0.122 NA
ENDROOT
BRANCH   1   6
HETATM    6  S   UNL     1      42.984 -13.803   5.343  1.00  0.00    -0.081 SA
BRANCH   6   7
HETATM    7  C   UNL     1      43.037 -12.301   6.360  1.00  0.00     0.185 C 
BRANCH   7   8
HETATM    8  C   UNL     1      44.363 -11.572   6.212  1.00  0.00     0.227 C 
HETATM    9  N   UNL     1      45.016 -11.338   7.404  1.00  0.00    -0.361 N 
HETATM   10  H   UNL     1      44.780 -11.956   8.181  1.00  0.00     0.162 HD
HETATM   11  O   UNL     1      44.790 -11.204   5.121  1.00  0.00    -0.273 OA
BRANCH   9  12
HETATM   12  C   UNL     1      46.313 -10.697   7.456  1.00  0.00     0.118 C 
HETATM   13  C   UNL     1      46.226  -9.291   8.019  1.00  0.00     0.026 C 
ENDBRANCH   9  12
ENDBRANCH   7   8
ENDBRANCH   6   7
ENDBRANCH   1   6
BRANCH   2  14
HETATM   14  C   UNL     1      42.915 -14.850   2.287  1.00  0.00     0.137 C 
BRANCH  14  15
HETATM   15  C   UNL     1      42.282 -16.216   2.015  1.00  0.00     0.059 C 
BRANCH  15  16
HETATM   16  C   UNL     1      42.991 -17.308   2.780  1.00  0.00    -0.057 A 
HETATM   17  C   UNL     1      43.571 -17.034   4.028  1.00  0.00     0.007 A 
HETATM   18  C   UNL     1      44.252 -18.032   4.725  1.00  0.00     0.001 A 
HETATM   19  C   UNL     1      44.359 -19.312   4.185  1.00  0.00     0.000 A 
HETATM   20  C   UNL     1      43.786 -19.595   2.946  1.00  0.00     0.001 A 
HETATM   21  C   UNL     1      43.106 -18.597   2.245  1.00  0.00     0.007 A 
ENDBRANCH  15  16
ENDBRANCH  14  15
ENDBRANCH   2  14
BRANCH   3  22
HETATM   22  C   UNL     1      40.600 -13.373   0.674  1.00  0.00     0.012 A 
HETATM   23  C   UNL     1      40.933 -12.480  -0.348  1.00  0.00     0.018 A 
HETATM   24  C   UNL     1      40.549 -12.733  -1.670  1.00  0.00     0.037 A 
HETATM   25  C   UNL     1      39.854 -13.896  -2.003  1.00  0.00     0.068 A 
HETATM   26  C   UNL     1      39.526 -14.800  -0.997  1.00  0.00     0.037 A 
HETATM   27  C   UNL     1      39.900 -14.540   0.328  1.00  0.00     0.018 A 
BRANCH  25  28
HETATM   28  O   UNL     1      39.558 -14.031  -3.330  1.00  0.00    -0.356 OA
HETATM   29  C   UNL     1      38.290 -14.593  -3.646  1.00  0.00     0.210 C 
ENDBRANCH  25  28
ENDBRANCH   3  22
TORSDOF 9
ENDMDL
MODEL 4
REMARK VINA RESULT:      -7.1      2.522      4.878
REMARK  9 active torsions:
REMARK  status: ('A' for Active; 'I' for Inactive)
REMARK    1  A    between atoms: C_2  and  N_3 
REMARK       I    between atoms: N_3  and  C_4 
REMARK    2  A    between atoms: C_4  and  C_5 
REMARK    3  A    between atoms: C_5  and  S_6 
REMARK    4  A    between atoms: S_6  and  C_7 
REMARK    5  A    between atoms: N_8  and  C_9 
REMARK    6  A    between atoms: C_9  and  C_10 
REMARK    7  A    between atoms: C_10  and  C_11 
REMARK    8  A    between atoms: C_17  and  C_18 
REMARK    9  A    between atoms: C_21  and  O_22 
ROOT
HETATM    1  C   UNL     1      42.994 -11.658   3.043  1.00  0.00     0.192 A 
HETATM    2  N   UNL     1      42.619 -12.789   2.363  1.00  0.00    -0.307 N 
HETATM    3  C   UNL     1      41.664 -12.370   1.450  1.00  0.00     0.164 A 
HETATM    4  N   UNL     1      41.533 -11.058   1.571  1.00  0.00    -0.128 NA
HETATM    5  N   UNL     1      42.364 -10.617   2.561  1.00  0.00    -0.122 NA
ENDROOT
BRANCH   1   6
HETATM    6  S   UNL     1      44.146 -11.626   4.331  1.00  0.00    -0.081 SA
BRANCH   6   7
HETATM    7  C   UNL     1      43.064 -11.492   5.781  1.00  0.00     0.185 C 
BRANCH   7   8
HETATM    8  C   UNL     1      43.405 -12.535   6.833  1.00  0.00     0.227 C 
HETATM    9  N   UNL     1      42.735 -13.731   6.682  1.00  0.00    -0.361 N 
HETATM   10  H   UNL     1      42.393 -13.946   5.745  1.00  0.00     0.162 HD
HETATM   11  O   UNL     1      44.191 -12.309   7.750  1.00  0.00    -0.273 OA
BRANCH   9  12
HETATM   12  C   UNL     1      42.966 -14.856   7.563  1.00  0.00     0.118 C 
HETATM   13  C   UNL     1      42.076 -16.036   7.218  1.00  0.00     0.026 C 
ENDBRANCH   9  12
ENDBRANCH   7   8
ENDBRANCH   6   7
ENDBRANCH   1   6
BRANCH   2  14
HETATM   14  C   UNL     1      43.235 -14.098   2.462  1.00  0.00     0.137 C 
BRANCH  14  15
HETATM   15  C   UNL     1      42.614 -14.981   3.546  1.00  0.00     0.059 C 
BRANCH  15  16
HETATM   16  C   UNL     1      43.061 -16.416   3.404  1.00  0.00    -0.057 A 
HETATM   17  C   UNL     1      42.635 -17.183   2.309  1.00  0.00     0.007 A 
HETATM   18  C   UNL     1      43.022 -18.518   2.188  1.00  0.00     0.001 A 
HETATM   19  C   UNL     1      43.838 -19.099   3.158  1.00  0.00     0.000 A 
HETATM   20  C   UNL     1      44.266 -18.345   4.249  1.00  0.00     0.001 A 
HETATM   21  C   UNL     1      43.879 -17.009   4.374  1.00  0.00     0.007 A 
ENDBRANCH  15  16
ENDBRANCH  14  15
ENDBRANCH   2  14
BRANCH   3  22
HETATM   22  C   UNL     1      40.945 -13.168   0.453  1.00  0.00     0.012 A 
HETATM   23  C   UNL     1      40.357 -14.404   0.738  1.00  0.00     0.018 A 
HETATM   24  C   UNL     1      39.652 -15.103  -0.248  1.00  0.00     0.037 A 
HETATM   25  C   UNL     1      39.493 -14.569  -1.527  1.00  0.00     0.068 A 
HETATM   26  C   UNL     1      40.062 -13.334  -1.822  1.00  0.00     0.037 A 
HETATM   27  C   UNL     1      40.779 -12.641  -0.837  1.00  0.00     0.018 A 
BRANCH  25  28
HETATM   28  O   UNL     1      38.766 -15.344  -2.388  1.00  0.00    -0.356 OA
HETATM   29  C   UNL     1      38.218 -14.688  -3.526  1.00  0.00     0.210 C 
ENDBRANCH  25  28
ENDBRANCH   3  22
TORSDOF 9
ENDMDL
MODEL 5
REMARK VINA RESULT:      -7.0      2.923      5.615
REMARK  9 active torsions:
REMARK  status: ('A' for Active; 'I' for Inactive)
REMARK    1  A    between atoms: C_2  and  N_3 
REMARK       I    between atoms: N_3  and  C_4 
REMARK    2  A    between atoms: C_4  and  C_5 
REMARK    3  A    between atoms: C_5  and  S_6 
REMARK    4  A    between atoms: S_6  and  C_7 
REMARK    5  A    between atoms: N_8  and  C_9 
REMARK    6  A    between atoms: C_9  and  C_10 
REMARK    7  A    between atoms: C_10  and  C_11 
REMARK    8  A    between atoms: C_17  and  C_18 
REMARK    9  A    between atoms: C_21  and  O_22 
ROOT
HETATM    1  C   UNL     1      41.004 -15.201   4.566  1.00  0.00     0.192 A 
HETATM    2  N   UNL     1      41.010 -15.406   3.210  1.00  0.00    -0.307 N 
HETATM    3  C   UNL     1      40.638 -14.192   2.654  1.00  0.00     0.164 A 
HETATM    4  N   UNL     1      40.472 -13.325   3.640  1.00  0.00    -0.128 NA
HETATM    5  N   UNL     1      40.704 -13.955   4.829  1.00  0.00    -0.122 NA
ENDROOT
BRANCH   1   6
HETATM    6  S   UNL     1      41.365 -16.416   5.742  1.00  0.00    -0.081 SA
BRANCH   6   7
HETATM    7  C   UNL     1      41.904 -15.407   7.150  1.00  0.00     0.185 C 
BRANCH   7   8
HETATM    8  C   UNL     1      43.211 -14.689   6.857  1.00  0.00     0.227 C 
HETATM    9  N   UNL     1      43.159 -13.322   7.033  1.00  0.00    -0.361 N 
HETATM   10  H   UNL     1      42.436 -12.972   7.663  1.00  0.00     0.162 HD
HETATM   11  O   UNL     1      44.213 -15.285   6.470  1.00  0.00    -0.273 OA
BRANCH   9  12
HETATM   12  C   UNL     1      44.320 -12.479   6.845  1.00  0.00     0.118 C 
HETATM   13  C   UNL     1      44.213 -11.643   5.582  1.00  0.00     0.026 C 
ENDBRANCH   9  12
ENDBRANCH   7   8
ENDBRANCH   6   7
ENDBRANCH   1   6
BRANCH   2  14
HETATM   14  C   UNL     1      41.488 -16.588   2.518  1.00  0.00     0.137 C 
BRANCH  14  15
HETATM   15  C   UNL     1      43.008 -16.745   2.564  1.00  0.00     0.059 C 
BRANCH  15  16
HETATM   16  C   UNL     1      43.400 -18.140   2.986  1.00  0.00    -0.057 A 
HETATM   17  C   UNL     1      43.173 -19.228   2.129  1.00  0.00     0.007 A 
HETATM   18  C   UNL     1      43.507 -20.522   2.527  1.00  0.00     0.001 A 
HETATM   19  C   UNL     1      44.071 -20.744   3.783  1.00  0.00     0.000 A 
HETATM   20  C   UNL     1      44.301 -19.670   4.640  1.00  0.00     0.001 A 
HETATM   21  C   UNL     1      43.966 -18.373   4.246  1.00  0.00     0.007 A 
ENDBRANCH  15  16
ENDBRANCH  14  15
ENDBRANCH   2  14
BRANCH   3  22
HETATM   22  C   UNL     1      40.504 -13.843   1.236  1.00  0.00     0.012 A 
HETATM   23  C   UNL     1      41.043 -12.680   0.679  1.00  0.00     0.018 A 
HETATM   24  C   UNL     1      40.913 -12.418  -0.690  1.00  0.00     0.037 A 
HETATM   25  C   UNL     1      40.271 -13.326  -1.534  1.00  0.00     0.068 A 
HETATM   26  C   UNL     1      39.741 -14.494  -0.994  1.00  0.00     0.037 A 
HETATM   27  C   UNL     1      39.861 -14.749   0.378  1.00  0.00     0.018 A 
BRANCH  25  28
HETATM   28  O   UNL     1      40.231 -12.960  -2.850  1.00  0.00    -0.356 OA
HETATM   29  C   UNL     1      41.034 -11.847  -3.226  1.00  0.00     0.210 C 
ENDBRANCH  25  28
ENDBRANCH   3  22
TORSDOF 9
ENDMDL
MODEL 6
REMARK VINA RESULT:      -7.0      2.834      7.246
REMARK  9 active torsions:
REMARK  status: ('A' for Active; 'I' for Inactive)
REMARK    1  A    between atoms: C_2  and  N_3 
REMARK       I    between atoms: N_3  and  C_4 
REMARK    2  A    between atoms: C_4  and  C_5 
REMARK    3  A    between atoms: C_5  and  S_6 
REMARK    4  A    between atoms: S_6  and  C_7 
REMARK    5  A    between atoms: N_8  and  C_9 
REMARK    6  A    between atoms: C_9  and  C_10 
REMARK    7  A    between atoms: C_10  and  C_11 
REMARK    8  A    between atoms: C_17  and  C_18 
REMARK    9  A    between atoms: C_21  and  O_22 
ROOT
HETATM    1  C   UNL     1      40.530 -14.316   2.626  1.00  0.00     0.192 A 
HETATM    2  N   UNL     1      41.774 -14.234   3.199  1.00  0.00    -0.307 N 
HETATM    3  C   UNL     1      41.692 -13.191   4.107  1.00  0.00     0.164 A 
HETATM    4  N   UNL     1      40.452 -12.728   4.087  1.00  0.00    -0.128 NA
HETATM    5  N   UNL     1      39.730 -13.432   3.167  1.00  0.00    -0.122 NA
ENDROOT
BRANCH   1   6
HETATM    6  S   UNL     1      40.093 -15.440   1.388  1.00  0.00    -0.081 SA
BRANCH   6   7
HETATM    7  C   UNL     1      40.531 -14.514  -0.111  1.00  0.00     0.185 C 
BRANCH   7   8
HETATM    8  C   UNL     1      39.361 -14.431  -1.079  1.00  0.00     0.227 C 
HETATM    9  N   UNL     1      38.686 -13.228  -1.049  1.00  0.00    -0.361 N 
HETATM   10  H   UNL     1      39.207 -12.423  -0.701  1.00  0.00     0.162 HD
HETATM   11  O   UNL     1      39.040 -15.372  -1.800  1.00  0.00    -0.273 OA
BRANCH   9  12
HETATM   12  C   UNL     1      37.574 -12.951  -1.933  1.00  0.00     0.118 C 
HETATM   13  C   UNL     1      37.679 -11.571  -2.556  1.00  0.00     0.026 C 
ENDBRANCH   9  12
ENDBRANCH   7   8
ENDBRANCH   6   7
ENDBRANCH   1   6
BRANCH   2  14
HETATM   14  C   UNL     1      42.869 -15.167   3.018  1.00  0.00     0.137 C 
BRANCH  14  15
HETATM   15  C   UNL     1      43.082 -16.094   4.216  1.00  0.00     0.059 C 
BRANCH  15  16
HETATM   16  C   UNL     1      43.342 -17.512   3.769  1.00  0.00    -0.057 A 
HETATM   17  C   UNL     1      42.920 -17.942   2.503  1.00  0.00     0.007 A 
HETATM   18  C   UNL     1      43.133 -19.259   2.097  1.00  0.00     0.001 A 
HETATM   19  C   UNL     1      43.769 -20.159   2.950  1.00  0.00     0.000 A 
HETATM   20  C   UNL     1      44.192 -19.742   4.210  1.00  0.00     0.001 A 
HETATM   21  C   UNL     1      43.979 -18.424   4.621  1.00  0.00     0.007 A 
ENDBRANCH  15  16
ENDBRANCH  14  15
ENDBRANCH   2  14
BRANCH   3  22
HETATM   22  C   UNL     1      42.731 -12.686   5.010  1.00  0.00     0.012 A 
HETATM   23  C   UNL     1      42.816 -13.044   6.359  1.00  0.00     0.018 A 
HETATM   24  C   UNL     1      43.853 -12.556   7.163  1.00  0.00     0.037 A 
HETATM   25  C   UNL     1      44.842 -11.728   6.630  1.00  0.00     0.068 A 
HETATM   26  C   UNL     1      44.776 -11.373   5.286  1.00  0.00     0.037 A 
HETATM   27  C   UNL     1      43.731 -11.852   4.486  1.00  0.00     0.018 A 
BRANCH  25  28
HETATM   28  O   UNL     1      45.807 -11.340   7.517  1.00  0.00    -0.356 OA
HETATM   29  C   UNL     1      45.691 -10.025   8.048  1.00  0.00     0.210 C 
ENDBRANCH  25  28
ENDBRANCH   3  22
TORSDOF 9
ENDMDL
MODEL 7
REMARK VINA RESULT:      -7.0      3.540      6.593
REMARK  9 active torsions:
REMARK  status: ('A' for Active; 'I' for Inactive)
REMARK    1  A    between atoms: C_2  and  N_3 
REMARK       I    between atoms: N_3  and  C_4 
REMARK    2  A    between atoms: C_4  and  C_5 
REMARK    3  A    between atoms: C_5  and  S_6 
REMARK    4  A    between atoms: S_6  and  C_7 
REMARK    5  A    between atoms: N_8  and  C_9 
REMARK    6  A    between atoms: C_9  and  C_10 
REMARK    7  A    between atoms: C_10  and  C_11 
REMARK    8  A    between atoms: C_17  and  C_18 
REMARK    9  A    between atoms: C_21  and  O_22 
ROOT
HETATM    1  C   UNL     1      40.111 -14.197   1.267  1.00  0.00     0.192 A 
HETATM    2  N   UNL     1      40.808 -14.957   2.172  1.00  0.00    -0.307 N 
HETATM    3  C   UNL     1      40.771 -14.241   3.358  1.00  0.00     0.164 A 
HETATM    4  N   UNL     1      40.051 -13.149   3.153  1.00  0.00    -0.128 NA
HETATM    5  N   UNL     1      39.639 -13.126   1.852  1.00  0.00    -0.122 NA
ENDROOT
BRANCH   1   6
HETATM    6  S   UNL     1      39.881 -14.617  -0.394  1.00  0.00    -0.081 SA
BRANCH   6   7
HETATM    7  C   UNL     1      39.251 -13.059  -1.077  1.00  0.00     0.185 C 
BRANCH   7   8
HETATM    8  C   UNL     1      40.360 -12.239  -1.717  1.00  0.00     0.227 C 
HETATM    9  N   UNL     1      40.576 -11.015  -1.119  1.00  0.00    -0.361 N 
HETATM   10  H   UNL     1      40.278 -10.924  -0.148  1.00  0.00     0.162 HD
HETATM   11  O   UNL     1      40.983 -12.634  -2.700  1.00  0.00    -0.273 OA
BRANCH   9  12
HETATM   12  C   UNL     1      41.621 -10.118  -1.564  1.00  0.00     0.118 C 
HETATM   13  C   UNL     1      41.095  -9.072  -2.531  1.00  0.00     0.026 C 
ENDBRANCH   9  12
ENDBRANCH   7   8
ENDBRANCH   6   7
ENDBRANCH   1   6
BRANCH   2  14
HETATM   14  C   UNL     1      41.307 -16.303   1.965  1.00  0.00     0.137 C 
BRANCH  14  15
HETATM   15  C   UNL     1      42.832 -16.400   2.023  1.00  0.00     0.059 C 
BRANCH  15  16
HETATM   16  C   UNL     1      43.272 -17.607   2.817  1.00  0.00    -0.057 A 
HETATM   17  C   UNL     1      43.718 -17.459   4.138  1.00  0.00     0.007 A 
HETATM   18  C   UNL     1      44.153 -18.567   4.866  1.00  0.00     0.001 A 
HETATM   19  C   UNL     1      44.144 -19.833   4.281  1.00  0.00     0.000 A 
HETATM   20  C   UNL     1      43.702 -19.990   2.970  1.00  0.00     0.001 A 
HETATM   21  C   UNL     1      43.269 -18.882   2.238  1.00  0.00     0.007 A 
ENDBRANCH  15  16
ENDBRANCH  14  15
ENDBRANCH   2  14
BRANCH   3  22
HETATM   22  C   UNL     1      41.342 -14.603   4.659  1.00  0.00     0.012 A 
HETATM   23  C   UNL     1      40.762 -15.542   5.516  1.00  0.00     0.018 A 
HETATM   24  C   UNL     1      41.373 -15.873   6.731  1.00  0.00     0.037 A 
HETATM   25  C   UNL     1      42.590 -15.297   7.099  1.00  0.00     0.068 A 
HETATM   26  C   UNL     1      43.185 -14.370   6.249  1.00  0.00     0.037 A 
HETATM   27  C   UNL     1      42.565 -14.030   5.040  1.00  0.00     0.018 A 
BRANCH  25  28
HETATM   28  O   UNL     1      43.088 -15.722   8.299  1.00  0.00    -0.356 OA
HETATM   29  C   UNL     1      43.985 -16.827   8.261  1.00  0.00     0.210 C 
ENDBRANCH  25  28
ENDBRANCH   3  22
TORSDOF 9
ENDMDL
MODEL 8
REMARK VINA RESULT:      -6.8      2.678      7.120
REMARK  9 active torsions:
REMARK  status: ('A' for Active; 'I' for Inactive)
REMARK    1  A    between atoms: C_2  and  N_3 
REMARK       I    between atoms: N_3  and  C_4 
REMARK    2  A    between atoms: C_4  and  C_5 
REMARK    3  A    between atoms: C_5  and  S_6 
REMARK    4  A    between atoms: S_6  and  C_7 
REMARK    5  A    between atoms: N_8  and  C_9 
REMARK    6  A    between atoms: C_9  and  C_10 
REMARK    7  A    between atoms: C_10  and  C_11 
REMARK    8  A    between atoms: C_17  and  C_18 
REMARK    9  A    between atoms: C_21  and  O_22 
ROOT
HETATM    1  C   UNL     1      42.076 -12.608   2.428  1.00  0.00     0.192 A 
HETATM    2  N   UNL     1      42.469 -12.859   3.718  1.00  0.00    -0.307 N 
HETATM    3  C   UNL     1      43.139 -11.717   4.127  1.00  0.00     0.164 A 
HETATM    4  N   UNL     1      43.092 -10.840   3.137  1.00  0.00    -0.128 NA
HETATM    5  N   UNL     1      42.427 -11.396   2.082  1.00  0.00    -0.122 NA
ENDROOT
BRANCH   1   6
HETATM    6  S   UNL     1      41.225 -13.731   1.427  1.00  0.00    -0.081 SA
BRANCH   6   7
HETATM    7  C   UNL     1      39.832 -12.719   0.853  1.00  0.00     0.185 C 
BRANCH   7   8
HETATM    8  C   UNL     1      39.683 -12.777  -0.659  1.00  0.00     0.227 C 
HETATM    9  N   UNL     1      38.513 -13.368  -1.089  1.00  0.00    -0.361 N 
HETATM   10  H   UNL     1      37.734 -13.365  -0.431  1.00  0.00     0.162 HD
HETATM   11  O   UNL     1      40.551 -12.356  -1.419  1.00  0.00    -0.273 OA
BRANCH   9  12
HETATM   12  C   UNL     1      38.178 -13.471  -2.493  1.00  0.00     0.118 C 
HETATM   13  C   UNL     1      38.505 -14.843  -3.053  1.00  0.00     0.026 C 
ENDBRANCH   9  12
ENDBRANCH   7   8
ENDBRANCH   6   7
ENDBRANCH   1   6
BRANCH   2  14
HETATM   14  C   UNL     1      42.094 -14.002   4.527  1.00  0.00     0.137 C 
BRANCH  14  15
HETATM   15  C   UNL     1      43.293 -14.766   5.093  1.00  0.00     0.059 C 
BRANCH  15  16
HETATM   16  C   UNL     1      43.445 -16.112   4.429  1.00  0.00    -0.057 A 
HETATM   17  C   UNL     1      44.025 -17.182   5.126  1.00  0.00     0.007 A 
HETATM   18  C   UNL     1      44.195 -18.421   4.507  1.00  0.00     0.001 A 
HETATM   19  C   UNL     1      43.786 -18.603   3.187  1.00  0.00     0.000 A 
HETATM   20  C   UNL     1      43.208 -17.547   2.486  1.00  0.00     0.001 A 
HETATM   21  C   UNL     1      43.040 -16.305   3.102  1.00  0.00     0.007 A 
ENDBRANCH  15  16
ENDBRANCH  14  15
ENDBRANCH   2  14
BRANCH   3  22
HETATM   22  C   UNL     1      43.749 -11.436   5.431  1.00  0.00     0.012 A 
HETATM   23  C   UNL     1      43.006 -11.173   6.585  1.00  0.00     0.018 A 
HETATM   24  C   UNL     1      43.645 -10.947   7.809  1.00  0.00     0.037 A 
HETATM   25  C   UNL     1      45.036 -11.009   7.912  1.00  0.00     0.068 A 
HETATM   26  C   UNL     1      45.787 -11.281   6.773  1.00  0.00     0.037 A 
HETATM   27  C   UNL     1      45.146 -11.495   5.546  1.00  0.00     0.018 A 
BRANCH  25  28
HETATM   28  O   UNL     1      45.531 -10.790   9.167  1.00  0.00    -0.356 OA
HETATM   29  C   UNL     1      44.742  -9.978  10.029  1.00  0.00     0.210 C 
ENDBRANCH  25  28
ENDBRANCH   3  22
TORSDOF 9
ENDMDL
MODEL 9
REMARK VINA RESULT:      -6.7      2.921      6.711
REMARK  9 active torsions:
REMARK  status: ('A' for Active; 'I' for Inactive)
REMARK    1  A    between atoms: C_2  and  N_3 
REMARK       I    between atoms: N_3  and  C_4 
REMARK    2  A    between atoms: C_4  and  C_5 
REMARK    3  A    between atoms: C_5  and  S_6 
REMARK    4  A    between atoms: S_6  and  C_7 
REMARK    5  A    between atoms: N_8  and  C_9 
REMARK    6  A    between atoms: C_9  and  C_10 
REMARK    7  A    between atoms: C_10  and  C_11 
REMARK    8  A    between atoms: C_17  and  C_18 
REMARK    9  A    between atoms: C_21  and  O_22 
ROOT
HETATM    1  C   UNL     1      40.529 -14.197   2.567  1.00  0.00     0.192 A 
HETATM    2  N   UNL     1      41.816 -14.123   3.036  1.00  0.00    -0.307 N 
HETATM    3  C   UNL     1      41.797 -13.132   4.005  1.00  0.00     0.164 A 
HETATM    4  N   UNL     1      40.553 -12.693   4.115  1.00  0.00    -0.128 NA
HETATM    5  N   UNL     1      39.765 -13.360   3.221  1.00  0.00    -0.122 NA
ENDROOT
BRANCH   1   6
HETATM    6  S   UNL     1      40.005 -15.261   1.309  1.00  0.00    -0.081 SA
BRANCH   6   7
HETATM    7  C   UNL     1      40.560 -14.370  -0.172  1.00  0.00     0.185 C 
BRANCH   7   8
HETATM    8  C   UNL     1      40.031 -12.945  -0.198  1.00  0.00     0.227 C 
HETATM    9  N   UNL     1      38.666 -12.844  -0.029  1.00  0.00    -0.361 N 
HETATM   10  H   UNL     1      38.209 -13.621   0.448  1.00  0.00     0.162 HD
HETATM   11  O   UNL     1      40.765 -11.977  -0.383  1.00  0.00    -0.273 OA
BRANCH   9  12
HETATM   12  C   UNL     1      37.991 -11.565   0.019  1.00  0.00     0.118 C 
HETATM   13  C   UNL     1      37.423 -11.277   1.397  1.00  0.00     0.026 C 
ENDBRANCH   9  12
ENDBRANCH   7   8
ENDBRANCH   6   7
ENDBRANCH   1   6
BRANCH   2  14
HETATM   14  C   UNL     1      42.906 -15.023   2.712  1.00  0.00     0.137 C 
BRANCH  14  15
HETATM   15  C   UNL     1      42.732 -16.424   3.302  1.00  0.00     0.059 C 
BRANCH  15  16
HETATM   16  C   UNL     1      42.983 -16.424   4.791  1.00  0.00    -0.057 A 
HETATM   17  C   UNL     1      44.295 -16.444   5.285  1.00  0.00     0.007 A 
HETATM   18  C   UNL     1      44.532 -16.473   6.660  1.00  0.00     0.001 A 
HETATM   19  C   UNL     1      43.461 -16.482   7.553  1.00  0.00     0.000 A 
HETATM   20  C   UNL     1      42.154 -16.462   7.071  1.00  0.00     0.001 A 
HETATM   21  C   UNL     1      41.914 -16.435   5.695  1.00  0.00     0.007 A 
ENDBRANCH  15  16
ENDBRANCH  14  15
ENDBRANCH   2  14
BRANCH   3  22
HETATM   22  C   UNL     1      42.902 -12.657   4.844  1.00  0.00     0.012 A 
HETATM   23  C   UNL     1      43.913 -11.814   4.375  1.00  0.00     0.018 A 
HETATM   24  C   UNL     1      44.923 -11.365   5.234  1.00  0.00     0.037 A 
HETATM   25  C   UNL     1      44.925 -11.722   6.584  1.00  0.00     0.068 A 
HETATM   26  C   UNL     1      43.917 -12.551   7.066  1.00  0.00     0.037 A 
HETATM   27  C   UNL     1      42.914 -13.010   6.202  1.00  0.00     0.018 A 
BRANCH  25  28
HETATM   28  O   UNL     1      45.954 -11.200   7.316  1.00  0.00    -0.356 OA
HETATM   29  C   UNL     1      45.717  -9.943   7.940  1.00  0.00     0.210 C 
ENDBRANCH  25  28
ENDBRANCH   3  22
TORSDOF 9
ENDMDL
MODEL 10
REMARK VINA RESULT:      -6.7      2.259      4.498
REMARK  9 active torsions:
REMARK  status: ('A' for Active; 'I' for Inactive)
REMARK    1  A    between atoms: C_2  and  N_3 
REMARK       I    between atoms: N_3  and  C_4 
REMARK    2  A    between atoms: C_4  and  C_5 
REMARK    3  A    between atoms: C_5  and  S_6 
REMARK    4  A    between atoms: S_6  and  C_7 
REMARK    5  A    between atoms: N_8  and  C_9 
REMARK    6  A    between atoms: C_9  and  C_10 
REMARK    7  A    between atoms: C_10  and  C_11 
REMARK    8  A    between atoms: C_17  and  C_18 
REMARK    9  A    between atoms: C_21  and  O_22 
ROOT
HETATM    1  C   UNL     1      43.523 -12.237   4.990  1.00  0.00     0.192 A 
HETATM    2  N   UNL     1      42.641 -13.060   4.337  1.00  0.00    -0.307 N 
HETATM    3  C   UNL     1      42.447 -12.478   3.095  1.00  0.00     0.164 A 
HETATM    4  N   UNL     1      43.214 -11.401   3.024  1.00  0.00    -0.128 NA
HETATM    5  N   UNL     1      43.885 -11.255   4.204  1.00  0.00    -0.122 NA
ENDROOT
BRANCH   1   6
HETATM    6  S   UNL     1      44.081 -12.486   6.608  1.00  0.00    -0.081 SA
BRANCH   6   7
HETATM    7  C   UNL     1      43.700 -10.884   7.371  1.00  0.00     0.185 C 
BRANCH   7   8
HETATM    8  C   UNL     1      44.275 -10.782   8.775  1.00  0.00     0.227 C 
HETATM    9  N   UNL     1      43.338 -10.518   9.752  1.00  0.00    -0.361 N 
HETATM   10  H   UNL     1      42.374 -10.776   9.539  1.00  0.00     0.162 HD
HETATM   11  O   UNL     1      45.477 -10.900   9.001  1.00  0.00    -0.273 OA
BRANCH   9  12
HETATM   12  C   UNL     1      43.693 -10.431  11.152  1.00  0.00     0.118 C 
HETATM   13  C   UNL     1      43.667  -9.000  11.655  1.00  0.00     0.026 C 
ENDBRANCH   9  12
ENDBRANCH   7   8
ENDBRANCH   6   7
ENDBRANCH   1   6
BRANCH   2  14
HETATM   14  C   UNL     1      42.170 -14.353   4.792  1.00  0.00     0.137 C 
BRANCH  14  15
HETATM   15  C   UNL     1      43.292 -15.270   5.282  1.00  0.00     0.059 C 
BRANCH  15  16
HETATM   16  C   UNL     1      43.391 -16.514   4.433  1.00  0.00    -0.057 A 
HETATM   17  C   UNL     1      44.235 -17.566   4.817  1.00  0.00     0.007 A 
HETATM   18  C   UNL     1      44.351 -18.706   4.020  1.00  0.00     0.001 A 
HETATM   19  C   UNL     1      43.627 -18.805   2.834  1.00  0.00     0.000 A 
HETATM   20  C   UNL     1      42.785 -17.766   2.444  1.00  0.00     0.001 A 
HETATM   21  C   UNL     1      42.668 -16.623   3.238  1.00  0.00     0.007 A 
ENDBRANCH  15  16
ENDBRANCH  14  15
ENDBRANCH   2  14
BRANCH   3  22
HETATM   22  C   UNL     1      41.614 -12.954   1.986  1.00  0.00     0.012 A 
HETATM   23  C   UNL     1      41.855 -14.150   1.304  1.00  0.00     0.018 A 
HETATM   24  C   UNL     1      41.004 -14.569   0.275  1.00  0.00     0.037 A 
HETATM   25  C   UNL     1      39.878 -13.820  -0.071  1.00  0.00     0.068 A 
HETATM   26  C   UNL     1      39.619 -12.633   0.608  1.00  0.00     0.037 A 
HETATM   27  C   UNL     1      40.480 -12.208   1.628  1.00  0.00     0.018 A 
BRANCH  25  28
HETATM   28  O   UNL     1      39.120 -14.352  -1.076  1.00  0.00    -0.356 OA
HETATM   29  C   UNL     1      38.411 -13.429  -1.895  1.00  0.00     0.210 C 
ENDBRANCH  25  28
ENDBRANCH   3  22
TORSDOF 9
ENDMDL
