MODEL 1
REMARK VINA RESULT:      -8.4      0.000      0.000
REMARK  2 active torsions:
REMARK  status: ('A' for Active; 'I' for Inactive)
REMARK    1  A    between atoms: C_11  and  N_12 
REMARK    2  A    between atoms: N_12  and  C_13 
ROOT
HETATM    1  C   UNL     1      43.237 -20.514   2.935  1.00  0.00     0.010 C 
HETATM    2  C   UNL     1      44.277 -19.394   2.823  1.00  0.00    -0.014 C 
HETATM    3  C   UNL     1      44.689 -18.856   4.209  1.00  0.00     0.051 C 
HETATM    4  C   UNL     1      43.678 -17.879   4.732  1.00  0.00    -0.008 A 
HETATM    5  C   UNL     1      42.705 -17.235   3.986  1.00  0.00    -0.028 A 
HETATM    6  C   UNL     1      41.860 -16.389   4.819  1.00  0.00     0.053 A 
HETATM    7  C   UNL     1      42.317 -16.409   6.134  1.00  0.00     0.114 A 
HETATM    8  N   UNL     1      41.809 -15.736   7.177  1.00  0.00    -0.234 NA
HETATM    9  C   UNL     1      40.754 -15.002   6.839  1.00  0.00     0.236 A 
HETATM   10  N   UNL     1      40.189 -14.903   5.631  1.00  0.00    -0.223 NA
HETATM   11  C   UNL     1      40.705 -15.592   4.583  1.00  0.00     0.143 A 
HETATM   12  S   UNL     1      43.660 -17.429   6.367  1.00  0.00    -0.073 SA
HETATM   13  C   UNL     1      42.578 -17.484   2.509  1.00  0.00     0.041 C 
HETATM   14  C   UNL     1      43.783 -18.242   1.926  1.00  0.00     0.009 C 
ENDROOT
BRANCH  11  15
HETATM   15  N   UNL     1      40.109 -15.495   3.316  1.00  0.00    -0.340 N 
HETATM   16  H   UNL     1      39.285 -16.063   3.212  1.00  0.00     0.167 HD
BRANCH  15  17
HETATM   17  C   UNL     1      40.330 -14.638   2.221  1.00  0.00     0.036 A 
HETATM   18  C   UNL     1      39.917 -15.072   0.947  1.00  0.00     0.069 A 
HETATM   19  C   UNL     1      40.138 -14.255  -0.143  1.00  0.00     0.107 A 
HETATM   20  C   UNL     1      40.760 -13.039  -0.020  1.00  0.00     0.105 A 
HETATM   21  O   UNL     1      39.785 -14.532  -1.427  1.00  0.00    -0.323 OA
HETATM   22  O   UNL     1      40.877 -12.391  -1.209  1.00  0.00    -0.323 OA
HETATM   23  C   UNL     1      41.198 -12.579   1.198  1.00  0.00     0.042 A 
HETATM   24  C   UNL     1      40.256 -13.343  -2.097  1.00  0.00     0.352 A 
HETATM   25  C   UNL     1      40.984 -13.391   2.321  1.00  0.00     0.032 A 
ENDBRANCH  15  17
ENDBRANCH  11  15
TORSDOF 2
ENDMDL
MODEL 2
REMARK VINA RESULT:      -8.3      3.488      6.555
REMARK  2 active torsions:
REMARK  status: ('A' for Active; 'I' for Inactive)
REMARK    1  A    between atoms: C_11  and  N_12 
REMARK    2  A    between atoms: N_12  and  C_13 
ROOT
HETATM    1  C   UNL     1      40.963 -11.988  -0.506  1.00  0.00     0.010 C 
HETATM    2  C   UNL     1      39.821 -12.932  -0.116  1.00  0.00    -0.014 C 
HETATM    3  C   UNL     1      39.143 -12.496   1.199  1.00  0.00     0.051 C 
HETATM    4  C   UNL     1      39.936 -12.946   2.391  1.00  0.00    -0.008 A 
HETATM    5  C   UNL     1      40.921 -13.919   2.393  1.00  0.00    -0.028 A 
HETATM    6  C   UNL     1      41.520 -14.074   3.713  1.00  0.00     0.053 A 
HETATM    7  C   UNL     1      40.878 -13.244   4.627  1.00  0.00     0.114 A 
HETATM    8  N   UNL     1      41.137 -13.131   5.938  1.00  0.00    -0.234 NA
HETATM    9  C   UNL     1      42.132 -13.923   6.326  1.00  0.00     0.236 A 
HETATM   10  N   UNL     1      42.854 -14.751   5.563  1.00  0.00    -0.223 NA
HETATM   11  C   UNL     1      42.590 -14.853   4.236  1.00  0.00     0.143 A 
HETATM   12  S   UNL     1      39.653 -12.291   3.929  1.00  0.00    -0.073 SA
HETATM   13  C   UNL     1      41.297 -14.636   1.127  1.00  0.00     0.041 C 
HETATM   14  C   UNL     1      40.296 -14.395  -0.016  1.00  0.00     0.009 C 
ENDROOT
BRANCH  11  15
HETATM   15  N   UNL     1      43.352 -15.715   3.433  1.00  0.00    -0.340 N 
HETATM   16  H   UNL     1      44.072 -15.249   2.908  1.00  0.00     0.167 HD
BRANCH  15  17
HETATM   17  C   UNL     1      43.424 -17.119   3.342  1.00  0.00     0.036 A 
HETATM   18  C   UNL     1      43.862 -17.833   4.473  1.00  0.00     0.069 A 
HETATM   19  C   UNL     1      43.957 -19.209   4.401  1.00  0.00     0.107 A 
HETATM   20  C   UNL     1      43.647 -19.895   3.254  1.00  0.00     0.105 A 
HETATM   21  O   UNL     1      44.350 -20.031   5.410  1.00  0.00    -0.323 OA
HETATM   22  O   UNL     1      43.801 -21.238   3.393  1.00  0.00    -0.323 OA
HETATM   23  C   UNL     1      43.232 -19.242   2.119  1.00  0.00     0.042 A 
HETATM   24  C   UNL     1      44.247 -21.318   4.763  1.00  0.00     0.352 A 
HETATM   25  C   UNL     1      43.129 -17.845   2.168  1.00  0.00     0.032 A 
ENDBRANCH  15  17
ENDBRANCH  11  15
TORSDOF 2
ENDMDL
MODEL 3
REMARK VINA RESULT:      -7.9      2.088      2.869
REMARK  2 active torsions:
REMARK  status: ('A' for Active; 'I' for Inactive)
REMARK    1  A    between atoms: C_11  and  N_12 
REMARK    2  A    between atoms: N_12  and  C_13 
ROOT
HETATM    1  C   UNL     1      42.384 -18.447   2.240  1.00  0.00     0.010 C 
HETATM    2  C   UNL     1      43.532 -17.585   2.777  1.00  0.00    -0.014 C 
HETATM    3  C   UNL     1      43.263 -17.113   4.222  1.00  0.00     0.051 C 
HETATM    4  C   UNL     1      42.348 -15.924   4.240  1.00  0.00    -0.008 A 
HETATM    5  C   UNL     1      42.056 -15.103   3.164  1.00  0.00    -0.028 A 
HETATM    6  C   UNL     1      41.092 -14.070   3.521  1.00  0.00     0.053 A 
HETATM    7  C   UNL     1      40.786 -14.154   4.876  1.00  0.00     0.114 A 
HETATM    8  N   UNL     1      39.958 -13.358   5.568  1.00  0.00    -0.234 NA
HETATM    9  C   UNL     1      39.403 -12.420   4.806  1.00  0.00     0.236 A 
HETATM   10  N   UNL     1      39.581 -12.233   3.494  1.00  0.00    -0.223 NA
HETATM   11  C   UNL     1      40.415 -13.047   2.800  1.00  0.00     0.143 A 
HETATM   12  S   UNL     1      41.576 -15.436   5.669  1.00  0.00    -0.073 SA
HETATM   13  C   UNL     1      42.667 -15.359   1.814  1.00  0.00     0.041 C 
HETATM   14  C   UNL     1      43.818 -16.378   1.863  1.00  0.00     0.009 C 
ENDROOT
BRANCH  11  15
HETATM   15  N   UNL     1      40.596 -12.857   1.421  1.00  0.00    -0.340 N 
HETATM   16  H   UNL     1      41.556 -12.729   1.152  1.00  0.00     0.167 HD
BRANCH  15  17
HETATM   17  C   UNL     1      39.726 -12.976   0.320  1.00  0.00     0.036 A 
HETATM   18  C   UNL     1      39.924 -14.052  -0.565  1.00  0.00     0.069 A 
HETATM   19  C   UNL     1      39.094 -14.180  -1.661  1.00  0.00     0.107 A 
HETATM   20  C   UNL     1      38.090 -13.280  -1.916  1.00  0.00     0.105 A 
HETATM   21  O   UNL     1      39.155 -15.169  -2.592  1.00  0.00    -0.323 OA
HETATM   22  O   UNL     1      37.388 -13.587  -3.038  1.00  0.00    -0.323 OA
HETATM   23  C   UNL     1      37.868 -12.203  -1.091  1.00  0.00     0.042 A 
HETATM   24  C   UNL     1      38.067 -14.786  -3.461  1.00  0.00     0.352 A 
HETATM   25  C   UNL     1      38.699 -12.052   0.028  1.00  0.00     0.032 A 
ENDBRANCH  15  17
ENDBRANCH  11  15
TORSDOF 2
ENDMDL
MODEL 4
REMARK VINA RESULT:      -7.9      5.479      7.510
REMARK  2 active torsions:
REMARK  status: ('A' for Active; 'I' for Inactive)
REMARK    1  A    between atoms: C_11  and  N_12 
REMARK    2  A    between atoms: N_12  and  C_13 
ROOT
HETATM    1  C   UNL     1      43.881 -17.443   6.134  1.00  0.00     0.010 C 
HETATM    2  C   UNL     1      42.640 -16.846   6.806  1.00  0.00    -0.014 C 
HETATM    3  C   UNL     1      41.567 -16.447   5.772  1.00  0.00     0.051 C 
HETATM    4  C   UNL     1      41.883 -15.119   5.151  1.00  0.00    -0.008 A 
HETATM    5  C   UNL     1      42.770 -14.178   5.646  1.00  0.00    -0.028 A 
HETATM    6  C   UNL     1      42.871 -13.019   4.768  1.00  0.00     0.053 A 
HETATM    7  C   UNL     1      41.985 -13.152   3.703  1.00  0.00     0.114 A 
HETATM    8  N   UNL     1      41.780 -12.276   2.707  1.00  0.00    -0.234 NA
HETATM    9  C   UNL     1      42.550 -11.197   2.817  1.00  0.00     0.236 A 
HETATM   10  N   UNL     1      43.459 -10.944   3.764  1.00  0.00    -0.223 NA
HETATM   11  C   UNL     1      43.665 -11.838   4.763  1.00  0.00     0.143 A 
HETATM   12  S   UNL     1      41.111 -14.613   3.728  1.00  0.00    -0.073 SA
HETATM   13  C   UNL     1      43.532 -14.434   6.916  1.00  0.00     0.041 C 
HETATM   14  C   UNL     1      42.997 -15.643   7.701  1.00  0.00     0.009 C 
ENDROOT
BRANCH  11  15
HETATM   15  N   UNL     1      44.624 -11.577   5.753  1.00  0.00    -0.340 N 
HETATM   16  H   UNL     1      45.569 -11.765   5.462  1.00  0.00     0.167 HD
BRANCH  15  17
HETATM   17  C   UNL     1      44.551 -10.945   7.010  1.00  0.00     0.036 A 
HETATM   18  C   UNL     1      43.300 -10.456   7.432  1.00  0.00     0.069 A 
HETATM   19  C   UNL     1      43.207  -9.819   8.653  1.00  0.00     0.107 A 
HETATM   20  C   UNL     1      44.302  -9.639   9.459  1.00  0.00     0.105 A 
HETATM   21  O   UNL     1      42.070  -9.308   9.197  1.00  0.00    -0.323 OA
HETATM   22  O   UNL     1      43.997  -8.995  10.616  1.00  0.00    -0.323 OA
HETATM   23  C   UNL     1      45.548 -10.082   9.084  1.00  0.00     0.042 A 
HETATM   24  C   UNL     1      42.580  -8.789  10.444  1.00  0.00     0.352 A 
HETATM   25  C   UNL     1      45.667 -10.732   7.847  1.00  0.00     0.032 A 
ENDBRANCH  15  17
ENDBRANCH  11  15
TORSDOF 2
ENDMDL
MODEL 5
REMARK VINA RESULT:      -7.8      4.697      7.194
REMARK  2 active torsions:
REMARK  status: ('A' for Active; 'I' for Inactive)
REMARK    1  A    between atoms: C_11  and  N_12 
REMARK    2  A    between atoms: N_12  and  C_13 
ROOT
HETATM    1  C   UNL     1      45.037 -10.681   9.621  1.00  0.00     0.010 C 
HETATM    2  C   UNL     1      45.259  -9.970   8.282  1.00  0.00    -0.014 C 
HETATM    3  C   UNL     1      43.967  -9.302   7.769  1.00  0.00     0.051 C 
HETATM    4  C   UNL     1      43.070 -10.302   7.101  1.00  0.00    -0.008 A 
HETATM    5  C   UNL     1      43.442 -11.557   6.651  1.00  0.00    -0.028 A 
HETATM    6  C   UNL     1      42.309 -12.286   6.094  1.00  0.00     0.053 A 
HETATM    7  C   UNL     1      41.174 -11.482   6.105  1.00  0.00     0.114 A 
HETATM    8  N   UNL     1      39.952 -11.800   5.653  1.00  0.00    -0.234 NA
HETATM    9  C   UNL     1      39.901 -13.036   5.166  1.00  0.00     0.236 A 
HETATM   10  N   UNL     1      40.896 -13.928   5.111  1.00  0.00    -0.223 NA
HETATM   11  C   UNL     1      42.127 -13.599   5.578  1.00  0.00     0.143 A 
HETATM   12  S   UNL     1      41.440  -9.947   6.793  1.00  0.00    -0.073 SA
HETATM   13  C   UNL     1      44.855 -12.043   6.810  1.00  0.00     0.041 C 
HETATM   14  C   UNL     1      45.830 -10.924   7.215  1.00  0.00     0.009 C 
ENDROOT
BRANCH  11  15
HETATM   15  N   UNL     1      43.169 -14.537   5.528  1.00  0.00    -0.340 N 
HETATM   16  H   UNL     1      43.902 -14.365   6.195  1.00  0.00     0.167 HD
BRANCH  15  17
HETATM   17  C   UNL     1      43.317 -15.765   4.853  1.00  0.00     0.036 A 
HETATM   18  C   UNL     1      43.619 -16.908   5.617  1.00  0.00     0.069 A 
HETATM   19  C   UNL     1      43.785 -18.118   4.974  1.00  0.00     0.107 A 
HETATM   20  C   UNL     1      43.675 -18.233   3.612  1.00  0.00     0.105 A 
HETATM   21  O   UNL     1      44.065 -19.305   5.576  1.00  0.00    -0.323 OA
HETATM   22  O   UNL     1      43.869 -19.507   3.179  1.00  0.00    -0.323 OA
HETATM   23  C   UNL     1      43.399 -17.144   2.821  1.00  0.00     0.042 A 
HETATM   24  C   UNL     1      44.115 -20.182   4.430  1.00  0.00     0.352 A 
HETATM   25  C   UNL     1      43.227 -15.904   3.451  1.00  0.00     0.032 A 
ENDBRANCH  15  17
ENDBRANCH  11  15
TORSDOF 2
ENDMDL
MODEL 6
REMARK VINA RESULT:      -7.8      4.924      6.814
REMARK  2 active torsions:
REMARK  status: ('A' for Active; 'I' for Inactive)
REMARK    1  A    between atoms: C_11  and  N_12 
REMARK    2  A    between atoms: N_12  and  C_13 
ROOT
HETATM    1  C   UNL     1      43.636 -17.501   2.617  1.00  0.00     0.010 C 
HETATM    2  C   UNL     1      42.341 -17.257   3.401  1.00  0.00    -0.014 C 
HETATM    3  C   UNL     1      41.210 -16.738   2.488  1.00  0.00     0.051 C 
HETATM    4  C   UNL     1      41.350 -15.265   2.240  1.00  0.00    -0.008 A 
HETATM    5  C   UNL     1      42.122 -14.384   2.979  1.00  0.00    -0.028 A 
HETATM    6  C   UNL     1      42.065 -13.033   2.435  1.00  0.00     0.053 A 
HETATM    7  C   UNL     1      41.186 -12.991   1.357  1.00  0.00     0.114 A 
HETATM    8  N   UNL     1      40.858 -11.918   0.622  1.00  0.00    -0.234 NA
HETATM    9  C   UNL     1      41.491 -10.819   1.022  1.00  0.00     0.236 A 
HETATM   10  N   UNL     1      42.377 -10.711   2.018  1.00  0.00    -0.223 NA
HETATM   11  C   UNL     1      42.707 -11.803   2.753  1.00  0.00     0.143 A 
HETATM   12  S   UNL     1      40.500 -14.504   0.985  1.00  0.00    -0.073 SA
HETATM   13  C   UNL     1      42.930 -14.866   4.151  1.00  0.00     0.041 C 
HETATM   14  C   UNL     1      42.561 -16.295   4.584  1.00  0.00     0.009 C 
ENDROOT
BRANCH  11  15
HETATM   15  N   UNL     1      43.642 -11.693   3.793  1.00  0.00    -0.340 N 
HETATM   16  H   UNL     1      44.583 -11.920   3.518  1.00  0.00     0.167 HD
BRANCH  15  17
HETATM   17  C   UNL     1      43.561 -11.166   5.096  1.00  0.00     0.036 A 
HETATM   18  C   UNL     1      44.629 -11.418   5.979  1.00  0.00     0.069 A 
HETATM   19  C   UNL     1      44.563 -10.926   7.267  1.00  0.00     0.107 A 
HETATM   20  C   UNL     1      43.482 -10.209   7.712  1.00  0.00     0.105 A 
HETATM   21  O   UNL     1      45.518 -11.076   8.224  1.00  0.00    -0.323 OA
HETATM   22  O   UNL     1      43.616  -9.813   9.005  1.00  0.00    -0.323 OA
HETATM   23  C   UNL     1      42.407  -9.952   6.895  1.00  0.00     0.042 A 
HETATM   24  C   UNL     1      44.910 -10.365   9.323  1.00  0.00     0.352 A 
HETATM   25  C   UNL     1      42.451 -10.442   5.582  1.00  0.00     0.032 A 
ENDBRANCH  15  17
ENDBRANCH  11  15
TORSDOF 2
ENDMDL
MODEL 7
REMARK VINA RESULT:      -7.6      4.040      7.824
REMARK  2 active torsions:
REMARK  status: ('A' for Active; 'I' for Inactive)
REMARK    1  A    between atoms: C_11  and  N_12 
REMARK    2  A    between atoms: N_12  and  C_13 
ROOT
HETATM    1  C   UNL     1      39.870  -8.834   0.906  1.00  0.00     0.010 C 
HETATM    2  C   UNL     1      41.280  -9.268   0.492  1.00  0.00    -0.014 C 
HETATM    3  C   UNL     1      41.370  -9.550  -1.022  1.00  0.00     0.051 C 
HETATM    4  C   UNL     1      40.842 -10.915  -1.350  1.00  0.00    -0.008 A 
HETATM    5  C   UNL     1      40.641 -11.949  -0.451  1.00  0.00    -0.028 A 
HETATM    6  C   UNL     1      40.072 -13.123  -1.100  1.00  0.00     0.053 A 
HETATM    7  C   UNL     1      39.956 -12.900  -2.469  1.00  0.00     0.114 A 
HETATM    8  N   UNL     1      39.498 -13.758  -3.392  1.00  0.00    -0.234 NA
HETATM    9  C   UNL     1      39.127 -14.920  -2.862  1.00  0.00     0.236 A 
HETATM   10  N   UNL     1      39.157 -15.268  -1.571  1.00  0.00    -0.223 NA
HETATM   11  C   UNL     1      39.616 -14.391  -0.643  1.00  0.00     0.143 A 
HETATM   12  S   UNL     1      40.457 -11.344  -2.945  1.00  0.00    -0.073 SA
HETATM   13  C   UNL     1      40.951 -11.769   1.009  1.00  0.00     0.041 C 
HETATM   14  C   UNL     1      41.760 -10.493   1.295  1.00  0.00     0.009 C 
ENDROOT
BRANCH  11  15
HETATM   15  N   UNL     1      39.640 -14.753   0.712  1.00  0.00    -0.340 N 
HETATM   16  H   UNL     1      38.731 -14.776   1.142  1.00  0.00     0.167 HD
BRANCH  15  17
HETATM   17  C   UNL     1      40.657 -15.253   1.548  1.00  0.00     0.036 A 
HETATM   18  C   UNL     1      40.316 -15.602   2.868  1.00  0.00     0.069 A 
HETATM   19  C   UNL     1      41.301 -16.079   3.710  1.00  0.00     0.107 A 
HETATM   20  C   UNL     1      42.603 -16.210   3.298  1.00  0.00     0.105 A 
HETATM   21  O   UNL     1      41.122 -16.467   5.002  1.00  0.00    -0.323 OA
HETATM   22  O   UNL     1      43.411 -16.699   4.275  1.00  0.00    -0.323 OA
HETATM   23  C   UNL     1      42.989 -15.865   2.025  1.00  0.00     0.042 A 
HETATM   24  C   UNL     1      42.466 -16.861   5.352  1.00  0.00     0.352 A 
HETATM   25  C   UNL     1      42.006 -15.378   1.152  1.00  0.00     0.032 A 
ENDBRANCH  15  17
ENDBRANCH  11  15
TORSDOF 2
ENDMDL
MODEL 8
REMARK VINA RESULT:      -7.6      2.587      4.273
REMARK  2 active torsions:
REMARK  status: ('A' for Active; 'I' for Inactive)
REMARK    1  A    between atoms: C_11  and  N_12 
REMARK    2  A    between atoms: N_12  and  C_13 
ROOT
HETATM    1  C   UNL     1      45.037 -11.958   6.400  1.00  0.00     0.010 C 
HETATM    2  C   UNL     1      43.609 -12.329   6.814  1.00  0.00    -0.014 C 
HETATM    3  C   UNL     1      43.476 -13.835   7.119  1.00  0.00     0.051 C 
HETATM    4  C   UNL     1      43.327 -14.631   5.856  1.00  0.00    -0.008 A 
HETATM    5  C   UNL     1      42.981 -14.129   4.612  1.00  0.00    -0.028 A 
HETATM    6  C   UNL     1      42.973 -15.172   3.595  1.00  0.00     0.053 A 
HETATM    7  C   UNL     1      43.249 -16.406   4.177  1.00  0.00     0.114 A 
HETATM    8  N   UNL     1      43.303 -17.596   3.561  1.00  0.00    -0.234 NA
HETATM    9  C   UNL     1      43.066 -17.501   2.256  1.00  0.00     0.236 A 
HETATM   10  N   UNL     1      42.813 -16.389   1.557  1.00  0.00    -0.223 NA
HETATM   11  C   UNL     1      42.767 -15.189   2.187  1.00  0.00     0.143 A 
HETATM   12  S   UNL     1      43.550 -16.312   5.849  1.00  0.00    -0.073 SA
HETATM   13  C   UNL     1      42.716 -12.661   4.423  1.00  0.00     0.041 C 
HETATM   14  C   UNL     1      42.577 -11.902   5.752  1.00  0.00     0.009 C 
ENDROOT
BRANCH  11  15
HETATM   15  N   UNL     1      42.510 -14.021   1.453  1.00  0.00    -0.340 N 
HETATM   16  H   UNL     1      43.339 -13.562   1.117  1.00  0.00     0.167 HD
BRANCH  15  17
HETATM   17  C   UNL     1      41.323 -13.453   0.948  1.00  0.00     0.036 A 
HETATM   18  C   UNL     1      40.708 -14.079  -0.152  1.00  0.00     0.069 A 
HETATM   19  C   UNL     1      39.553 -13.531  -0.674  1.00  0.00     0.107 A 
HETATM   20  C   UNL     1      38.998 -12.388  -0.156  1.00  0.00     0.105 A 
HETATM   21  O   UNL     1      38.842 -14.026  -1.722  1.00  0.00    -0.323 OA
HETATM   22  O   UNL     1      37.864 -12.018  -0.809  1.00  0.00    -0.323 OA
HETATM   23  C   UNL     1      39.571 -11.731   0.906  1.00  0.00     0.042 A 
HETATM   24  C   UNL     1      37.771 -13.062  -1.800  1.00  0.00     0.352 A 
HETATM   25  C   UNL     1      40.745 -12.269   1.452  1.00  0.00     0.032 A 
ENDBRANCH  15  17
ENDBRANCH  11  15
TORSDOF 2
ENDMDL
MODEL 9
REMARK VINA RESULT:      -7.6      3.703      7.052
REMARK  2 active torsions:
REMARK  status: ('A' for Active; 'I' for Inactive)
REMARK    1  A    between atoms: C_11  and  N_12 
REMARK    2  A    between atoms: N_12  and  C_13 
ROOT
HETATM    1  C   UNL     1      41.093 -12.703  -3.033  1.00  0.00     0.010 C 
HETATM    2  C   UNL     1      39.588 -12.962  -2.907  1.00  0.00    -0.014 C 
HETATM    3  C   UNL     1      38.882 -11.849  -2.105  1.00  0.00     0.051 C 
HETATM    4  C   UNL     1      39.052 -12.056  -0.629  1.00  0.00    -0.008 A 
HETATM    5  C   UNL     1      39.444 -13.232  -0.010  1.00  0.00    -0.028 A 
HETATM    6  C   UNL     1      39.553 -13.070   1.434  1.00  0.00     0.053 A 
HETATM    7  C   UNL     1      39.160 -11.786   1.799  1.00  0.00     0.114 A 
HETATM    8  N   UNL     1      39.104 -11.279   3.039  1.00  0.00    -0.234 NA
HETATM    9  C   UNL     1      39.490 -12.156   3.961  1.00  0.00     0.236 A 
HETATM   10  N   UNL     1      39.916 -13.408   3.761  1.00  0.00    -0.223 NA
HETATM   11  C   UNL     1      39.975 -13.910   2.502  1.00  0.00     0.143 A 
HETATM   12  S   UNL     1      38.729 -10.808   0.473  1.00  0.00    -0.073 SA
HETATM   13  C   UNL     1      39.750 -14.461  -0.820  1.00  0.00     0.041 C 
HETATM   14  C   UNL     1      39.295 -14.341  -2.284  1.00  0.00     0.009 C 
ENDROOT
BRANCH  11  15
HETATM   15  N   UNL     1      40.428 -15.221   2.290  1.00  0.00    -0.340 N 
HETATM   16  H   UNL     1      40.083 -15.637   1.442  1.00  0.00     0.167 HD
BRANCH  15  17
HETATM   17  C   UNL     1      41.400 -16.010   2.935  1.00  0.00     0.036 A 
HETATM   18  C   UNL     1      41.353 -16.101   4.339  1.00  0.00     0.069 A 
HETATM   19  C   UNL     1      42.306 -16.855   4.993  1.00  0.00     0.107 A 
HETATM   20  C   UNL     1      43.303 -17.507   4.314  1.00  0.00     0.105 A 
HETATM   21  O   UNL     1      42.381 -17.046   6.338  1.00  0.00    -0.323 OA
HETATM   22  O   UNL     1      44.133 -18.195   5.141  1.00  0.00    -0.323 OA
HETATM   23  C   UNL     1      43.403 -17.434   2.945  1.00  0.00     0.042 A 
HETATM   24  C   UNL     1      43.543 -17.899   6.423  1.00  0.00     0.352 A 
HETATM   25  C   UNL     1      42.446 -16.674   2.258  1.00  0.00     0.032 A 
ENDBRANCH  15  17
ENDBRANCH  11  15
TORSDOF 2
ENDMDL
MODEL 10
REMARK VINA RESULT:      -7.5     14.295     16.322
REMARK  2 active torsions:
REMARK  status: ('A' for Active; 'I' for Inactive)
REMARK    1  A    between atoms: C_11  and  N_12 
REMARK    2  A    between atoms: N_12  and  C_13 
ROOT
HETATM    1  C   UNL     1      50.840 -33.220  -1.949  1.00  0.00     0.010 C 
HETATM    2  C   UNL     1      51.827 -32.118  -1.548  1.00  0.00    -0.014 C 
HETATM    3  C   UNL     1      51.822 -31.874  -0.024  1.00  0.00     0.051 C 
HETATM    4  C   UNL     1      50.669 -31.003   0.380  1.00  0.00    -0.008 A 
HETATM    5  C   UNL     1      49.914 -30.207  -0.465  1.00  0.00    -0.028 A 
HETATM    6  C   UNL     1      48.842 -29.528   0.251  1.00  0.00     0.053 A 
HETATM    7  C   UNL     1      48.921 -29.817   1.610  1.00  0.00     0.114 A 
HETATM    8  N   UNL     1      48.121 -29.356   2.583  1.00  0.00    -0.234 NA
HETATM    9  C   UNL     1      47.171 -28.551   2.116  1.00  0.00     0.236 A 
HETATM   10  N   UNL     1      46.956 -28.204   0.843  1.00  0.00    -0.223 NA
HETATM   11  C   UNL     1      47.766 -28.681  -0.135  1.00  0.00     0.143 A 
HETATM   12  S   UNL     1      50.187 -30.886   2.001  1.00  0.00    -0.073 SA
HETATM   13  C   UNL     1      50.208 -30.155  -1.939  1.00  0.00     0.041 C 
HETATM   14  C   UNL     1      51.554 -30.803  -2.303  1.00  0.00     0.009 C 
ENDROOT
BRANCH  11  15
HETATM   15  N   UNL     1      47.536 -28.323  -1.473  1.00  0.00    -0.340 N 
HETATM   16  H   UNL     1      48.257 -27.743  -1.867  1.00  0.00     0.167 HD
BRANCH  15  17
HETATM   17  C   UNL     1      46.590 -28.750  -2.425  1.00  0.00     0.036 A 
HETATM   18  C   UNL     1      46.681 -30.071  -2.901  1.00  0.00     0.069 A 
HETATM   19  C   UNL     1      45.774 -30.505  -3.847  1.00  0.00     0.107 A 
HETATM   20  C   UNL     1      44.796 -29.681  -4.343  1.00  0.00     0.105 A 
HETATM   21  O   UNL     1      45.728 -31.752  -4.390  1.00  0.00    -0.323 OA
HETATM   22  O   UNL     1      44.006 -30.301  -5.259  1.00  0.00    -0.323 OA
HETATM   23  C   UNL     1      44.677 -28.378  -3.923  1.00  0.00     0.042 A 
HETATM   24  C   UNL     1      44.602 -31.614  -5.283  1.00  0.00     0.352 A 
HETATM   25  C   UNL     1      45.588 -27.914  -2.963  1.00  0.00     0.032 A 
ENDBRANCH  15  17
ENDBRANCH  11  15
TORSDOF 2
ENDMDL
