MODEL 1
REMARK VINA RESULT:      -8.3      0.000      0.000
REMARK  5 active torsions:
REMARK  status: ('A' for Active; 'I' for Inactive)
REMARK    1  A    between atoms: C_7  and  C_8 
REMARK    2  A    between atoms: N_9  and  N_10 
REMARK       I    between atoms: N_10  and  C_11 
REMARK    3  A    between atoms: C_11  and  C_12 
REMARK    4  A    between atoms: C_12  and  O_13 
REMARK    5  A    between atoms: O_13  and  C_14 
ROOT
HETATM    1  C   UNL     1      42.295 -15.793   2.770  1.00  0.00     0.153 C 
HETATM    2  N   UNL     1      42.952 -15.073   1.915  1.00  0.00    -0.184 NA
ENDROOT
BRANCH   2   3
HETATM    3  N   UNL     1      42.240 -14.235   1.086  1.00  0.00    -0.246 N 
HETATM    4  C   UNL     1      41.713 -12.994   1.431  1.00  0.00     0.261 C 
HETATM    5  O   UNL     1      41.871 -12.413   2.504  1.00  0.00    -0.269 OA
HETATM    6  H   UNL     1      41.813 -14.701   0.287  1.00  0.00     0.192 HD
BRANCH   4   7
HETATM    7  C   UNL     1      40.959 -12.328   0.285  1.00  0.00     0.280 C 
BRANCH   7   8
HETATM    8  O   UNL     1      39.572 -12.646   0.304  1.00  0.00    -0.342 OA
BRANCH   8   9
HETATM    9  C   UNL     1      39.085 -13.232  -0.836  1.00  0.00     0.069 A 
HETATM   10  C   UNL     1      38.054 -12.534  -1.468  1.00  0.00     0.037 A 
HETATM   11  C   UNL     1      37.479 -13.026  -2.642  1.00  0.00     0.003 A 
HETATM   12  C   UNL     1      37.928 -14.228  -3.185  1.00  0.00     0.000 A 
HETATM   13  C   UNL     1      38.947 -14.936  -2.554  1.00  0.00     0.003 A 
HETATM   14  C   UNL     1      39.523 -14.442  -1.380  1.00  0.00     0.037 A 
ENDBRANCH   8   9
ENDBRANCH   7   8
ENDBRANCH   4   7
ENDBRANCH   2   3
BRANCH   1  15
HETATM   15  C   UNL     1      42.983 -16.734   3.639  1.00  0.00     0.018 A 
HETATM   16  C   UNL     1      43.510 -16.505   4.902  1.00  0.00     0.018 A 
HETATM   17  C   UNL     1      43.540 -15.280   5.745  1.00  0.00     0.069 C 
HETATM   18  N   UNL     1      44.060 -17.683   5.344  1.00  0.00    -0.358 N 
HETATM   19  H   UNL     1      44.518 -17.812   6.236  1.00  0.00     0.166 HD
HETATM   20  C   UNL     1      43.906 -18.676   4.407  1.00  0.00     0.043 A 
HETATM   21  C   UNL     1      43.235 -18.112   3.324  1.00  0.00     0.004 A 
HETATM   22  C   UNL     1      44.311 -20.016   4.436  1.00  0.00     0.030 A 
HETATM   23  C   UNL     1      42.962 -18.932   2.207  1.00  0.00     0.014 A 
HETATM   24  C   UNL     1      43.362 -20.273   2.216  1.00  0.00     0.001 A 
HETATM   25  C   UNL     1      44.025 -20.806   3.318  1.00  0.00     0.002 A 
ENDBRANCH   1  15
TORSDOF 5
ENDMDL
MODEL 2
REMARK VINA RESULT:      -8.2      0.944      1.366
REMARK  5 active torsions:
REMARK  status: ('A' for Active; 'I' for Inactive)
REMARK    1  A    between atoms: C_7  and  C_8 
REMARK    2  A    between atoms: N_9  and  N_10 
REMARK       I    between atoms: N_10  and  C_11 
REMARK    3  A    between atoms: C_11  and  C_12 
REMARK    4  A    between atoms: C_12  and  O_13 
REMARK    5  A    between atoms: O_13  and  C_14 
ROOT
HETATM    1  C   UNL     1      42.953 -15.672   2.948  1.00  0.00     0.153 C 
HETATM    2  N   UNL     1      41.743 -15.209   2.984  1.00  0.00    -0.184 NA
ENDROOT
BRANCH   2   3
HETATM    3  N   UNL     1      41.414 -14.178   2.132  1.00  0.00    -0.246 N 
HETATM    4  C   UNL     1      40.270 -13.390   2.203  1.00  0.00     0.261 C 
HETATM    5  O   UNL     1      39.414 -13.433   3.085  1.00  0.00    -0.269 OA
HETATM    6  H   UNL     1      41.880 -14.220   1.227  1.00  0.00     0.192 HD
BRANCH   4   7
HETATM    7  C   UNL     1      40.197 -12.345   1.093  1.00  0.00     0.280 C 
BRANCH   7   8
HETATM    8  O   UNL     1      40.660 -12.858  -0.151  1.00  0.00    -0.342 OA
BRANCH   8   9
HETATM    9  C   UNL     1      39.683 -13.150  -1.069  1.00  0.00     0.069 A 
HETATM   10  C   UNL     1      39.918 -14.287  -1.845  1.00  0.00     0.037 A 
HETATM   11  C   UNL     1      38.993 -14.691  -2.810  1.00  0.00     0.003 A 
HETATM   12  C   UNL     1      37.830 -13.951  -3.012  1.00  0.00     0.000 A 
HETATM   13  C   UNL     1      37.595 -12.808  -2.252  1.00  0.00     0.003 A 
HETATM   14  C   UNL     1      38.520 -12.405  -1.284  1.00  0.00     0.037 A 
ENDBRANCH   8   9
ENDBRANCH   7   8
ENDBRANCH   4   7
ENDBRANCH   2   3
BRANCH   1  15
HETATM   15  C   UNL     1      43.377 -16.725   3.857  1.00  0.00     0.018 A 
HETATM   16  C   UNL     1      43.745 -16.607   5.190  1.00  0.00     0.018 A 
HETATM   17  C   UNL     1      43.819 -15.423   6.086  1.00  0.00     0.069 C 
HETATM   18  N   UNL     1      44.063 -17.863   5.647  1.00  0.00    -0.358 N 
HETATM   19  H   UNL     1      44.367 -18.079   6.586  1.00  0.00     0.166 HD
HETATM   20  C   UNL     1      43.911 -18.797   4.651  1.00  0.00     0.043 A 
HETATM   21  C   UNL     1      43.484 -18.115   3.514  1.00  0.00     0.004 A 
HETATM   22  C   UNL     1      44.124 -20.181   4.672  1.00  0.00     0.030 A 
HETATM   23  C   UNL     1      43.264 -18.856   2.332  1.00  0.00     0.014 A 
HETATM   24  C   UNL     1      43.474 -20.240   2.333  1.00  0.00     0.001 A 
HETATM   25  C   UNL     1      43.896 -20.892   3.488  1.00  0.00     0.002 A 
ENDBRANCH   1  15
TORSDOF 5
ENDMDL
MODEL 3
REMARK VINA RESULT:      -8.0      5.566      9.365
REMARK  5 active torsions:
REMARK  status: ('A' for Active; 'I' for Inactive)
REMARK    1  A    between atoms: C_7  and  C_8 
REMARK    2  A    between atoms: N_9  and  N_10 
REMARK       I    between atoms: N_10  and  C_11 
REMARK    3  A    between atoms: C_11  and  C_12 
REMARK    4  A    between atoms: C_12  and  O_13 
REMARK    5  A    between atoms: O_13  and  C_14 
ROOT
HETATM    1  C   UNL     1      42.917 -14.388   6.505  1.00  0.00     0.153 C 
HETATM    2  N   UNL     1      43.851 -13.506   6.677  1.00  0.00    -0.184 NA
ENDROOT
BRANCH   2   3
HETATM    3  N   UNL     1      43.613 -12.465   7.546  1.00  0.00    -0.246 N 
HETATM    4  C   UNL     1      44.502 -11.444   7.866  1.00  0.00     0.261 C 
HETATM    5  O   UNL     1      45.608 -11.262   7.360  1.00  0.00    -0.269 OA
HETATM    6  H   UNL     1      42.869 -12.645   8.220  1.00  0.00     0.192 HD
BRANCH   4   7
HETATM    7  C   UNL     1      43.934 -10.456   8.881  1.00  0.00     0.280 C 
BRANCH   7   8
HETATM    8  O   UNL     1      43.927 -10.993  10.199  1.00  0.00    -0.342 OA
BRANCH   8   9
HETATM    9  C   UNL     1      43.558 -10.120  11.189  1.00  0.00     0.069 A 
HETATM   10  C   UNL     1      42.748 -10.664  12.189  1.00  0.00     0.037 A 
HETATM   11  C   UNL     1      42.311  -9.875  13.256  1.00  0.00     0.003 A 
HETATM   12  C   UNL     1      42.673  -8.531  13.322  1.00  0.00     0.000 A 
HETATM   13  C   UNL     1      43.469  -7.979  12.322  1.00  0.00     0.003 A 
HETATM   14  C   UNL     1      43.909  -8.769  11.255  1.00  0.00     0.037 A 
ENDBRANCH   8   9
ENDBRANCH   7   8
ENDBRANCH   4   7
ENDBRANCH   2   3
BRANCH   1  15
HETATM   15  C   UNL     1      43.087 -15.483   5.564  1.00  0.00     0.018 A 
HETATM   16  C   UNL     1      43.294 -16.827   5.842  1.00  0.00     0.018 A 
HETATM   17  C   UNL     1      43.401 -17.555   7.134  1.00  0.00     0.069 C 
HETATM   18  N   UNL     1      43.392 -17.490   4.644  1.00  0.00    -0.358 N 
HETATM   19  H   UNL     1      43.545 -18.484   4.541  1.00  0.00     0.166 HD
HETATM   20  C   UNL     1      43.253 -16.619   3.590  1.00  0.00     0.043 A 
HETATM   21  C   UNL     1      43.062 -15.351   4.134  1.00  0.00     0.004 A 
HETATM   22  C   UNL     1      43.286 -16.858   2.211  1.00  0.00     0.030 A 
HETATM   23  C   UNL     1      42.904 -14.261   3.250  1.00  0.00     0.014 A 
HETATM   24  C   UNL     1      42.937 -14.479   1.868  1.00  0.00     0.001 A 
HETATM   25  C   UNL     1      43.123 -15.761   1.358  1.00  0.00     0.002 A 
ENDBRANCH   1  15
TORSDOF 5
ENDMDL
MODEL 4
REMARK VINA RESULT:      -7.8      1.991      8.018
REMARK  5 active torsions:
REMARK  status: ('A' for Active; 'I' for Inactive)
REMARK    1  A    between atoms: C_7  and  C_8 
REMARK    2  A    between atoms: N_9  and  N_10 
REMARK       I    between atoms: N_10  and  C_11 
REMARK    3  A    between atoms: C_11  and  C_12 
REMARK    4  A    between atoms: C_12  and  O_13 
REMARK    5  A    between atoms: O_13  and  C_14 
ROOT
HETATM    1  C   UNL     1      40.600 -13.833   1.415  1.00  0.00     0.153 C 
HETATM    2  N   UNL     1      40.304 -14.938   2.024  1.00  0.00    -0.184 NA
ENDROOT
BRANCH   2   3
HETATM    3  N   UNL     1      41.286 -15.559   2.763  1.00  0.00    -0.246 N 
HETATM    4  C   UNL     1      41.493 -15.421   4.132  1.00  0.00     0.261 C 
HETATM    5  O   UNL     1      40.781 -14.791   4.912  1.00  0.00    -0.269 OA
HETATM    6  H   UNL     1      42.085 -15.875   2.214  1.00  0.00     0.192 HD
BRANCH   4   7
HETATM    7  C   UNL     1      42.682 -16.231   4.639  1.00  0.00     0.280 C 
BRANCH   7   8
HETATM    8  O   UNL     1      43.441 -16.788   3.571  1.00  0.00    -0.342 OA
BRANCH   8   9
HETATM    9  C   UNL     1      43.602 -18.149   3.610  1.00  0.00     0.069 A 
HETATM   10  C   UNL     1      43.282 -18.819   2.427  1.00  0.00     0.037 A 
HETATM   11  C   UNL     1      43.412 -20.207   2.340  1.00  0.00     0.003 A 
HETATM   12  C   UNL     1      43.852 -20.935   3.443  1.00  0.00     0.000 A 
HETATM   13  C   UNL     1      44.160 -20.276   4.630  1.00  0.00     0.003 A 
HETATM   14  C   UNL     1      44.033 -18.886   4.716  1.00  0.00     0.037 A 
ENDBRANCH   8   9
ENDBRANCH   7   8
ENDBRANCH   4   7
ENDBRANCH   2   3
BRANCH   1  15
HETATM   15  C   UNL     1      39.623 -13.156   0.579  1.00  0.00     0.018 A 
HETATM   16  C   UNL     1      38.946 -11.972   0.841  1.00  0.00     0.018 A 
HETATM   17  C   UNL     1      38.997 -11.051   2.007  1.00  0.00     0.069 C 
HETATM   18  N   UNL     1      38.130 -11.713  -0.233  1.00  0.00    -0.358 N 
HETATM   19  H   UNL     1      37.517 -10.914  -0.316  1.00  0.00     0.166 HD
HETATM   20  C   UNL     1      38.257 -12.690  -1.190  1.00  0.00     0.043 A 
HETATM   21  C   UNL     1      39.185 -13.612  -0.711  1.00  0.00     0.004 A 
HETATM   22  C   UNL     1      37.621 -12.828  -2.430  1.00  0.00     0.030 A 
HETATM   23  C   UNL     1      39.487 -14.735  -1.511  1.00  0.00     0.014 A 
HETATM   24  C   UNL     1      38.859 -14.891  -2.752  1.00  0.00     0.001 A 
HETATM   25  C   UNL     1      37.941 -13.948  -3.204  1.00  0.00     0.002 A 
ENDBRANCH   1  15
TORSDOF 5
ENDMDL
MODEL 5
REMARK VINA RESULT:      -7.7      4.369      8.389
REMARK  5 active torsions:
REMARK  status: ('A' for Active; 'I' for Inactive)
REMARK    1  A    between atoms: C_7  and  C_8 
REMARK    2  A    between atoms: N_9  and  N_10 
REMARK       I    between atoms: N_10  and  C_11 
REMARK    3  A    between atoms: C_11  and  C_12 
REMARK    4  A    between atoms: C_12  and  O_13 
REMARK    5  A    between atoms: O_13  and  C_14 
ROOT
HETATM    1  C   UNL     1      43.089 -12.375   5.372  1.00  0.00     0.153 C 
HETATM    2  N   UNL     1      42.919 -13.593   5.782  1.00  0.00    -0.184 NA
ENDROOT
BRANCH   2   3
HETATM    3  N   UNL     1      42.932 -14.603   4.847  1.00  0.00    -0.246 N 
HETATM    4  C   UNL     1      41.830 -15.338   4.418  1.00  0.00     0.261 C 
HETATM    5  O   UNL     1      40.660 -15.144   4.742  1.00  0.00    -0.269 OA
HETATM    6  H   UNL     1      43.845 -15.037   4.713  1.00  0.00     0.192 HD
BRANCH   4   7
HETATM    7  C   UNL     1      42.189 -16.401   3.385  1.00  0.00     0.280 C 
BRANCH   7   8
HETATM    8  O   UNL     1      43.527 -16.862   3.540  1.00  0.00    -0.342 OA
BRANCH   8   9
HETATM    9  C   UNL     1      43.675 -18.223   3.630  1.00  0.00     0.069 A 
HETATM   10  C   UNL     1      43.406 -18.928   2.455  1.00  0.00     0.037 A 
HETATM   11  C   UNL     1      43.528 -20.319   2.419  1.00  0.00     0.003 A 
HETATM   12  C   UNL     1      43.910 -21.014   3.564  1.00  0.00     0.000 A 
HETATM   13  C   UNL     1      44.166 -20.319   4.743  1.00  0.00     0.003 A 
HETATM   14  C   UNL     1      44.047 -18.926   4.778  1.00  0.00     0.037 A 
ENDBRANCH   8   9
ENDBRANCH   7   8
ENDBRANCH   4   7
ENDBRANCH   2   3
BRANCH   1  15
HETATM   15  C   UNL     1      43.036 -11.259   6.302  1.00  0.00     0.018 A 
HETATM   16  C   UNL     1      41.923 -10.533   6.704  1.00  0.00     0.018 A 
HETATM   17  C   UNL     1      40.487 -10.654   6.336  1.00  0.00     0.069 C 
HETATM   18  N   UNL     1      42.348  -9.579   7.596  1.00  0.00    -0.358 N 
HETATM   19  H   UNL     1      41.751  -8.904   8.053  1.00  0.00     0.166 HD
HETATM   20  C   UNL     1      43.706  -9.662   7.790  1.00  0.00     0.043 A 
HETATM   21  C   UNL     1      44.168 -10.706   6.991  1.00  0.00     0.004 A 
HETATM   22  C   UNL     1      44.551  -8.896   8.602  1.00  0.00     0.030 A 
HETATM   23  C   UNL     1      45.550 -10.992   6.998  1.00  0.00     0.014 A 
HETATM   24  C   UNL     1      46.411 -10.235   7.801  1.00  0.00     0.001 A 
HETATM   25  C   UNL     1      45.915  -9.203   8.593  1.00  0.00     0.002 A 
ENDBRANCH   1  15
TORSDOF 5
ENDMDL
MODEL 6
REMARK VINA RESULT:      -7.6      5.306      9.022
REMARK  5 active torsions:
REMARK  status: ('A' for Active; 'I' for Inactive)
REMARK    1  A    between atoms: C_7  and  C_8 
REMARK    2  A    between atoms: N_9  and  N_10 
REMARK       I    between atoms: N_10  and  C_11 
REMARK    3  A    between atoms: C_11  and  C_12 
REMARK    4  A    between atoms: C_12  and  O_13 
REMARK    5  A    between atoms: O_13  and  C_14 
ROOT
HETATM    1  C   UNL     1      42.798 -13.647   5.993  1.00  0.00     0.153 C 
HETATM    2  N   UNL     1      43.746 -12.766   5.927  1.00  0.00    -0.184 NA
ENDROOT
BRANCH   2   3
HETATM    3  N   UNL     1      43.957 -11.952   7.017  1.00  0.00    -0.246 N 
HETATM    4  C   UNL     1      45.137 -11.281   7.324  1.00  0.00     0.261 C 
HETATM    5  O   UNL     1      46.149 -11.240   6.627  1.00  0.00    -0.269 OA
HETATM    6  H   UNL     1      43.316 -12.117   7.792  1.00  0.00     0.192 HD
BRANCH   4   7
HETATM    7  C   UNL     1      45.045 -10.477   8.618  1.00  0.00     0.280 C 
BRANCH   7   8
HETATM    8  O   UNL     1      44.360 -11.191   9.641  1.00  0.00    -0.342 OA
BRANCH   8   9
HETATM    9  C   UNL     1      43.855 -10.423  10.658  1.00  0.00     0.069 A 
HETATM   10  C   UNL     1      43.910  -9.044  10.445  1.00  0.00     0.037 A 
HETATM   11  C   UNL     1      43.420  -8.157  11.406  1.00  0.00     0.003 A 
HETATM   12  C   UNL     1      42.882  -8.646  12.594  1.00  0.00     0.000 A 
HETATM   13  C   UNL     1      42.836 -10.020  12.820  1.00  0.00     0.003 A 
HETATM   14  C   UNL     1      43.324 -10.908  11.856  1.00  0.00     0.037 A 
ENDBRANCH   8   9
ENDBRANCH   7   8
ENDBRANCH   4   7
ENDBRANCH   2   3
BRANCH   1  15
HETATM   15  C   UNL     1      42.492 -14.502   4.858  1.00  0.00     0.018 A 
HETATM   16  C   UNL     1      41.597 -14.263   3.824  1.00  0.00     0.018 A 
HETATM   17  C   UNL     1      40.702 -13.109   3.549  1.00  0.00     0.069 C 
HETATM   18  N   UNL     1      41.644 -15.342   2.975  1.00  0.00    -0.358 N 
HETATM   19  H   UNL     1      41.095 -15.442   2.133  1.00  0.00     0.166 HD
HETATM   20  C   UNL     1      42.546 -16.277   3.423  1.00  0.00     0.043 A 
HETATM   21  C   UNL     1      43.094 -15.781   4.603  1.00  0.00     0.004 A 
HETATM   22  C   UNL     1      42.909 -17.515   2.878  1.00  0.00     0.030 A 
HETATM   23  C   UNL     1      44.051 -16.569   5.279  1.00  0.00     0.014 A 
HETATM   24  C   UNL     1      44.425 -17.810   4.752  1.00  0.00     0.001 A 
HETATM   25  C   UNL     1      43.862 -18.273   3.566  1.00  0.00     0.002 A 
ENDBRANCH   1  15
TORSDOF 5
ENDMDL
MODEL 7
REMARK VINA RESULT:      -7.3      5.746      9.350
REMARK  5 active torsions:
REMARK  status: ('A' for Active; 'I' for Inactive)
REMARK    1  A    between atoms: C_7  and  C_8 
REMARK    2  A    between atoms: N_9  and  N_10 
REMARK       I    between atoms: N_10  and  C_11 
REMARK    3  A    between atoms: C_11  and  C_12 
REMARK    4  A    between atoms: C_12  and  O_13 
REMARK    5  A    between atoms: O_13  and  C_14 
ROOT
HETATM    1  C   UNL     1      42.799 -13.033   5.818  1.00  0.00     0.153 C 
HETATM    2  N   UNL     1      43.842 -12.645   6.483  1.00  0.00    -0.184 NA
ENDROOT
BRANCH   2   3
HETATM    3  N   UNL     1      43.655 -12.132   7.747  1.00  0.00    -0.246 N 
HETATM    4  C   UNL     1      44.114 -10.902   8.209  1.00  0.00     0.261 C 
HETATM    5  O   UNL     1      44.686 -10.044   7.539  1.00  0.00    -0.269 OA
HETATM    6  H   UNL     1      43.449 -12.834   8.457  1.00  0.00     0.192 HD
BRANCH   4   7
HETATM    7  C   UNL     1      43.754 -10.643   9.669  1.00  0.00     0.280 C 
BRANCH   7   8
HETATM    8  O   UNL     1      42.765  -9.628   9.801  1.00  0.00    -0.342 OA
BRANCH   8   9
HETATM    9  C   UNL     1      42.177  -9.535  11.036  1.00  0.00     0.069 A 
HETATM   10  C   UNL     1      43.041  -9.199  12.081  1.00  0.00     0.037 A 
HETATM   11  C   UNL     1      42.560  -9.067  13.385  1.00  0.00     0.003 A 
HETATM   12  C   UNL     1      41.211  -9.283  13.654  1.00  0.00     0.000 A 
HETATM   13  C   UNL     1      40.345  -9.632  12.621  1.00  0.00     0.003 A 
HETATM   14  C   UNL     1      40.827  -9.761  11.314  1.00  0.00     0.037 A 
ENDBRANCH   8   9
ENDBRANCH   7   8
ENDBRANCH   4   7
ENDBRANCH   2   3
BRANCH   1  15
HETATM   15  C   UNL     1      42.924 -13.536   4.460  1.00  0.00     0.018 A 
HETATM   16  C   UNL     1      42.958 -12.809   3.278  1.00  0.00     0.018 A 
HETATM   17  C   UNL     1      42.884 -11.346   3.024  1.00  0.00     0.069 C 
HETATM   18  N   UNL     1      43.093 -13.703   2.243  1.00  0.00    -0.358 N 
HETATM   19  H   UNL     1      43.144 -13.454   1.265  1.00  0.00     0.166 HD
HETATM   20  C   UNL     1      43.151 -14.991   2.715  1.00  0.00     0.043 A 
HETATM   21  C   UNL     1      43.046 -14.922   4.102  1.00  0.00     0.004 A 
HETATM   22  C   UNL     1      43.282 -16.202   2.023  1.00  0.00     0.030 A 
HETATM   23  C   UNL     1      43.065 -16.128   4.836  1.00  0.00     0.014 A 
HETATM   24  C   UNL     1      43.193 -17.348   4.162  1.00  0.00     0.001 A 
HETATM   25  C   UNL     1      43.301 -17.381   2.775  1.00  0.00     0.002 A 
ENDBRANCH   1  15
TORSDOF 5
ENDMDL
MODEL 8
REMARK VINA RESULT:      -7.2      2.295      8.769
REMARK  5 active torsions:
REMARK  status: ('A' for Active; 'I' for Inactive)
REMARK    1  A    between atoms: C_7  and  C_8 
REMARK    2  A    between atoms: N_9  and  N_10 
REMARK       I    between atoms: N_10  and  C_11 
REMARK    3  A    between atoms: C_11  and  C_12 
REMARK    4  A    between atoms: C_12  and  O_13 
REMARK    5  A    between atoms: O_13  and  C_14 
ROOT
HETATM    1  C   UNL     1      40.499 -13.649   0.293  1.00  0.00     0.153 C 
HETATM    2  N   UNL     1      40.348 -14.713   1.017  1.00  0.00    -0.184 NA
ENDROOT
BRANCH   2   3
HETATM    3  N   UNL     1      41.465 -15.269   1.600  1.00  0.00    -0.246 N 
HETATM    4  C   UNL     1      41.771 -15.263   2.958  1.00  0.00     0.261 C 
HETATM    5  O   UNL     1      41.052 -14.836   3.860  1.00  0.00    -0.269 OA
HETATM    6  H   UNL     1      42.248 -15.401   0.961  1.00  0.00     0.192 HD
BRANCH   4   7
HETATM    7  C   UNL     1      43.097 -15.947   3.273  1.00  0.00     0.280 C 
BRANCH   7   8
HETATM    8  O   UNL     1      43.340 -17.058   2.416  1.00  0.00    -0.342 OA
BRANCH   8   9
HETATM    9  C   UNL     1      43.580 -18.250   3.050  1.00  0.00     0.069 A 
HETATM   10  C   UNL     1      43.384 -19.389   2.266  1.00  0.00     0.037 A 
HETATM   11  C   UNL     1      43.602 -20.662   2.796  1.00  0.00     0.003 A 
HETATM   12  C   UNL     1      44.009 -20.803   4.121  1.00  0.00     0.000 A 
HETATM   13  C   UNL     1      44.194 -19.673   4.913  1.00  0.00     0.003 A 
HETATM   14  C   UNL     1      43.978 -18.398   4.381  1.00  0.00     0.037 A 
ENDBRANCH   8   9
ENDBRANCH   7   8
ENDBRANCH   4   7
ENDBRANCH   2   3
BRANCH   1  15
HETATM   15  C   UNL     1      39.368 -13.044  -0.391  1.00  0.00     0.018 A 
HETATM   16  C   UNL     1      38.788 -13.430  -1.591  1.00  0.00     0.018 A 
HETATM   17  C   UNL     1      39.116 -14.537  -2.528  1.00  0.00     0.069 C 
HETATM   18  N   UNL     1      37.744 -12.573  -1.843  1.00  0.00    -0.358 N 
HETATM   19  H   UNL     1      37.141 -12.616  -2.653  1.00  0.00     0.166 HD
HETATM   20  C   UNL     1      37.624 -11.641  -0.841  1.00  0.00     0.043 A 
HETATM   21  C   UNL     1      38.629 -11.908   0.085  1.00  0.00     0.004 A 
HETATM   22  C   UNL     1      36.712 -10.589  -0.691  1.00  0.00     0.030 A 
HETATM   23  C   UNL     1      38.732 -11.073   1.219  1.00  0.00     0.014 A 
HETATM   24  C   UNL     1      37.832 -10.015   1.385  1.00  0.00     0.001 A 
HETATM   25  C   UNL     1      36.835  -9.780   0.443  1.00  0.00     0.002 A 
ENDBRANCH   1  15
TORSDOF 5
ENDMDL
MODEL 9
REMARK VINA RESULT:      -7.0     14.263     16.053
REMARK  5 active torsions:
REMARK  status: ('A' for Active; 'I' for Inactive)
REMARK    1  A    between atoms: C_7  and  C_8 
REMARK    2  A    between atoms: N_9  and  N_10 
REMARK       I    between atoms: N_10  and  C_11 
REMARK    3  A    between atoms: C_11  and  C_12 
REMARK    4  A    between atoms: C_12  and  O_13 
REMARK    5  A    between atoms: O_13  and  C_14 
ROOT
HETATM    1  C   UNL     1      48.343 -29.902  -1.062  1.00  0.00     0.153 C 
HETATM    2  N   UNL     1      48.174 -28.706  -1.533  1.00  0.00    -0.184 NA
ENDROOT
BRANCH   2   3
HETATM    3  N   UNL     1      47.213 -28.517  -2.502  1.00  0.00    -0.246 N 
HETATM    4  C   UNL     1      45.893 -28.135  -2.284  1.00  0.00     0.261 C 
HETATM    5  O   UNL     1      45.398 -27.825  -1.202  1.00  0.00    -0.269 OA
HETATM    6  H   UNL     1      47.407 -28.995  -3.381  1.00  0.00     0.192 HD
BRANCH   4   7
HETATM    7  C   UNL     1      45.082 -28.035  -3.572  1.00  0.00     0.280 C 
BRANCH   7   8
HETATM    8  O   UNL     1      43.912 -28.844  -3.530  1.00  0.00    -0.342 OA
BRANCH   8   9
HETATM    9  C   UNL     1      44.019 -30.068  -4.140  1.00  0.00     0.069 A 
HETATM   10  C   UNL     1      44.149 -31.154  -3.272  1.00  0.00     0.037 A 
HETATM   11  C   UNL     1      44.259 -32.454  -3.773  1.00  0.00     0.003 A 
HETATM   12  C   UNL     1      44.252 -32.672  -5.149  1.00  0.00     0.000 A 
HETATM   13  C   UNL     1      44.136 -31.592  -6.021  1.00  0.00     0.003 A 
HETATM   14  C   UNL     1      44.023 -30.292  -5.519  1.00  0.00     0.037 A 
ENDBRANCH   8   9
ENDBRANCH   7   8
ENDBRANCH   4   7
ENDBRANCH   2   3
BRANCH   1  15
HETATM   15  C   UNL     1      49.375 -30.177  -0.075  1.00  0.00     0.018 A 
HETATM   16  C   UNL     1      50.644 -30.699  -0.286  1.00  0.00     0.018 A 
HETATM   17  C   UNL     1      51.334 -31.125  -1.532  1.00  0.00     0.069 C 
HETATM   18  N   UNL     1      51.269 -30.778   0.934  1.00  0.00    -0.358 N 
HETATM   19  H   UNL     1      52.207 -31.124   1.084  1.00  0.00     0.166 HD
HETATM   20  C   UNL     1      50.447 -30.322   1.935  1.00  0.00     0.043 A 
HETATM   21  C   UNL     1      49.249 -29.938   1.335  1.00  0.00     0.004 A 
HETATM   22  C   UNL     1      50.670 -30.225   3.314  1.00  0.00     0.030 A 
HETATM   23  C   UNL     1      48.218 -29.439   2.160  1.00  0.00     0.014 A 
HETATM   24  C   UNL     1      48.422 -29.338   3.541  1.00  0.00     0.001 A 
HETATM   25  C   UNL     1      49.633 -29.724   4.108  1.00  0.00     0.002 A 
ENDBRANCH   1  15
TORSDOF 5
ENDMDL
MODEL 10
REMARK VINA RESULT:      -7.0      2.472      3.489
REMARK  5 active torsions:
REMARK  status: ('A' for Active; 'I' for Inactive)
REMARK    1  A    between atoms: C_7  and  C_8 
REMARK    2  A    between atoms: N_9  and  N_10 
REMARK       I    between atoms: N_10  and  C_11 
REMARK    3  A    between atoms: C_11  and  C_12 
REMARK    4  A    between atoms: C_12  and  O_13 
REMARK    5  A    between atoms: O_13  and  C_14 
ROOT
HETATM    1  C   UNL     1      42.537 -14.188   2.044  1.00  0.00     0.153 C 
HETATM    2  N   UNL     1      41.294 -13.980   1.742  1.00  0.00    -0.184 NA
ENDROOT
BRANCH   2   3
HETATM    3  N   UNL     1      41.012 -13.213   0.634  1.00  0.00    -0.246 N 
HETATM    4  C   UNL     1      40.303 -13.625  -0.490  1.00  0.00     0.261 C 
HETATM    5  O   UNL     1      39.745 -14.711  -0.636  1.00  0.00    -0.269 OA
HETATM    6  H   UNL     1      41.633 -12.414   0.509  1.00  0.00     0.192 HD
BRANCH   4   7
HETATM    7  C   UNL     1      40.183 -12.536  -1.552  1.00  0.00     0.280 C 
BRANCH   7   8
HETATM    8  O   UNL     1      39.933 -11.258  -0.977  1.00  0.00    -0.342 OA
BRANCH   8   9
HETATM    9  C   UNL     1      40.725 -10.239  -1.440  1.00  0.00     0.069 A 
HETATM   10  C   UNL     1      40.448  -9.817  -2.742  1.00  0.00     0.037 A 
HETATM   11  C   UNL     1      41.183  -8.781  -3.324  1.00  0.00     0.003 A 
HETATM   12  C   UNL     1      42.208  -8.167  -2.607  1.00  0.00     0.000 A 
HETATM   13  C   UNL     1      42.498  -8.591  -1.313  1.00  0.00     0.003 A 
HETATM   14  C   UNL     1      41.761  -9.627  -0.730  1.00  0.00     0.037 A 
ENDBRANCH   8   9
ENDBRANCH   7   8
ENDBRANCH   4   7
ENDBRANCH   2   3
BRANCH   1  15
HETATM   15  C   UNL     1      42.901 -14.946   3.230  1.00  0.00     0.018 A 
HETATM   16  C   UNL     1      43.004 -14.492   4.537  1.00  0.00     0.018 A 
HETATM   17  C   UNL     1      42.785 -13.146   5.128  1.00  0.00     0.069 C 
HETATM   18  N   UNL     1      43.369 -15.560   5.321  1.00  0.00    -0.358 N 
HETATM   19  H   UNL     1      43.519 -15.522   6.320  1.00  0.00     0.166 HD
HETATM   20  C   UNL     1      43.504 -16.698   4.564  1.00  0.00     0.043 A 
HETATM   21  C   UNL     1      43.219 -16.347   3.246  1.00  0.00     0.004 A 
HETATM   22  C   UNL     1      43.859 -17.998   4.943  1.00  0.00     0.030 A 
HETATM   23  C   UNL     1      43.301 -17.348   2.254  1.00  0.00     0.014 A 
HETATM   24  C   UNL     1      43.657 -18.653   2.614  1.00  0.00     0.001 A 
HETATM   25  C   UNL     1      43.929 -18.972   3.941  1.00  0.00     0.002 A 
ENDBRANCH   1  15
TORSDOF 5
ENDMDL
