MODEL 1
REMARK VINA RESULT:      -8.5      0.000      0.000
REMARK  3 active torsions:
REMARK  status: ('A' for Active; 'I' for Inactive)
REMARK    1  A    between atoms: C_5  and  N_6 
REMARK       I    between atoms: N_6  and  C_7 
REMARK    2  A    between atoms: C_7  and  C_8 
REMARK    3  A    between atoms: C_11  and  N_12 
ROOT
HETATM    1  C   UNL     1      43.616 -20.243   5.753  1.00  0.00     0.001 A 
HETATM    2  C   UNL     1      43.236 -19.266   6.676  1.00  0.00     0.008 A 
HETATM    3  C   UNL     1      43.471 -17.940   6.358  1.00  0.00    -0.043 A 
HETATM    4  C   UNL     1      44.075 -17.584   5.141  1.00  0.00    -0.028 A 
HETATM    5  C   UNL     1      44.091 -16.077   4.968  1.00  0.00     0.125 C 
HETATM    6  C   UNL     1      44.093 -15.694   6.478  1.00  0.00     0.049 C 
HETATM    7  C   UNL     1      43.208 -16.731   7.192  1.00  0.00     0.053 C 
HETATM    8  C   UNL     1      43.536 -14.391   6.981  1.00  0.00     0.239 C 
HETATM    9  N   UNL     1      42.061 -14.621   7.031  1.00  0.00    -0.074 N 
HETATM   10  H   UNL     1      41.603 -14.073   7.769  1.00  0.00     0.277 HD
HETATM   11  H   UNL     1      41.699 -14.247   6.132  1.00  0.00     0.277 HD
HETATM   12  C   UNL     1      41.814 -16.106   7.133  1.00  0.00     0.242 C 
HETATM   13  C   UNL     1      44.456 -18.550   4.221  1.00  0.00     0.010 A 
HETATM   14  C   UNL     1      44.225 -19.889   4.539  1.00  0.00     0.001 A 
ENDROOT
BRANCH   5  15
HETATM   15  N   UNL     1      42.961 -15.803   4.080  1.00  0.00    -0.348 N 
HETATM   16  C   UNL     1      42.659 -14.648   3.412  1.00  0.00     0.252 C 
HETATM   17  O   UNL     1      43.086 -13.549   3.738  1.00  0.00    -0.268 OA
HETATM   18  H   UNL     1      42.635 -16.643   3.610  1.00  0.00     0.163 HD
BRANCH  16  19
HETATM   19  C   UNL     1      41.696 -14.773   2.285  1.00  0.00     0.032 A 
HETATM   20  C   UNL     1      40.824 -15.863   2.183  1.00  0.00     0.019 A 
HETATM   21  C   UNL     1      39.939 -15.947   1.104  1.00  0.00     0.024 A 
HETATM   22  C   UNL     1      39.879 -14.931   0.145  1.00  0.00     0.005 A 
HETATM   23  C   UNL     1      40.782 -13.868   0.237  1.00  0.00     0.024 A 
HETATM   24  C   UNL     1      41.667 -13.769   1.315  1.00  0.00     0.019 A 
BRANCH  22  25
HETATM   25  N   UNL     1      39.097 -15.094  -0.999  1.00  0.00    -0.303 NA
HETATM   26  H   UNL     1      38.897 -16.058  -1.248  1.00  0.00     0.124 HD
HETATM   27  H   UNL     1      38.265 -14.513  -1.032  1.00  0.00     0.124 HD
ENDBRANCH  22  25
ENDBRANCH  16  19
ENDBRANCH   5  15
TORSDOF 3
ENDMDL
MODEL 2
REMARK VINA RESULT:      -8.3      2.547      5.534
REMARK  3 active torsions:
REMARK  status: ('A' for Active; 'I' for Inactive)
REMARK    1  A    between atoms: C_5  and  N_6 
REMARK       I    between atoms: N_6  and  C_7 
REMARK    2  A    between atoms: C_7  and  C_8 
REMARK    3  A    between atoms: C_11  and  N_12 
ROOT
HETATM    1  C   UNL     1      44.238 -18.914   4.883  1.00  0.00     0.001 A 
HETATM    2  C   UNL     1      43.999 -18.469   3.581  1.00  0.00     0.008 A 
HETATM    3  C   UNL     1      43.082 -17.449   3.397  1.00  0.00    -0.043 A 
HETATM    4  C   UNL     1      42.408 -16.877   4.489  1.00  0.00    -0.028 A 
HETATM    5  C   UNL     1      41.570 -15.693   4.044  1.00  0.00     0.125 C 
HETATM    6  C   UNL     1      41.326 -16.151   2.575  1.00  0.00     0.049 C 
HETATM    7  C   UNL     1      42.619 -16.845   2.114  1.00  0.00     0.053 C 
HETATM    8  C   UNL     1      41.065 -15.178   1.459  1.00  0.00     0.239 C 
HETATM    9  N   UNL     1      42.422 -14.677   1.087  1.00  0.00    -0.074 N 
HETATM   10  H   UNL     1      42.488 -14.420   0.095  1.00  0.00     0.277 HD
HETATM   11  H   UNL     1      42.538 -13.792   1.619  1.00  0.00     0.277 HD
HETATM   12  C   UNL     1      43.442 -15.702   1.520  1.00  0.00     0.242 C 
HETATM   13  C   UNL     1      42.640 -17.317   5.784  1.00  0.00     0.010 A 
HETATM   14  C   UNL     1      43.561 -18.347   5.975  1.00  0.00     0.001 A 
ENDROOT
BRANCH   5  15
HETATM   15  N   UNL     1      42.383 -14.526   4.388  1.00  0.00    -0.348 N 
HETATM   16  C   UNL     1      42.102 -13.518   5.270  1.00  0.00     0.252 C 
HETATM   17  O   UNL     1      40.970 -13.241   5.639  1.00  0.00    -0.268 OA
HETATM   18  H   UNL     1      43.377 -14.712   4.283  1.00  0.00     0.163 HD
BRANCH  16  19
HETATM   19  C   UNL     1      43.258 -12.694   5.714  1.00  0.00     0.032 A 
HETATM   20  C   UNL     1      44.064 -12.007   4.799  1.00  0.00     0.019 A 
HETATM   21  C   UNL     1      45.146 -11.249   5.258  1.00  0.00     0.024 A 
HETATM   22  C   UNL     1      45.408 -11.128   6.626  1.00  0.00     0.005 A 
HETATM   23  C   UNL     1      44.620 -11.851   7.526  1.00  0.00     0.024 A 
HETATM   24  C   UNL     1      43.532 -12.607   7.081  1.00  0.00     0.019 A 
BRANCH  22  25
HETATM   25  N   UNL     1      46.569 -10.489   7.062  1.00  0.00    -0.303 NA
HETATM   26  H   UNL     1      47.215 -10.223   6.324  1.00  0.00     0.124 HD
HETATM   27  H   UNL     1      46.417  -9.735   7.724  1.00  0.00     0.124 HD
ENDBRANCH  22  25
ENDBRANCH  16  19
ENDBRANCH   5  15
TORSDOF 3
ENDMDL
MODEL 3
REMARK VINA RESULT:      -8.1      2.869      4.009
REMARK  3 active torsions:
REMARK  status: ('A' for Active; 'I' for Inactive)
REMARK    1  A    between atoms: C_5  and  N_6 
REMARK       I    between atoms: N_6  and  C_7 
REMARK    2  A    between atoms: C_7  and  C_8 
REMARK    3  A    between atoms: C_11  and  N_12 
ROOT
HETATM    1  C   UNL     1      42.885 -17.547   3.456  1.00  0.00     0.001 A 
HETATM    2  C   UNL     1      42.255 -16.528   4.174  1.00  0.00     0.008 A 
HETATM    3  C   UNL     1      42.255 -15.252   3.637  1.00  0.00    -0.043 A 
HETATM    4  C   UNL     1      42.874 -14.987   2.403  1.00  0.00    -0.028 A 
HETATM    5  C   UNL     1      42.615 -13.557   1.968  1.00  0.00     0.125 C 
HETATM    6  C   UNL     1      42.426 -12.939   3.385  1.00  0.00     0.049 C 
HETATM    7  C   UNL     1      41.702 -14.000   4.231  1.00  0.00     0.053 C 
HETATM    8  C   UNL     1      41.592 -11.711   3.624  1.00  0.00     0.239 C 
HETATM    9  N   UNL     1      40.189 -12.222   3.649  1.00  0.00    -0.074 N 
HETATM   10  H   UNL     1      39.578 -11.664   4.258  1.00  0.00     0.277 HD
HETATM   11  H   UNL     1      39.834 -12.081   2.683  1.00  0.00     0.277 HD
HETATM   12  C   UNL     1      40.223 -13.689   4.001  1.00  0.00     0.242 C 
HETATM   13  C   UNL     1      43.503 -15.995   1.687  1.00  0.00     0.010 A 
HETATM   14  C   UNL     1      43.509 -17.281   2.226  1.00  0.00     0.001 A 
ENDROOT
BRANCH   5  15
HETATM   15  N   UNL     1      41.526 -13.667   0.997  1.00  0.00    -0.348 N 
HETATM   16  C   UNL     1      41.074 -12.729   0.109  1.00  0.00     0.252 C 
HETATM   17  O   UNL     1      41.270 -11.528   0.239  1.00  0.00    -0.268 OA
HETATM   18  H   UNL     1      41.394 -14.625   0.681  1.00  0.00     0.163 HD
BRANCH  16  19
HETATM   19  C   UNL     1      40.240 -13.235  -1.013  1.00  0.00     0.032 A 
HETATM   20  C   UNL     1      39.707 -14.529  -1.006  1.00  0.00     0.019 A 
HETATM   21  C   UNL     1      38.933 -14.968  -2.085  1.00  0.00     0.024 A 
HETATM   22  C   UNL     1      38.644 -14.116  -3.155  1.00  0.00     0.005 A 
HETATM   23  C   UNL     1      39.215 -12.839  -3.168  1.00  0.00     0.024 A 
HETATM   24  C   UNL     1      39.985 -12.386  -2.093  1.00  0.00     0.019 A 
BRANCH  22  25
HETATM   25  N   UNL     1      37.995 -14.609  -4.287  1.00  0.00    -0.303 NA
HETATM   26  H   UNL     1      38.606 -14.848  -5.062  1.00  0.00     0.124 HD
HETATM   27  H   UNL     1      37.311 -15.337  -4.102  1.00  0.00     0.124 HD
ENDBRANCH  22  25
ENDBRANCH  16  19
ENDBRANCH   5  15
TORSDOF 3
ENDMDL
MODEL 4
REMARK VINA RESULT:      -8.0      2.390      6.190
REMARK  3 active torsions:
REMARK  status: ('A' for Active; 'I' for Inactive)
REMARK    1  A    between atoms: C_5  and  N_6 
REMARK       I    between atoms: N_6  and  C_7 
REMARK    2  A    between atoms: C_7  and  C_8 
REMARK    3  A    between atoms: C_11  and  N_12 
ROOT
HETATM    1  C   UNL     1      40.847 -12.305   6.088  1.00  0.00     0.001 A 
HETATM    2  C   UNL     1      40.048 -12.587   4.978  1.00  0.00     0.008 A 
HETATM    3  C   UNL     1      40.656 -13.109   3.850  1.00  0.00    -0.043 A 
HETATM    4  C   UNL     1      42.040 -13.350   3.820  1.00  0.00    -0.028 A 
HETATM    5  C   UNL     1      42.437 -14.052   2.536  1.00  0.00     0.125 C 
HETATM    6  C   UNL     1      41.282 -13.514   1.639  1.00  0.00     0.049 C 
HETATM    7  C   UNL     1      40.033 -13.439   2.535  1.00  0.00     0.053 C 
HETATM    8  C   UNL     1      40.775 -14.265   0.439  1.00  0.00     0.239 C 
HETATM    9  N   UNL     1      39.861 -15.297   1.015  1.00  0.00    -0.074 N 
HETATM   10  H   UNL     1      39.096 -15.544   0.376  1.00  0.00     0.277 HD
HETATM   11  H   UNL     1      40.443 -16.152   1.107  1.00  0.00     0.277 HD
HETATM   12  C   UNL     1      39.394 -14.817   2.367  1.00  0.00     0.242 C 
HETATM   13  C   UNL     1      42.839 -13.070   4.919  1.00  0.00     0.010 A 
HETATM   14  C   UNL     1      42.231 -12.540   6.057  1.00  0.00     0.001 A 
ENDROOT
BRANCH   5  15
HETATM   15  N   UNL     1      42.558 -15.459   2.915  1.00  0.00    -0.348 N 
HETATM   16  C   UNL     1      43.155 -16.482   2.229  1.00  0.00     0.252 C 
HETATM   17  O   UNL     1      43.361 -16.455   1.023  1.00  0.00    -0.268 OA
HETATM   18  H   UNL     1      42.577 -15.580   3.925  1.00  0.00     0.163 HD
BRANCH  16  19
HETATM   19  C   UNL     1      43.481 -17.700   3.018  1.00  0.00     0.032 A 
HETATM   20  C   UNL     1      43.827 -17.628   4.372  1.00  0.00     0.019 A 
HETATM   21  C   UNL     1      44.133 -18.797   5.075  1.00  0.00     0.024 A 
HETATM   22  C   UNL     1      44.054 -20.047   4.456  1.00  0.00     0.005 A 
HETATM   23  C   UNL     1      43.746 -20.103   3.093  1.00  0.00     0.024 A 
HETATM   24  C   UNL     1      43.431 -18.942   2.380  1.00  0.00     0.019 A 
BRANCH  22  25
HETATM   25  N   UNL     1      44.498 -21.188   5.124  1.00  0.00    -0.303 NA
HETATM   26  H   UNL     1      44.004 -21.400   5.987  1.00  0.00     0.124 HD
HETATM   27  H   UNL     1      44.608 -22.010   4.538  1.00  0.00     0.124 HD
ENDBRANCH  22  25
ENDBRANCH  16  19
ENDBRANCH   5  15
TORSDOF 3
ENDMDL
MODEL 5
REMARK VINA RESULT:      -7.4      3.180      5.937
REMARK  3 active torsions:
REMARK  status: ('A' for Active; 'I' for Inactive)
REMARK    1  A    between atoms: C_5  and  N_6 
REMARK       I    between atoms: N_6  and  C_7 
REMARK    2  A    between atoms: C_7  and  C_8 
REMARK    3  A    between atoms: C_11  and  N_12 
ROOT
HETATM    1  C   UNL     1      44.677 -10.709   8.043  1.00  0.00     0.001 A 
HETATM    2  C   UNL     1      43.346 -10.496   7.676  1.00  0.00     0.008 A 
HETATM    3  C   UNL     1      42.980 -10.751   6.366  1.00  0.00    -0.043 A 
HETATM    4  C   UNL     1      43.920 -11.211   5.429  1.00  0.00    -0.028 A 
HETATM    5  C   UNL     1      43.245 -11.550   4.113  1.00  0.00     0.125 C 
HETATM    6  C   UNL     1      42.040 -10.571   4.238  1.00  0.00     0.049 C 
HETATM    7  C   UNL     1      41.647 -10.552   5.726  1.00  0.00     0.053 C 
HETATM    8  C   UNL     1      40.722 -10.822   3.559  1.00  0.00     0.239 C 
HETATM    9  N   UNL     1      40.033 -11.802   4.451  1.00  0.00    -0.074 N 
HETATM   10  H   UNL     1      39.011 -11.705   4.425  1.00  0.00     0.277 HD
HETATM   11  H   UNL     1      40.242 -12.733   4.041  1.00  0.00     0.277 HD
HETATM   12  C   UNL     1      40.621 -11.680   5.835  1.00  0.00     0.242 C 
HETATM   13  C   UNL     1      45.243 -11.423   5.787  1.00  0.00     0.010 A 
HETATM   14  C   UNL     1      45.619 -11.164   7.104  1.00  0.00     0.001 A 
ENDROOT
BRANCH   5  15
HETATM   15  N   UNL     1      43.095 -13.004   4.147  1.00  0.00    -0.348 N 
HETATM   16  C   UNL     1      42.823 -13.861   3.115  1.00  0.00     0.252 C 
HETATM   17  O   UNL     1      42.303 -13.508   2.066  1.00  0.00    -0.268 OA
HETATM   18  H   UNL     1      43.643 -13.425   4.893  1.00  0.00     0.163 HD
BRANCH  16  19
HETATM   19  C   UNL     1      43.121 -15.297   3.358  1.00  0.00     0.032 A 
HETATM   20  C   UNL     1      43.395 -15.783   4.641  1.00  0.00     0.019 A 
HETATM   21  C   UNL     1      43.677 -17.140   4.826  1.00  0.00     0.024 A 
HETATM   22  C   UNL     1      43.645 -18.032   3.750  1.00  0.00     0.005 A 
HETATM   23  C   UNL     1      43.408 -17.528   2.468  1.00  0.00     0.024 A 
HETATM   24  C   UNL     1      43.118 -16.174   2.271  1.00  0.00     0.019 A 
BRANCH  22  25
HETATM   25  N   UNL     1      44.066 -19.351   3.921  1.00  0.00    -0.303 NA
HETATM   26  H   UNL     1      45.058 -19.463   4.112  1.00  0.00     0.124 HD
HETATM   27  H   UNL     1      43.493 -19.903   4.553  1.00  0.00     0.124 HD
ENDBRANCH  22  25
ENDBRANCH  16  19
ENDBRANCH   5  15
TORSDOF 3
ENDMDL
MODEL 6
REMARK VINA RESULT:      -7.4      3.000      5.362
REMARK  3 active torsions:
REMARK  status: ('A' for Active; 'I' for Inactive)
REMARK    1  A    between atoms: C_5  and  N_6 
REMARK       I    between atoms: N_6  and  C_7 
REMARK    2  A    between atoms: C_7  and  C_8 
REMARK    3  A    between atoms: C_11  and  N_12 
ROOT
HETATM    1  C   UNL     1      44.033 -18.040   5.462  1.00  0.00     0.001 A 
HETATM    2  C   UNL     1      43.988 -17.698   4.108  1.00  0.00     0.008 A 
HETATM    3  C   UNL     1      42.927 -16.928   3.664  1.00  0.00    -0.043 A 
HETATM    4  C   UNL     1      41.922 -16.502   4.548  1.00  0.00    -0.028 A 
HETATM    5  C   UNL     1      40.957 -15.560   3.852  1.00  0.00     0.125 C 
HETATM    6  C   UNL     1      41.145 -16.101   2.404  1.00  0.00     0.049 C 
HETATM    7  C   UNL     1      42.630 -16.483   2.271  1.00  0.00     0.053 C 
HETATM    8  C   UNL     1      40.921 -15.246   1.187  1.00  0.00     0.239 C 
HETATM    9  N   UNL     1      42.178 -14.450   1.064  1.00  0.00    -0.074 N 
HETATM   10  H   UNL     1      42.398 -14.211   0.090  1.00  0.00     0.277 HD
HETATM   11  H   UNL     1      41.975 -13.550   1.540  1.00  0.00     0.277 HD
HETATM   12  C   UNL     1      43.284 -15.194   1.773  1.00  0.00     0.242 C 
HETATM   13  C   UNL     1      41.961 -16.840   5.893  1.00  0.00     0.010 A 
HETATM   14  C   UNL     1      43.026 -17.619   6.345  1.00  0.00     0.001 A 
ENDROOT
BRANCH   5  15
HETATM   15  N   UNL     1      41.393 -14.226   4.265  1.00  0.00    -0.348 N 
HETATM   16  C   UNL     1      40.651 -13.082   4.384  1.00  0.00     0.252 C 
HETATM   17  O   UNL     1      39.583 -12.910   3.814  1.00  0.00    -0.268 OA
HETATM   18  H   UNL     1      42.186 -14.265   4.900  1.00  0.00     0.163 HD
BRANCH  16  19
HETATM   19  C   UNL     1      41.253 -11.991   5.195  1.00  0.00     0.032 A 
HETATM   20  C   UNL     1      42.464 -12.163   5.875  1.00  0.00     0.019 A 
HETATM   21  C   UNL     1      42.991 -11.113   6.632  1.00  0.00     0.024 A 
HETATM   22  C   UNL     1      42.348  -9.872   6.685  1.00  0.00     0.005 A 
HETATM   23  C   UNL     1      41.120  -9.726   6.034  1.00  0.00     0.024 A 
HETATM   24  C   UNL     1      40.585 -10.766   5.268  1.00  0.00     0.019 A 
BRANCH  22  25
HETATM   25  N   UNL     1      42.807  -8.883   7.555  1.00  0.00    -0.303 NA
HETATM   26  H   UNL     1      42.729  -7.933   7.204  1.00  0.00     0.124 HD
HETATM   27  H   UNL     1      42.468  -8.965   8.509  1.00  0.00     0.124 HD
ENDBRANCH  22  25
ENDBRANCH  16  19
ENDBRANCH   5  15
TORSDOF 3
ENDMDL
MODEL 7
REMARK VINA RESULT:      -7.2      2.628      7.129
REMARK  3 active torsions:
REMARK  status: ('A' for Active; 'I' for Inactive)
REMARK    1  A    between atoms: C_5  and  N_6 
REMARK       I    between atoms: N_6  and  C_7 
REMARK    2  A    between atoms: C_7  and  C_8 
REMARK    3  A    between atoms: C_11  and  N_12 
ROOT
HETATM    1  C   UNL     1      40.852 -12.739  -2.856  1.00  0.00     0.001 A 
HETATM    2  C   UNL     1      41.012 -11.743  -1.889  1.00  0.00     0.008 A 
HETATM    3  C   UNL     1      40.529 -11.986  -0.615  1.00  0.00    -0.043 A 
HETATM    4  C   UNL     1      39.894 -13.200  -0.301  1.00  0.00    -0.028 A 
HETATM    5  C   UNL     1      39.587 -13.278   1.183  1.00  0.00     0.125 C 
HETATM    6  C   UNL     1      39.476 -11.748   1.453  1.00  0.00     0.049 C 
HETATM    7  C   UNL     1      40.531 -11.070   0.563  1.00  0.00     0.053 C 
HETATM    8  C   UNL     1      39.756 -11.145   2.802  1.00  0.00     0.239 C 
HETATM    9  N   UNL     1      41.246 -11.057   2.861  1.00  0.00    -0.074 N 
HETATM   10  H   UNL     1      41.571 -10.270   3.435  1.00  0.00     0.277 HD
HETATM   11  H   UNL     1      41.547 -11.917   3.359  1.00  0.00     0.277 HD
HETATM   12  C   UNL     1      41.776 -11.040   1.448  1.00  0.00     0.242 C 
HETATM   13  C   UNL     1      39.731 -14.191  -1.258  1.00  0.00     0.010 A 
HETATM   14  C   UNL     1      40.213 -13.950  -2.544  1.00  0.00     0.001 A 
ENDROOT
BRANCH   5  15
HETATM   15  N   UNL     1      40.661 -14.106   1.731  1.00  0.00    -0.348 N 
HETATM   16  C   UNL     1      40.808 -14.583   3.006  1.00  0.00     0.252 C 
HETATM   17  O   UNL     1      40.254 -14.088   3.978  1.00  0.00    -0.268 OA
HETATM   18  H   UNL     1      41.081 -14.701   1.022  1.00  0.00     0.163 HD
BRANCH  16  19
HETATM   19  C   UNL     1      41.762 -15.710   3.179  1.00  0.00     0.032 A 
HETATM   20  C   UNL     1      42.308 -16.385   2.082  1.00  0.00     0.019 A 
HETATM   21  C   UNL     1      43.196 -17.445   2.289  1.00  0.00     0.024 A 
HETATM   22  C   UNL     1      43.584 -17.814   3.580  1.00  0.00     0.005 A 
HETATM   23  C   UNL     1      43.001 -17.158   4.669  1.00  0.00     0.024 A 
HETATM   24  C   UNL     1      42.117 -16.092   4.475  1.00  0.00     0.019 A 
BRANCH  22  25
HETATM   25  N   UNL     1      44.355 -18.959   3.779  1.00  0.00    -0.303 NA
HETATM   26  H   UNL     1      44.923 -18.953   4.621  1.00  0.00     0.124 HD
HETATM   27  H   UNL     1      43.853 -19.835   3.665  1.00  0.00     0.124 HD
ENDBRANCH  22  25
ENDBRANCH  16  19
ENDBRANCH   5  15
TORSDOF 3
ENDMDL
MODEL 8
REMARK VINA RESULT:      -6.9     13.856     17.107
REMARK  3 active torsions:
REMARK  status: ('A' for Active; 'I' for Inactive)
REMARK    1  A    between atoms: C_5  and  N_6 
REMARK       I    between atoms: N_6  and  C_7 
REMARK    2  A    between atoms: C_7  and  C_8 
REMARK    3  A    between atoms: C_11  and  N_12 
ROOT
HETATM    1  C   UNL     1      45.166 -28.857  -4.093  1.00  0.00     0.001 A 
HETATM    2  C   UNL     1      45.351 -28.080  -2.947  1.00  0.00     0.008 A 
HETATM    3  C   UNL     1      45.832 -28.701  -1.807  1.00  0.00    -0.043 A 
HETATM    4  C   UNL     1      46.124 -30.075  -1.800  1.00  0.00    -0.028 A 
HETATM    5  C   UNL     1      46.765 -30.483  -0.487  1.00  0.00     0.125 C 
HETATM    6  C   UNL     1      46.132 -29.375   0.406  1.00  0.00     0.049 C 
HETATM    7  C   UNL     1      46.060 -28.105  -0.458  1.00  0.00     0.053 C 
HETATM    8  C   UNL     1      46.792 -28.875   1.661  1.00  0.00     0.239 C 
HETATM    9  N   UNL     1      47.819 -27.907   1.172  1.00  0.00    -0.074 N 
HETATM   10  H   UNL     1      47.999 -27.152   1.844  1.00  0.00     0.277 HD
HETATM   11  H   UNL     1      48.700 -28.454   1.115  1.00  0.00     0.277 HD
HETATM   12  C   UNL     1      47.400 -27.420  -0.193  1.00  0.00     0.242 C 
HETATM   13  C   UNL     1      45.939 -30.852  -2.935  1.00  0.00     0.010 A 
HETATM   14  C   UNL     1      45.452 -30.232  -4.085  1.00  0.00     0.001 A 
ENDROOT
BRANCH   5  15
HETATM   15  N   UNL     1      48.196 -30.540  -0.787  1.00  0.00    -0.348 N 
HETATM   16  C   UNL     1      49.224 -30.938   0.024  1.00  0.00     0.252 C 
HETATM   17  O   UNL     1      49.149 -30.961   1.245  1.00  0.00    -0.268 OA
HETATM   18  H   UNL     1      48.371 -30.701  -1.776  1.00  0.00     0.163 HD
BRANCH  16  19
HETATM   19  C   UNL     1      50.504 -31.274  -0.655  1.00  0.00     0.032 A 
HETATM   20  C   UNL     1      50.854 -30.706  -1.885  1.00  0.00     0.019 A 
HETATM   21  C   UNL     1      52.063 -31.055  -2.493  1.00  0.00     0.024 A 
HETATM   22  C   UNL     1      52.954 -31.933  -1.868  1.00  0.00     0.005 A 
HETATM   23  C   UNL     1      52.575 -32.524  -0.659  1.00  0.00     0.024 A 
HETATM   24  C   UNL     1      51.371 -32.179  -0.037  1.00  0.00     0.019 A 
BRANCH  22  25
HETATM   25  N   UNL     1      54.086 -32.382  -2.548  1.00  0.00    -0.303 NA
HETATM   26  H   UNL     1      54.421 -33.298  -2.263  1.00  0.00     0.124 HD
HETATM   27  H   UNL     1      54.040 -32.291  -3.558  1.00  0.00     0.124 HD
ENDBRANCH  22  25
ENDBRANCH  16  19
ENDBRANCH   5  15
TORSDOF 3
ENDMDL
MODEL 9
REMARK VINA RESULT:      -6.9     14.255     17.295
REMARK  3 active torsions:
REMARK  status: ('A' for Active; 'I' for Inactive)
REMARK    1  A    between atoms: C_5  and  N_6 
REMARK       I    between atoms: N_6  and  C_7 
REMARK    2  A    between atoms: C_7  and  C_8 
REMARK    3  A    between atoms: C_11  and  N_12 
ROOT
HETATM    1  C   UNL     1      43.834 -30.226  -5.134  1.00  0.00     0.001 A 
HETATM    2  C   UNL     1      43.723 -29.351  -4.051  1.00  0.00     0.008 A 
HETATM    3  C   UNL     1      44.058 -29.822  -2.793  1.00  0.00    -0.043 A 
HETATM    4  C   UNL     1      44.496 -31.144  -2.608  1.00  0.00    -0.028 A 
HETATM    5  C   UNL     1      44.934 -31.371  -1.174  1.00  0.00     0.125 C 
HETATM    6  C   UNL     1      44.031 -30.291  -0.507  1.00  0.00     0.049 C 
HETATM    7  C   UNL     1      43.973 -29.106  -1.487  1.00  0.00     0.053 C 
HETATM    8  C   UNL     1      44.396 -29.622   0.789  1.00  0.00     0.239 C 
HETATM    9  N   UNL     1      45.379 -28.569   0.392  1.00  0.00    -0.074 N 
HETATM   10  H   UNL     1      45.350 -27.750   1.011  1.00  0.00     0.277 HD
HETATM   11  H   UNL     1      46.312 -29.003   0.536  1.00  0.00     0.277 HD
HETATM   12  C   UNL     1      45.159 -28.239  -1.064  1.00  0.00     0.242 C 
HETATM   13  C   UNL     1      44.606 -32.018  -3.680  1.00  0.00     0.010 A 
HETATM   14  C   UNL     1      44.266 -31.550  -4.949  1.00  0.00     0.001 A 
ENDROOT
BRANCH   5  15
HETATM   15  N   UNL     1      46.393 -31.268  -1.221  1.00  0.00    -0.348 N 
HETATM   16  C   UNL     1      47.306 -32.225  -1.573  1.00  0.00     0.252 C 
HETATM   17  O   UNL     1      47.068 -33.425  -1.552  1.00  0.00    -0.268 OA
HETATM   18  H   UNL     1      46.701 -30.319  -1.415  1.00  0.00     0.163 HD
BRANCH  16  19
HETATM   19  C   UNL     1      48.669 -31.737  -1.915  1.00  0.00     0.032 A 
HETATM   20  C   UNL     1      49.528 -32.474  -2.738  1.00  0.00     0.019 A 
HETATM   21  C   UNL     1      50.804 -31.982  -3.029  1.00  0.00     0.024 A 
HETATM   22  C   UNL     1      51.221 -30.739  -2.544  1.00  0.00     0.005 A 
HETATM   23  C   UNL     1      50.370 -30.032  -1.691  1.00  0.00     0.024 A 
HETATM   24  C   UNL     1      49.089 -30.509  -1.398  1.00  0.00     0.019 A 
BRANCH  22  25
HETATM   25  N   UNL     1      52.542 -30.327  -2.722  1.00  0.00    -0.303 NA
HETATM   26  H   UNL     1      53.001 -30.700  -3.548  1.00  0.00     0.124 HD
HETATM   27  H   UNL     1      52.694 -29.328  -2.620  1.00  0.00     0.124 HD
ENDBRANCH  22  25
ENDBRANCH  16  19
ENDBRANCH   5  15
TORSDOF 3
ENDMDL
MODEL 10
REMARK VINA RESULT:      -6.8      9.286     12.248
REMARK  3 active torsions:
REMARK  status: ('A' for Active; 'I' for Inactive)
REMARK    1  A    between atoms: C_5  and  N_6 
REMARK       I    between atoms: N_6  and  C_7 
REMARK    2  A    between atoms: C_7  and  C_8 
REMARK    3  A    between atoms: C_11  and  N_12 
ROOT
HETATM    1  C   UNL     1      45.832  -9.273   9.221  1.00  0.00     0.001 A 
HETATM    2  C   UNL     1      45.042  -8.275   8.646  1.00  0.00     0.008 A 
HETATM    3  C   UNL     1      43.673  -8.332   8.840  1.00  0.00    -0.043 A 
HETATM    4  C   UNL     1      43.091  -9.365   9.594  1.00  0.00    -0.028 A 
HETATM    5  C   UNL     1      41.605  -9.127   9.778  1.00  0.00     0.125 C 
HETATM    6  C   UNL     1      41.367  -8.290   8.485  1.00  0.00     0.049 C 
HETATM    7  C   UNL     1      42.624  -7.425   8.288  1.00  0.00     0.053 C 
HETATM    8  C   UNL     1      40.258  -7.280   8.371  1.00  0.00     0.239 C 
HETATM    9  N   UNL     1      40.793  -6.071   9.067  1.00  0.00    -0.074 N 
HETATM   10  H   UNL     1      40.421  -5.197   8.678  1.00  0.00     0.277 HD
HETATM   11  H   UNL     1      40.423  -6.133  10.036  1.00  0.00     0.277 HD
HETATM   12  C   UNL     1      42.300  -6.147   9.062  1.00  0.00     0.242 C 
HETATM   13  C   UNL     1      43.871 -10.360  10.166  1.00  0.00     0.010 A 
HETATM   14  C   UNL     1      45.251 -10.309   9.971  1.00  0.00     0.001 A 
ENDROOT
BRANCH   5  15
HETATM   15  N   UNL     1      41.493  -8.562  11.122  1.00  0.00    -0.348 N 
HETATM   16  C   UNL     1      41.250  -9.208  12.304  1.00  0.00     0.252 C 
HETATM   17  O   UNL     1      40.725 -10.311  12.373  1.00  0.00    -0.268 OA
HETATM   18  H   UNL     1      42.049  -7.717  11.226  1.00  0.00     0.163 HD
BRANCH  16  19
HETATM   19  C   UNL     1      41.585  -8.458  13.544  1.00  0.00     0.032 A 
HETATM   20  C   UNL     1      40.793  -8.549  14.694  1.00  0.00     0.019 A 
HETATM   21  C   UNL     1      41.139  -7.821  15.836  1.00  0.00     0.024 A 
HETATM   22  C   UNL     1      42.294  -7.034  15.863  1.00  0.00     0.005 A 
HETATM   23  C   UNL     1      43.054  -6.920  14.695  1.00  0.00     0.024 A 
HETATM   24  C   UNL     1      42.723  -7.648  13.548  1.00  0.00     0.019 A 
BRANCH  22  25
HETATM   25  N   UNL     1      42.550  -6.204  16.954  1.00  0.00    -0.303 NA
HETATM   26  H   UNL     1      43.248  -6.553  17.604  1.00  0.00     0.124 HD
HETATM   27  H   UNL     1      42.703  -5.228  16.720  1.00  0.00     0.124 HD
ENDBRANCH  22  25
ENDBRANCH  16  19
ENDBRANCH   5  15
TORSDOF 3
ENDMDL
