MODEL 1
REMARK VINA RESULT:      -7.2      0.000      0.000
REMARK  9 active torsions:
REMARK  status: ('A' for Active; 'I' for Inactive)
REMARK    1  A    between atoms: C_6  and  C_7 
REMARK    2  A    between atoms: C_7  and  C_8 
REMARK       I    between atoms: C_8  and  N_9 
REMARK    3  A    between atoms: N_9  and  C_10 
REMARK    4  A    between atoms: C_10  and  C_11 
REMARK    5  A    between atoms: C_11  and  N_12 
REMARK    6  A    between atoms: C_19  and  C_20 
REMARK    7  A    between atoms: C_29  and  C_30 
REMARK    8  A    between atoms: C_30  and  O_31 
REMARK    9  A    between atoms: O_31  and  C_32 
ROOT
HETATM    1  C   UNL     1      45.361 -11.436   4.709  1.00  0.00     0.071 C 
HETATM    2  C   UNL     1      43.858 -11.381   4.832  1.00  0.00     0.048 C 
HETATM    3  N   UNL     1      43.183 -11.551   3.625  1.00  0.00    -0.229 NA
HETATM    4  C   UNL     1      41.997 -12.050   3.717  1.00  0.00     0.170 C 
HETATM    5  N   UNL     1      41.305 -12.278   5.081  1.00  0.00    -0.318 N 
HETATM    6  C   UNL     1      40.714 -13.425   5.085  1.00  0.00     0.011 C 
HETATM    7  C   UNL     1      41.704 -11.234   6.056  1.00  0.00     0.168 C 
HETATM    8  S   UNL     1      41.131 -12.846   2.456  1.00  0.00    -0.086 SA
HETATM    9  C   UNL     1      40.421 -13.993   3.703  1.00  0.00     0.135 C 
HETATM   10  C   UNL     1      43.200 -11.281   6.012  1.00  0.00     0.069 C 
ENDROOT
BRANCH   6  11
HETATM   11  C   UNL     1      40.428 -14.132   6.380  1.00  0.00     0.156 C 
BRANCH  11  12
HETATM   12  C   UNL     1      41.308 -15.352   6.567  1.00  0.00     0.223 C 
HETATM   13  N   UNL     1      42.637 -15.128   6.870  1.00  0.00    -0.359 N 
HETATM   14  H   UNL     1      43.020 -14.188   6.812  1.00  0.00     0.162 HD
HETATM   15  O   UNL     1      40.856 -16.475   6.373  1.00  0.00    -0.273 OA
BRANCH  13  16
HETATM   16  C   UNL     1      43.559 -16.264   6.905  1.00  0.00     0.150 C 
BRANCH  16  17
HETATM   17  C   UNL     1      44.185 -16.625   5.544  1.00  0.00     0.254 C 
BRANCH  17  18
HETATM   18  N   UNL     1      43.318 -17.598   4.769  1.00  0.00    -0.070 N 
HETATM   19  H   UNL     1      42.492 -17.839   5.338  1.00  0.00     0.279 HD
HETATM   20  C   UNL     1      44.015 -18.904   4.402  1.00  0.00     0.235 C 
HETATM   21  C   UNL     1      44.253 -18.795   2.912  1.00  0.00     0.029 C 
HETATM   22  C   UNL     1      43.005 -18.092   2.425  1.00  0.00     0.029 C 
HETATM   23  C   UNL     1      42.788 -17.008   3.461  1.00  0.00     0.235 C 
ENDBRANCH  17  18
ENDBRANCH  16  17
ENDBRANCH  13  16
ENDBRANCH  11  12
ENDBRANCH   6  11
BRANCH   7  24
HETATM   24  C   UNL     1      41.006  -9.897   5.720  1.00  0.00    -0.009 A 
HETATM   25  C   UNL     1      39.614  -9.642   5.788  1.00  0.00     0.042 A 
HETATM   26 CL   UNL     1      38.417 -10.825   6.172  1.00  0.00    -0.084 Cl
HETATM   27  C   UNL     1      39.098  -8.365   5.517  1.00  0.00     0.024 A 
HETATM   28  C   UNL     1      39.934  -7.320   5.145  1.00  0.00     0.002 A 
HETATM   29  C   UNL     1      41.293  -7.552   5.007  1.00  0.00     0.001 A 
HETATM   30  C   UNL     1      41.818  -8.820   5.273  1.00  0.00     0.011 A 
ENDBRANCH   7  24
BRANCH  10  31
HETATM   31  C   UNL     1      43.845 -11.565   7.311  1.00  0.00     0.294 C 
HETATM   32  O   UNL     1      43.847 -12.685   7.795  1.00  0.00    -0.259 OA
BRANCH  31  33
HETATM   33  O   UNL     1      44.126 -10.404   7.935  1.00  0.00    -0.313 OA
BRANCH  33  34
HETATM   34  C   UNL     1      45.381 -10.330   8.645  1.00  0.00     0.124 C 
HETATM   35  C   UNL     1      46.282  -9.296   7.988  1.00  0.00     0.040 C 
HETATM   36  C   UNL     1      45.055  -9.947  10.083  1.00  0.00     0.040 C 
ENDBRANCH  33  34
ENDBRANCH  31  33
ENDBRANCH  10  31
TORSDOF 9
ENDMDL
MODEL 2
REMARK VINA RESULT:      -7.1      3.802      8.107
REMARK  9 active torsions:
REMARK  status: ('A' for Active; 'I' for Inactive)
REMARK    1  A    between atoms: C_6  and  C_7 
REMARK    2  A    between atoms: C_7  and  C_8 
REMARK       I    between atoms: C_8  and  N_9 
REMARK    3  A    between atoms: N_9  and  C_10 
REMARK    4  A    between atoms: C_10  and  C_11 
REMARK    5  A    between atoms: C_11  and  N_12 
REMARK    6  A    between atoms: C_19  and  C_20 
REMARK    7  A    between atoms: C_29  and  C_30 
REMARK    8  A    between atoms: C_30  and  O_31 
REMARK    9  A    between atoms: O_31  and  C_32 
ROOT
HETATM    1  C   UNL     1      41.683 -10.401   0.708  1.00  0.00     0.071 C 
HETATM    2  C   UNL     1      41.691 -11.382   1.854  1.00  0.00     0.048 C 
HETATM    3  N   UNL     1      42.813 -11.287   2.676  1.00  0.00    -0.229 NA
HETATM    4  C   UNL     1      42.639 -11.661   3.898  1.00  0.00     0.170 C 
HETATM    5  N   UNL     1      41.330 -12.333   4.374  1.00  0.00    -0.318 N 
HETATM    6  C   UNL     1      40.977 -11.845   5.515  1.00  0.00     0.011 C 
HETATM    7  C   UNL     1      40.743 -13.166   3.296  1.00  0.00     0.168 C 
HETATM    8  S   UNL     1      43.612 -11.202   5.246  1.00  0.00    -0.086 SA
HETATM    9  C   UNL     1      42.101 -11.172   6.293  1.00  0.00     0.135 C 
HETATM   10  C   UNL     1      40.664 -12.219   2.139  1.00  0.00     0.069 C 
ENDROOT
BRANCH   6  11
HETATM   11  C   UNL     1      39.543 -11.899   5.959  1.00  0.00     0.156 C 
BRANCH  11  12
HETATM   12  C   UNL     1      39.169 -10.706   6.816  1.00  0.00     0.223 C 
HETATM   13  N   UNL     1      39.455 -10.786   8.165  1.00  0.00    -0.359 N 
HETATM   14  H   UNL     1      39.758 -11.668   8.568  1.00  0.00     0.162 HD
HETATM   15  O   UNL     1      38.566  -9.758   6.325  1.00  0.00    -0.273 OA
BRANCH  13  16
HETATM   16  C   UNL     1      38.973  -9.730   9.057  1.00  0.00     0.150 C 
BRANCH  16  17
HETATM   17  C   UNL     1      40.060  -9.094   9.945  1.00  0.00     0.254 C 
BRANCH  17  18
HETATM   18  N   UNL     1      40.593 -10.077  10.968  1.00  0.00    -0.070 N 
HETATM   19  H   UNL     1      40.599 -11.022  10.556  1.00  0.00     0.279 HD
HETATM   20  C   UNL     1      39.777 -10.148  12.255  1.00  0.00     0.235 C 
HETATM   21  C   UNL     1      40.644  -9.461  13.287  1.00  0.00     0.029 C 
HETATM   22  C   UNL     1      42.039  -9.900  12.896  1.00  0.00     0.029 C 
HETATM   23  C   UNL     1      42.034  -9.776  11.386  1.00  0.00     0.235 C 
ENDBRANCH  17  18
ENDBRANCH  16  17
ENDBRANCH  13  16
ENDBRANCH  11  12
ENDBRANCH   6  11
BRANCH   7  24
HETATM   24  C   UNL     1      41.561 -14.465   3.122  1.00  0.00    -0.009 A 
HETATM   25  C   UNL     1      41.676 -15.512   4.068  1.00  0.00     0.042 A 
HETATM   26 CL   UNL     1      40.992 -15.483   5.653  1.00  0.00    -0.084 Cl
HETATM   27  C   UNL     1      42.401 -16.677   3.774  1.00  0.00     0.024 A 
HETATM   28  C   UNL     1      43.052 -16.827   2.556  1.00  0.00     0.002 A 
HETATM   29  C   UNL     1      43.011 -15.794   1.632  1.00  0.00     0.001 A 
HETATM   30  C   UNL     1      42.294 -14.628   1.916  1.00  0.00     0.011 A 
ENDBRANCH   7  24
BRANCH  10  31
HETATM   31  C   UNL     1      39.304 -12.027   1.593  1.00  0.00     0.294 C 
HETATM   32  O   UNL     1      38.536 -11.203   2.061  1.00  0.00    -0.259 OA
BRANCH  31  33
HETATM   33  O   UNL     1      39.005 -13.048   0.767  1.00  0.00    -0.313 OA
BRANCH  33  34
HETATM   34  C   UNL     1      39.328 -12.878  -0.630  1.00  0.00     0.124 C 
HETATM   35  C   UNL     1      39.727 -14.217  -1.230  1.00  0.00     0.040 C 
HETATM   36  C   UNL     1      38.085 -12.316  -1.307  1.00  0.00     0.040 C 
ENDBRANCH  33  34
ENDBRANCH  31  33
ENDBRANCH  10  31
TORSDOF 9
ENDMDL
MODEL 3
REMARK VINA RESULT:      -7.0      3.365      7.923
REMARK  9 active torsions:
REMARK  status: ('A' for Active; 'I' for Inactive)
REMARK    1  A    between atoms: C_6  and  C_7 
REMARK    2  A    between atoms: C_7  and  C_8 
REMARK       I    between atoms: C_8  and  N_9 
REMARK    3  A    between atoms: N_9  and  C_10 
REMARK    4  A    between atoms: C_10  and  C_11 
REMARK    5  A    between atoms: C_11  and  N_12 
REMARK    6  A    between atoms: C_19  and  C_20 
REMARK    7  A    between atoms: C_29  and  C_30 
REMARK    8  A    between atoms: C_30  and  O_31 
REMARK    9  A    between atoms: O_31  and  C_32 
ROOT
HETATM    1  C   UNL     1      41.693 -10.555   0.967  1.00  0.00     0.071 C 
HETATM    2  C   UNL     1      41.780 -11.625   2.026  1.00  0.00     0.048 C 
HETATM    3  N   UNL     1      42.921 -11.542   2.824  1.00  0.00    -0.229 NA
HETATM    4  C   UNL     1      42.801 -12.024   4.015  1.00  0.00     0.170 C 
HETATM    5  N   UNL     1      41.540 -12.796   4.467  1.00  0.00    -0.318 N 
HETATM    6  C   UNL     1      41.199 -12.422   5.653  1.00  0.00     0.011 C 
HETATM    7  C   UNL     1      40.961 -13.565   3.338  1.00  0.00     0.168 C 
HETATM    8  S   UNL     1      43.790 -11.629   5.371  1.00  0.00    -0.086 SA
HETATM    9  C   UNL     1      42.312 -11.760   6.455  1.00  0.00     0.135 C 
HETATM   10  C   UNL     1      40.803 -12.532   2.267  1.00  0.00     0.069 C 
ENDROOT
BRANCH   6  11
HETATM   11  C   UNL     1      39.782 -12.582   6.127  1.00  0.00     0.156 C 
BRANCH  11  12
HETATM   12  C   UNL     1      39.065 -11.251   6.237  1.00  0.00     0.223 C 
HETATM   13  N   UNL     1      39.009 -10.471   5.099  1.00  0.00    -0.359 N 
HETATM   14  H   UNL     1      39.560 -10.723   4.283  1.00  0.00     0.162 HD
HETATM   15  O   UNL     1      38.634 -10.870   7.320  1.00  0.00    -0.273 OA
BRANCH  13  16
HETATM   16  C   UNL     1      38.468  -9.114   5.194  1.00  0.00     0.150 C 
BRANCH  16  17
HETATM   17  C   UNL     1      38.086  -8.478   3.842  1.00  0.00     0.254 C 
BRANCH  17  18
HETATM   18  N   UNL     1      39.206  -8.605   2.828  1.00  0.00    -0.070 N 
HETATM   19  H   UNL     1      39.477  -9.597   2.748  1.00  0.00     0.279 HD
HETATM   20  C   UNL     1      40.463  -7.817   3.181  1.00  0.00     0.235 C 
HETATM   21  C   UNL     1      40.465  -6.659   2.207  1.00  0.00     0.029 C 
HETATM   22  C   UNL     1      39.936  -7.290   0.938  1.00  0.00     0.029 C 
HETATM   23  C   UNL     1      38.791  -8.153   1.427  1.00  0.00     0.235 C 
ENDBRANCH  17  18
ENDBRANCH  16  17
ENDBRANCH  13  16
ENDBRANCH  11  12
ENDBRANCH   6  11
BRANCH   7  24
HETATM   24  C   UNL     1      41.834 -14.804   3.035  1.00  0.00    -0.009 A 
HETATM   25  C   UNL     1      42.056 -15.901   3.903  1.00  0.00     0.042 A 
HETATM   26 CL   UNL     1      41.461 -16.010   5.520  1.00  0.00    -0.084 Cl
HETATM   27  C   UNL     1      42.821 -17.004   3.494  1.00  0.00     0.024 A 
HETATM   28  C   UNL     1      43.409 -17.040   2.236  1.00  0.00     0.002 A 
HETATM   29  C   UNL     1      43.264 -15.954   1.386  1.00  0.00     0.001 A 
HETATM   30  C   UNL     1      42.505 -14.850   1.784  1.00  0.00     0.011 A 
ENDBRANCH   7  24
BRANCH  10  31
HETATM   31  C   UNL     1      39.421 -12.363   1.773  1.00  0.00     0.294 C 
HETATM   32  O   UNL     1      38.626 -11.625   2.333  1.00  0.00    -0.259 OA
BRANCH  31  33
HETATM   33  O   UNL     1      39.148 -13.321   0.866  1.00  0.00    -0.313 OA
BRANCH  33  34
HETATM   34  C   UNL     1      39.510 -13.048  -0.504  1.00  0.00     0.124 C 
HETATM   35  C   UNL     1      39.850 -14.349  -1.214  1.00  0.00     0.040 C 
HETATM   36  C   UNL     1      38.314 -12.361  -1.150  1.00  0.00     0.040 C 
ENDBRANCH  33  34
ENDBRANCH  31  33
ENDBRANCH  10  31
TORSDOF 9
ENDMDL
MODEL 4
REMARK VINA RESULT:      -7.0      4.004      6.448
REMARK  9 active torsions:
REMARK  status: ('A' for Active; 'I' for Inactive)
REMARK    1  A    between atoms: C_6  and  C_7 
REMARK    2  A    between atoms: C_7  and  C_8 
REMARK       I    between atoms: C_8  and  N_9 
REMARK    3  A    between atoms: N_9  and  C_10 
REMARK    4  A    between atoms: C_10  and  C_11 
REMARK    5  A    between atoms: C_11  and  N_12 
REMARK    6  A    between atoms: C_19  and  C_20 
REMARK    7  A    between atoms: C_29  and  C_30 
REMARK    8  A    between atoms: C_30  and  O_31 
REMARK    9  A    between atoms: O_31  and  C_32 
ROOT
HETATM    1  C   UNL     1      44.959  -7.937   8.620  1.00  0.00     0.071 C 
HETATM    2  C   UNL     1      43.684  -7.994   9.424  1.00  0.00     0.048 C 
HETATM    3  N   UNL     1      42.950  -6.809   9.410  1.00  0.00    -0.229 NA
HETATM    4  C   UNL     1      41.678  -6.941   9.581  1.00  0.00     0.170 C 
HETATM    5  N   UNL     1      41.035  -8.298   9.951  1.00  0.00    -0.318 N 
HETATM    6  C   UNL     1      39.960  -8.476   9.262  1.00  0.00     0.011 C 
HETATM    7  C   UNL     1      41.945  -9.095  10.811  1.00  0.00     0.168 C 
HETATM    8  S   UNL     1      40.469  -5.803   9.115  1.00  0.00    -0.086 SA
HETATM    9  C   UNL     1      39.354  -7.201   8.689  1.00  0.00     0.135 C 
HETATM   10  C   UNL     1      43.221  -9.114  10.029  1.00  0.00     0.069 C 
ENDROOT
BRANCH   6  11
HETATM   11  C   UNL     1      39.432  -9.861   9.012  1.00  0.00     0.156 C 
BRANCH  11  12
HETATM   12  C   UNL     1      39.475 -10.228   7.542  1.00  0.00     0.223 C 
HETATM   13  N   UNL     1      40.722 -10.360   6.963  1.00  0.00    -0.359 N 
HETATM   14  H   UNL     1      41.552 -10.069   7.472  1.00  0.00     0.162 HD
HETATM   15  O   UNL     1      38.436 -10.319   6.899  1.00  0.00    -0.273 OA
BRANCH  13  16
HETATM   16  C   UNL     1      40.815 -10.558   5.516  1.00  0.00     0.150 C 
BRANCH  16  17
HETATM   17  C   UNL     1      42.183 -10.197   4.904  1.00  0.00     0.254 C 
BRANCH  17  18
HETATM   18  N   UNL     1      42.414 -10.913   3.588  1.00  0.00    -0.070 N 
HETATM   19  H   UNL     1      42.431 -10.219   2.826  1.00  0.00     0.279 HD
HETATM   20  C   UNL     1      41.346 -11.945   3.239  1.00  0.00     0.235 C 
HETATM   21  C   UNL     1      42.032 -13.278   3.445  1.00  0.00     0.029 C 
HETATM   22  C   UNL     1      43.439 -13.008   2.955  1.00  0.00     0.029 C 
HETATM   23  C   UNL     1      43.756 -11.645   3.539  1.00  0.00     0.235 C 
ENDBRANCH  17  18
ENDBRANCH  16  17
ENDBRANCH  13  16
ENDBRANCH  11  12
ENDBRANCH   6  11
BRANCH   7  24
HETATM   24  C   UNL     1      41.973  -8.510  12.241  1.00  0.00    -0.009 A 
HETATM   25  C   UNL     1      40.896  -8.498  13.160  1.00  0.00     0.042 A 
HETATM   26 CL   UNL     1      39.300  -9.056  12.808  1.00  0.00    -0.084 Cl
HETATM   27  C   UNL     1      41.057  -7.994  14.459  1.00  0.00     0.024 A 
HETATM   28  C   UNL     1      42.272  -7.463  14.875  1.00  0.00     0.002 A 
HETATM   29  C   UNL     1      43.329  -7.401  13.979  1.00  0.00     0.001 A 
HETATM   30  C   UNL     1      43.178  -7.900  12.682  1.00  0.00     0.011 A 
ENDBRANCH   7  24
BRANCH  10  31
HETATM   31  C   UNL     1      43.712 -10.465   9.686  1.00  0.00     0.294 C 
HETATM   32  O   UNL     1      44.370 -11.127  10.473  1.00  0.00    -0.259 OA
BRANCH  31  33
HETATM   33  O   UNL     1      43.572 -10.671   8.362  1.00  0.00    -0.313 OA
BRANCH  33  34
HETATM   34  C   UNL     1      44.410 -11.683   7.764  1.00  0.00     0.124 C 
HETATM   35  C   UNL     1      43.544 -12.700   7.035  1.00  0.00     0.040 C 
HETATM   36  C   UNL     1      45.351 -10.968   6.803  1.00  0.00     0.040 C 
ENDBRANCH  33  34
ENDBRANCH  31  33
ENDBRANCH  10  31
TORSDOF 9
ENDMDL
MODEL 5
REMARK VINA RESULT:      -7.0      3.286      8.020
REMARK  9 active torsions:
REMARK  status: ('A' for Active; 'I' for Inactive)
REMARK    1  A    between atoms: C_6  and  C_7 
REMARK    2  A    between atoms: C_7  and  C_8 
REMARK       I    between atoms: C_8  and  N_9 
REMARK    3  A    between atoms: N_9  and  C_10 
REMARK    4  A    between atoms: C_10  and  C_11 
REMARK    5  A    between atoms: C_11  and  N_12 
REMARK    6  A    between atoms: C_19  and  C_20 
REMARK    7  A    between atoms: C_29  and  C_30 
REMARK    8  A    between atoms: C_30  and  O_31 
REMARK    9  A    between atoms: O_31  and  C_32 
ROOT
HETATM    1  C   UNL     1      41.678 -10.620   0.868  1.00  0.00     0.071 C 
HETATM    2  C   UNL     1      41.765 -11.669   1.950  1.00  0.00     0.048 C 
HETATM    3  N   UNL     1      42.899 -11.562   2.753  1.00  0.00    -0.229 NA
HETATM    4  C   UNL     1      42.774 -12.021   3.953  1.00  0.00     0.170 C 
HETATM    5  N   UNL     1      41.515 -12.793   4.411  1.00  0.00    -0.318 N 
HETATM    6  C   UNL     1      41.162 -12.398   5.587  1.00  0.00     0.011 C 
HETATM    7  C   UNL     1      40.949 -13.588   3.293  1.00  0.00     0.168 C 
HETATM    8  S   UNL     1      43.750 -11.593   5.308  1.00  0.00    -0.086 SA
HETATM    9  C   UNL     1      42.265 -11.713   6.384  1.00  0.00     0.135 C 
HETATM   10  C   UNL     1      40.793 -12.577   2.201  1.00  0.00     0.069 C 
ENDROOT
BRANCH   6  11
HETATM   11  C   UNL     1      39.743 -12.559   6.054  1.00  0.00     0.156 C 
BRANCH  11  12
HETATM   12  C   UNL     1      38.995 -11.240   6.063  1.00  0.00     0.223 C 
HETATM   13  N   UNL     1      39.089 -10.456   4.930  1.00  0.00    -0.359 N 
HETATM   14  H   UNL     1      39.755 -10.695   4.201  1.00  0.00     0.162 HD
HETATM   15  O   UNL     1      38.407 -10.872   7.073  1.00  0.00    -0.273 OA
BRANCH  13  16
HETATM   16  C   UNL     1      38.516  -9.109   4.950  1.00  0.00     0.150 C 
BRANCH  16  17
HETATM   17  C   UNL     1      39.520  -7.980   4.642  1.00  0.00     0.254 C 
BRANCH  17  18
HETATM   18  N   UNL     1      39.939  -7.245   5.900  1.00  0.00    -0.070 N 
HETATM   19  H   UNL     1      40.020  -6.238   5.690  1.00  0.00     0.279 HD
HETATM   20  C   UNL     1      41.277  -7.698   6.475  1.00  0.00     0.235 C 
HETATM   21  C   UNL     1      40.905  -8.473   7.721  1.00  0.00     0.029 C 
HETATM   22  C   UNL     1      39.735  -7.684   8.267  1.00  0.00     0.029 C 
HETATM   23  C   UNL     1      38.916  -7.372   7.030  1.00  0.00     0.235 C 
ENDBRANCH  17  18
ENDBRANCH  16  17
ENDBRANCH  13  16
ENDBRANCH  11  12
ENDBRANCH   6  11
BRANCH   7  24
HETATM   24  C   UNL     1      41.833 -14.826   3.021  1.00  0.00    -0.009 A 
HETATM   25  C   UNL     1      42.056 -15.905   3.911  1.00  0.00     0.042 A 
HETATM   26 CL   UNL     1      41.449 -15.987   5.526  1.00  0.00    -0.084 Cl
HETATM   27  C   UNL     1      42.832 -17.010   3.529  1.00  0.00     0.024 A 
HETATM   28  C   UNL     1      43.430 -17.066   2.277  1.00  0.00     0.002 A 
HETATM   29  C   UNL     1      43.284 -15.998   1.406  1.00  0.00     0.001 A 
HETATM   30  C   UNL     1      42.514 -14.892   1.776  1.00  0.00     0.011 A 
ENDBRANCH   7  24
BRANCH  10  31
HETATM   31  C   UNL     1      39.412 -12.427   1.694  1.00  0.00     0.294 C 
HETATM   32  O   UNL     1      38.591 -11.731   2.268  1.00  0.00    -0.259 OA
BRANCH  31  33
HETATM   33  O   UNL     1      39.177 -13.360   0.750  1.00  0.00    -0.313 OA
BRANCH  33  34
HETATM   34  C   UNL     1      39.422 -12.980  -0.621  1.00  0.00     0.124 C 
HETATM   35  C   UNL     1      39.774 -14.212  -1.440  1.00  0.00     0.040 C 
HETATM   36  C   UNL     1      38.147 -12.321  -1.132  1.00  0.00     0.040 C 
ENDBRANCH  33  34
ENDBRANCH  31  33
ENDBRANCH  10  31
TORSDOF 9
ENDMDL
MODEL 6
REMARK VINA RESULT:      -7.0      3.275      7.228
REMARK  9 active torsions:
REMARK  status: ('A' for Active; 'I' for Inactive)
REMARK    1  A    between atoms: C_6  and  C_7 
REMARK    2  A    between atoms: C_7  and  C_8 
REMARK       I    between atoms: C_8  and  N_9 
REMARK    3  A    between atoms: N_9  and  C_10 
REMARK    4  A    between atoms: C_10  and  C_11 
REMARK    5  A    between atoms: C_11  and  N_12 
REMARK    6  A    between atoms: C_19  and  C_20 
REMARK    7  A    between atoms: C_29  and  C_30 
REMARK    8  A    between atoms: C_30  and  O_31 
REMARK    9  A    between atoms: O_31  and  C_32 
ROOT
HETATM    1  C   UNL     1      41.934 -12.470   3.095  1.00  0.00     0.071 C 
HETATM    2  C   UNL     1      42.045 -11.582   4.310  1.00  0.00     0.048 C 
HETATM    3  N   UNL     1      42.107 -10.221   4.013  1.00  0.00    -0.229 NA
HETATM    4  C   UNL     1      41.662  -9.433   4.933  1.00  0.00     0.170 C 
HETATM    5  N   UNL     1      41.253  -9.949   6.332  1.00  0.00    -0.318 N 
HETATM    6  C   UNL     1      40.153  -9.386   6.702  1.00  0.00     0.011 C 
HETATM    7  C   UNL     1      42.105 -11.092   6.742  1.00  0.00     0.168 C 
HETATM    8  S   UNL     1      41.125  -7.810   4.702  1.00  0.00    -0.086 SA
HETATM    9  C   UNL     1      39.830  -8.086   5.977  1.00  0.00     0.135 C 
HETATM   10  C   UNL     1      41.988 -12.035   5.585  1.00  0.00     0.069 C 
ENDROOT
BRANCH   6  11
HETATM   11  C   UNL     1      39.262 -10.043   7.717  1.00  0.00     0.156 C 
BRANCH  11  12
HETATM   12  C   UNL     1      39.294  -9.324   9.051  1.00  0.00     0.223 C 
HETATM   13  N   UNL     1      40.111  -9.852  10.031  1.00  0.00    -0.359 N 
HETATM   14  H   UNL     1      40.540 -10.764   9.898  1.00  0.00     0.162 HD
HETATM   15  O   UNL     1      38.557  -8.365   9.252  1.00  0.00    -0.273 OA
BRANCH  13  16
HETATM   16  C   UNL     1      40.057  -9.288  11.381  1.00  0.00     0.150 C 
BRANCH  16  17
HETATM   17  C   UNL     1      40.495 -10.254  12.499  1.00  0.00     0.254 C 
BRANCH  17  18
HETATM   18  N   UNL     1      41.946 -10.042  12.885  1.00  0.00    -0.070 N 
HETATM   19  H   UNL     1      42.307 -10.904  13.322  1.00  0.00     0.279 HD
HETATM   20  C   UNL     1      42.171  -8.903  13.875  1.00  0.00     0.235 C 
HETATM   21  C   UNL     1      42.813  -7.810  13.047  1.00  0.00     0.029 C 
HETATM   22  C   UNL     1      43.711  -8.587  12.109  1.00  0.00     0.029 C 
HETATM   23  C   UNL     1      42.844  -9.754  11.682  1.00  0.00     0.235 C 
ENDBRANCH  17  18
ENDBRANCH  16  17
ENDBRANCH  13  16
ENDBRANCH  11  12
ENDBRANCH   6  11
BRANCH   7  24
HETATM   24  C   UNL     1      43.513 -10.592   7.137  1.00  0.00    -0.009 A 
HETATM   25  C   UNL     1      43.806  -9.416   7.869  1.00  0.00     0.042 A 
HETATM   26 CL   UNL     1      42.631  -8.258   8.378  1.00  0.00    -0.084 Cl
HETATM   27  C   UNL     1      45.125  -9.094   8.224  1.00  0.00     0.024 A 
HETATM   28  C   UNL     1      46.187  -9.904   7.842  1.00  0.00     0.002 A 
HETATM   29  C   UNL     1      45.940 -11.028   7.071  1.00  0.00     0.001 A 
HETATM   30  C   UNL     1      44.631 -11.358   6.710  1.00  0.00     0.011 A 
ENDBRANCH   7  24
BRANCH  10  31
HETATM   31  C   UNL     1      41.467 -13.374   5.932  1.00  0.00     0.294 C 
HETATM   32  O   UNL     1      40.287 -13.555   6.189  1.00  0.00    -0.259 OA
BRANCH  31  33
HETATM   33  O   UNL     1      42.496 -14.204   6.187  1.00  0.00    -0.313 OA
BRANCH  33  34
HETATM   34  C   UNL     1      42.277 -15.611   5.950  1.00  0.00     0.124 C 
HETATM   35  C   UNL     1      43.141 -16.076   4.787  1.00  0.00     0.040 C 
HETATM   36  C   UNL     1      42.641 -16.340   7.236  1.00  0.00     0.040 C 
ENDBRANCH  33  34
ENDBRANCH  31  33
ENDBRANCH  10  31
TORSDOF 9
ENDMDL
MODEL 7
REMARK VINA RESULT:      -6.7      3.492      5.831
REMARK  9 active torsions:
REMARK  status: ('A' for Active; 'I' for Inactive)
REMARK    1  A    between atoms: C_6  and  C_7 
REMARK    2  A    between atoms: C_7  and  C_8 
REMARK       I    between atoms: C_8  and  N_9 
REMARK    3  A    between atoms: N_9  and  C_10 
REMARK    4  A    between atoms: C_10  and  C_11 
REMARK    5  A    between atoms: C_11  and  N_12 
REMARK    6  A    between atoms: C_19  and  C_20 
REMARK    7  A    between atoms: C_29  and  C_30 
REMARK    8  A    between atoms: C_30  and  O_31 
REMARK    9  A    between atoms: O_31  and  C_32 
ROOT
HETATM    1  C   UNL     1      45.766  -8.433   8.336  1.00  0.00     0.071 C 
HETATM    2  C   UNL     1      44.359  -8.296   8.864  1.00  0.00     0.048 C 
HETATM    3  N   UNL     1      43.797  -7.036   8.661  1.00  0.00    -0.229 NA
HETATM    4  C   UNL     1      42.510  -7.010   8.572  1.00  0.00     0.170 C 
HETATM    5  N   UNL     1      41.642  -8.259   8.848  1.00  0.00    -0.318 N 
HETATM    6  C   UNL     1      40.712  -8.351   7.960  1.00  0.00     0.011 C 
HETATM    7  C   UNL     1      42.255  -9.105   9.902  1.00  0.00     0.168 C 
HETATM    8  S   UNL     1      41.571  -5.768   7.832  1.00  0.00    -0.086 SA
HETATM    9  C   UNL     1      40.397  -7.049   7.233  1.00  0.00     0.135 C 
HETATM   10  C   UNL     1      43.649  -9.318   9.398  1.00  0.00     0.069 C 
ENDROOT
BRANCH   6  11
HETATM   11  C   UNL     1      40.075  -9.677   7.653  1.00  0.00     0.156 C 
BRANCH  11  12
HETATM   12  C   UNL     1      40.405 -10.155   6.253  1.00  0.00     0.223 C 
HETATM   13  N   UNL     1      39.343 -10.491   5.436  1.00  0.00    -0.359 N 
HETATM   14  H   UNL     1      38.405 -10.557   5.824  1.00  0.00     0.162 HD
HETATM   15  O   UNL     1      41.572 -10.305   5.911  1.00  0.00    -0.273 OA
BRANCH  13  16
HETATM   16  C   UNL     1      39.613 -11.105   4.136  1.00  0.00     0.150 C 
BRANCH  16  17
HETATM   17  C   UNL     1      39.475 -12.640   4.108  1.00  0.00     0.254 C 
BRANCH  17  18
HETATM   18  N   UNL     1      40.600 -13.317   4.865  1.00  0.00    -0.070 N 
HETATM   19  H   UNL     1      41.327 -12.618   5.084  1.00  0.00     0.279 HD
HETATM   20  C   UNL     1      41.276 -14.451   4.101  1.00  0.00     0.235 C 
HETATM   21  C   UNL     1      40.800 -15.707   4.798  1.00  0.00     0.029 C 
HETATM   22  C   UNL     1      40.764 -15.288   6.252  1.00  0.00     0.029 C 
HETATM   23  C   UNL     1      40.146 -13.905   6.202  1.00  0.00     0.235 C 
ENDBRANCH  17  18
ENDBRANCH  16  17
ENDBRANCH  13  16
ENDBRANCH  11  12
ENDBRANCH   6  11
BRANCH   7  24
HETATM   24  C   UNL     1      42.071  -8.447  11.287  1.00  0.00    -0.009 A 
HETATM   25  C   UNL     1      40.846  -8.018  11.852  1.00  0.00     0.042 A 
HETATM   26 CL   UNL     1      39.321  -8.066  11.042  1.00  0.00    -0.084 Cl
HETATM   27  C   UNL     1      40.792  -7.488  13.150  1.00  0.00     0.024 A 
HETATM   28  C   UNL     1      41.946  -7.339  13.910  1.00  0.00     0.002 A 
HETATM   29  C   UNL     1      43.170  -7.689  13.362  1.00  0.00     0.001 A 
HETATM   30  C   UNL     1      43.235  -8.217  12.070  1.00  0.00     0.011 A 
ENDBRANCH   7  24
BRANCH  10  31
HETATM   31  C   UNL     1      44.025 -10.734   9.207  1.00  0.00     0.294 C 
HETATM   32  O   UNL     1      44.766 -11.311   9.987  1.00  0.00    -0.259 OA
BRANCH  31  33
HETATM   33  O   UNL     1      43.677 -11.128   7.967  1.00  0.00    -0.313 OA
BRANCH  33  34
HETATM   34  C   UNL     1      44.568 -12.045   7.297  1.00  0.00     0.124 C 
HETATM   35  C   UNL     1      43.778 -13.232   6.766  1.00  0.00     0.040 C 
HETATM   36  C   UNL     1      45.231 -11.271   6.165  1.00  0.00     0.040 C 
ENDBRANCH  33  34
ENDBRANCH  31  33
ENDBRANCH  10  31
TORSDOF 9
ENDMDL
MODEL 8
REMARK VINA RESULT:      -6.6      3.925      6.258
REMARK  9 active torsions:
REMARK  status: ('A' for Active; 'I' for Inactive)
REMARK    1  A    between atoms: C_6  and  C_7 
REMARK    2  A    between atoms: C_7  and  C_8 
REMARK       I    between atoms: C_8  and  N_9 
REMARK    3  A    between atoms: N_9  and  C_10 
REMARK    4  A    between atoms: C_10  and  C_11 
REMARK    5  A    between atoms: C_11  and  N_12 
REMARK    6  A    between atoms: C_19  and  C_20 
REMARK    7  A    between atoms: C_29  and  C_30 
REMARK    8  A    between atoms: C_30  and  O_31 
REMARK    9  A    between atoms: O_31  and  C_32 
ROOT
HETATM    1  C   UNL     1      38.887 -11.595   5.702  1.00  0.00     0.071 C 
HETATM    2  C   UNL     1      40.363 -11.903   5.667  1.00  0.00     0.048 C 
HETATM    3  N   UNL     1      40.733 -12.997   6.447  1.00  0.00    -0.229 NA
HETATM    4  C   UNL     1      41.789 -13.626   6.056  1.00  0.00     0.170 C 
HETATM    5  N   UNL     1      42.682 -13.100   4.908  1.00  0.00    -0.318 N 
HETATM    6  C   UNL     1      43.020 -14.074   4.134  1.00  0.00     0.011 C 
HETATM    7  C   UNL     1      42.705 -11.616   4.896  1.00  0.00     0.168 C 
HETATM    8  S   UNL     1      42.205 -15.252   6.452  1.00  0.00    -0.086 SA
HETATM    9  C   UNL     1      42.908 -15.456   4.766  1.00  0.00     0.135 C 
HETATM   10  C   UNL     1      41.252 -11.254   4.878  1.00  0.00     0.069 C 
ENDROOT
BRANCH   6  11
HETATM   11  C   UNL     1      43.413 -13.816   2.707  1.00  0.00     0.156 C 
BRANCH  11  12
HETATM   12  C   UNL     1      42.519 -14.553   1.729  1.00  0.00     0.223 C 
HETATM   13  N   UNL     1      41.311 -13.964   1.415  1.00  0.00    -0.359 N 
HETATM   14  H   UNL     1      40.987 -13.156   1.942  1.00  0.00     0.162 HD
HETATM   15  O   UNL     1      42.842 -15.659   1.312  1.00  0.00    -0.273 OA
BRANCH  13  16
HETATM   16  C   UNL     1      40.348 -14.708   0.601  1.00  0.00     0.150 C 
BRANCH  16  17
HETATM   17  C   UNL     1      40.117 -14.131  -0.809  1.00  0.00     0.254 C 
BRANCH  17  18
HETATM   18  N   UNL     1      38.703 -14.386  -1.293  1.00  0.00    -0.070 N 
HETATM   19  H   UNL     1      38.151 -14.792  -0.522  1.00  0.00     0.279 HD
HETATM   20  C   UNL     1      38.609 -15.348  -2.473  1.00  0.00     0.235 C 
HETATM   21  C   UNL     1      38.256 -14.464  -3.649  1.00  0.00     0.029 C 
HETATM   22  C   UNL     1      37.313 -13.452  -3.035  1.00  0.00     0.029 C 
HETATM   23  C   UNL     1      37.981 -13.107  -1.718  1.00  0.00     0.235 C 
ENDBRANCH  17  18
ENDBRANCH  16  17
ENDBRANCH  13  16
ENDBRANCH  11  12
ENDBRANCH   6  11
BRANCH   7  24
HETATM   24  C   UNL     1      43.574 -11.089   6.060  1.00  0.00    -0.009 A 
HETATM   25  C   UNL     1      43.181 -10.135   7.029  1.00  0.00     0.042 A 
HETATM   26 CL   UNL     1      41.668  -9.302   7.031  1.00  0.00    -0.084 Cl
HETATM   27  C   UNL     1      44.038  -9.776   8.081  1.00  0.00     0.024 A 
HETATM   28  C   UNL     1      45.310 -10.324   8.186  1.00  0.00     0.002 A 
HETATM   29  C   UNL     1      45.749 -11.213   7.218  1.00  0.00     0.001 A 
HETATM   30  C   UNL     1      44.905 -11.576   6.165  1.00  0.00     0.011 A 
ENDBRANCH   7  24
BRANCH  10  31
HETATM   31  C   UNL     1      40.839 -10.429   3.723  1.00  0.00     0.294 C 
HETATM   32  O   UNL     1      40.615  -9.234   3.837  1.00  0.00    -0.259 OA
BRANCH  31  33
HETATM   33  O   UNL     1      40.492 -11.232   2.699  1.00  0.00    -0.313 OA
BRANCH  33  34
HETATM   34  C   UNL     1      39.503 -10.727   1.777  1.00  0.00     0.124 C 
HETATM   35  C   UNL     1      40.113 -10.601   0.388  1.00  0.00     0.040 C 
HETATM   36  C   UNL     1      38.344 -11.715   1.784  1.00  0.00     0.040 C 
ENDBRANCH  33  34
ENDBRANCH  31  33
ENDBRANCH  10  31
TORSDOF 9
ENDMDL
MODEL 9
REMARK VINA RESULT:      -6.5      3.652      8.518
REMARK  9 active torsions:
REMARK  status: ('A' for Active; 'I' for Inactive)
REMARK    1  A    between atoms: C_6  and  C_7 
REMARK    2  A    between atoms: C_7  and  C_8 
REMARK       I    between atoms: C_8  and  N_9 
REMARK    3  A    between atoms: N_9  and  C_10 
REMARK    4  A    between atoms: C_10  and  C_11 
REMARK    5  A    between atoms: C_11  and  N_12 
REMARK    6  A    between atoms: C_19  and  C_20 
REMARK    7  A    between atoms: C_29  and  C_30 
REMARK    8  A    between atoms: C_30  and  O_31 
REMARK    9  A    between atoms: O_31  and  C_32 
ROOT
HETATM    1  C   UNL     1      41.678 -10.255   0.842  1.00  0.00     0.071 C 
HETATM    2  C   UNL     1      41.730 -11.314   1.915  1.00  0.00     0.048 C 
HETATM    3  N   UNL     1      42.862 -11.245   2.726  1.00  0.00    -0.229 NA
HETATM    4  C   UNL     1      42.717 -11.709   3.921  1.00  0.00     0.170 C 
HETATM    5  N   UNL     1      41.435 -12.450   4.366  1.00  0.00    -0.318 N 
HETATM    6  C   UNL     1      41.087 -12.054   5.543  1.00  0.00     0.011 C 
HETATM    7  C   UNL     1      40.853 -13.221   3.240  1.00  0.00     0.168 C 
HETATM    8  S   UNL     1      43.698 -11.320   5.284  1.00  0.00    -0.086 SA
HETATM    9  C   UNL     1      42.204 -11.406   6.351  1.00  0.00     0.135 C 
HETATM   10  C   UNL     1      40.731 -12.197   2.154  1.00  0.00     0.069 C 
ENDROOT
BRANCH   6  11
HETATM   11  C   UNL     1      39.662 -12.179   6.002  1.00  0.00     0.156 C 
BRANCH  11  12
HETATM   12  C   UNL     1      38.986 -10.828   6.130  1.00  0.00     0.223 C 
HETATM   13  N   UNL     1      38.770 -10.120   4.964  1.00  0.00    -0.359 N 
HETATM   14  H   UNL     1      39.191 -10.434   4.094  1.00  0.00     0.162 HD
HETATM   15  O   UNL     1      38.725 -10.372   7.237  1.00  0.00    -0.273 OA
BRANCH  13  16
HETATM   16  C   UNL     1      38.266  -8.749   5.050  1.00  0.00     0.150 C 
BRANCH  16  17
HETATM   17  C   UNL     1      37.818  -8.143   3.705  1.00  0.00     0.254 C 
BRANCH  17  18
HETATM   18  N   UNL     1      36.954  -6.914   3.904  1.00  0.00    -0.070 N 
HETATM   19  H   UNL     1      37.522  -6.071   3.724  1.00  0.00     0.279 HD
HETATM   20  C   UNL     1      36.372  -6.778   5.307  1.00  0.00     0.235 C 
HETATM   21  C   UNL     1      34.902  -7.097   5.134  1.00  0.00     0.029 C 
HETATM   22  C   UNL     1      34.582  -6.474   3.793  1.00  0.00     0.029 C 
HETATM   23  C   UNL     1      35.772  -6.856   2.936  1.00  0.00     0.235 C 
ENDBRANCH  17  18
ENDBRANCH  16  17
ENDBRANCH  13  16
ENDBRANCH  11  12
ENDBRANCH   6  11
BRANCH   7  24
HETATM   24  C   UNL     1      41.704 -14.481   2.962  1.00  0.00    -0.009 A 
HETATM   25  C   UNL     1      41.835 -15.603   3.815  1.00  0.00     0.042 A 
HETATM   26 CL   UNL     1      41.136 -15.728   5.389  1.00  0.00    -0.084 Cl
HETATM   27  C   UNL     1      42.589 -16.722   3.429  1.00  0.00     0.024 A 
HETATM   28  C   UNL     1      43.255 -16.750   2.209  1.00  0.00     0.002 A 
HETATM   29  C   UNL     1      43.198 -15.642   1.379  1.00  0.00     0.001 A 
HETATM   30  C   UNL     1      42.451 -14.522   1.754  1.00  0.00     0.011 A 
ENDBRANCH   7  24
BRANCH  10  31
HETATM   31  C   UNL     1      39.358 -12.005   1.641  1.00  0.00     0.294 C 
HETATM   32  O   UNL     1      38.608 -11.167   2.116  1.00  0.00    -0.259 OA
BRANCH  31  33
HETATM   33  O   UNL     1      39.029 -13.039   0.843  1.00  0.00    -0.313 OA
BRANCH  33  34
HETATM   34  C   UNL     1      39.547 -13.017  -0.504  1.00  0.00     0.124 C 
HETATM   35  C   UNL     1      39.802 -14.439  -0.979  1.00  0.00     0.040 C 
HETATM   36  C   UNL     1      38.503 -12.324  -1.369  1.00  0.00     0.040 C 
ENDBRANCH  33  34
ENDBRANCH  31  33
ENDBRANCH  10  31
TORSDOF 9
ENDMDL
MODEL 10
REMARK VINA RESULT:      -6.5      3.597      5.095
REMARK  9 active torsions:
REMARK  status: ('A' for Active; 'I' for Inactive)
REMARK    1  A    between atoms: C_6  and  C_7 
REMARK    2  A    between atoms: C_7  and  C_8 
REMARK       I    between atoms: C_8  and  N_9 
REMARK    3  A    between atoms: N_9  and  C_10 
REMARK    4  A    between atoms: C_10  and  C_11 
REMARK    5  A    between atoms: C_11  and  N_12 
REMARK    6  A    between atoms: C_19  and  C_20 
REMARK    7  A    between atoms: C_29  and  C_30 
REMARK    8  A    between atoms: C_30  and  O_31 
REMARK    9  A    between atoms: O_31  and  C_32 
ROOT
HETATM    1  C   UNL     1      45.473  -8.443   8.499  1.00  0.00     0.071 C 
HETATM    2  C   UNL     1      43.970  -8.328   8.581  1.00  0.00     0.048 C 
HETATM    3  N   UNL     1      43.476  -7.081   8.202  1.00  0.00    -0.229 NA
HETATM    4  C   UNL     1      42.274  -7.080   7.733  1.00  0.00     0.170 C 
HETATM    5  N   UNL     1      41.382  -8.343   7.754  1.00  0.00    -0.318 N 
HETATM    6  C   UNL     1      40.761  -8.459   6.630  1.00  0.00     0.011 C 
HETATM    7  C   UNL     1      41.666  -9.169   8.954  1.00  0.00     0.168 C 
HETATM    8  S   UNL     1      41.579  -5.862   6.729  1.00  0.00    -0.086 SA
HETATM    9  C   UNL     1      40.658  -7.170   5.825  1.00  0.00     0.135 C 
HETATM   10  C   UNL     1      43.149  -9.359   8.893  1.00  0.00     0.069 C 
ENDROOT
BRANCH   6  11
HETATM   11  C   UNL     1      40.266  -9.800   6.165  1.00  0.00     0.156 C 
BRANCH  11  12
HETATM   12  C   UNL     1      41.211 -10.439   5.166  1.00  0.00     0.223 C 
HETATM   13  N   UNL     1      40.898 -11.712   4.731  1.00  0.00    -0.359 N 
HETATM   14  H   UNL     1      40.155 -12.236   5.185  1.00  0.00     0.162 HD
HETATM   15  O   UNL     1      42.242  -9.864   4.838  1.00  0.00    -0.273 OA
BRANCH  13  16
HETATM   16  C   UNL     1      41.858 -12.431   3.891  1.00  0.00     0.150 C 
BRANCH  16  17
HETATM   17  C   UNL     1      41.557 -13.932   3.713  1.00  0.00     0.254 C 
BRANCH  17  18
HETATM   18  N   UNL     1      42.823 -14.732   3.475  1.00  0.00    -0.070 N 
HETATM   19  H   UNL     1      43.561 -14.390   4.110  1.00  0.00     0.279 HD
HETATM   20  C   UNL     1      43.367 -14.636   2.054  1.00  0.00     0.235 C 
HETATM   21  C   UNL     1      43.064 -15.989   1.446  1.00  0.00     0.029 C 
HETATM   22  C   UNL     1      43.298 -16.934   2.604  1.00  0.00     0.029 C 
HETATM   23  C   UNL     1      42.648 -16.222   3.773  1.00  0.00     0.235 C 
ENDBRANCH  17  18
ENDBRANCH  16  17
ENDBRANCH  13  16
ENDBRANCH  11  12
ENDBRANCH   6  11
BRANCH   7  24
HETATM   24  C   UNL     1      41.066  -8.502  10.212  1.00  0.00    -0.009 A 
HETATM   25  C   UNL     1      41.722  -8.323  11.455  1.00  0.00     0.042 A 
HETATM   26 CL   UNL     1      43.301  -8.913  11.826  1.00  0.00    -0.084 Cl
HETATM   27  C   UNL     1      41.096  -7.645  12.512  1.00  0.00     0.024 A 
HETATM   28  C   UNL     1      39.803  -7.154  12.383  1.00  0.00     0.002 A 
HETATM   29  C   UNL     1      39.110  -7.369  11.201  1.00  0.00     0.001 A 
HETATM   30  C   UNL     1      39.723  -8.044  10.142  1.00  0.00     0.011 A 
ENDBRANCH   7  24
BRANCH  10  31
HETATM   31  C   UNL     1      43.587 -10.770   8.842  1.00  0.00     0.294 C 
HETATM   32  O   UNL     1      44.171 -11.293   9.777  1.00  0.00    -0.259 OA
BRANCH  31  33
HETATM   33  O   UNL     1      43.501 -11.221   7.576  1.00  0.00    -0.313 OA
BRANCH  33  34
HETATM   34  C   UNL     1      44.558 -12.091   7.117  1.00  0.00     0.124 C 
HETATM   35  C   UNL     1      43.970 -13.420   6.668  1.00  0.00     0.040 C 
HETATM   36  C   UNL     1      45.253 -11.376   5.966  1.00  0.00     0.040 C 
ENDBRANCH  33  34
ENDBRANCH  31  33
ENDBRANCH  10  31
TORSDOF 9
ENDMDL
