MODEL 1
REMARK VINA RESULT:      -9.7      0.000      0.000
REMARK  7 active torsions:
REMARK  status: ('A' for Active; 'I' for Inactive)
REMARK    1  A    between atoms: C_2  and  C_3 
REMARK    2  A    between atoms: C_3  and  C_4 
REMARK    3  A    between atoms: C_7  and  C_8 
REMARK    4  A    between atoms: C_14  and  C_15 
REMARK    5  A    between atoms: C_18  and  O_19 
REMARK    6  A    between atoms: O_19  and  C_20 
REMARK       I    between atoms: C_20  and  N_21 
REMARK    7  A    between atoms: C_33  and  N_34 
ROOT
HETATM    1  C   UNL     1      40.807 -13.378   1.576  1.00  0.00     0.099 A 
HETATM    2  N   UNL     1      40.784 -12.902   0.314  1.00  0.00    -0.172 NA
HETATM    3  N   UNL     1      40.094 -11.751   0.388  1.00  0.00    -0.256 N 
HETATM    4  H   UNL     1      39.937 -11.219  -0.460  1.00  0.00     0.191 HD
HETATM    5  C   UNL     1      39.697 -11.459   1.649  1.00  0.00     0.175 A 
HETATM    6  C   UNL     1      40.136 -12.479   2.455  1.00  0.00     0.040 A 
HETATM    7  C   UNL     1      39.845 -12.427   3.918  1.00  0.00     0.106 A 
HETATM    8  C   UNL     1      39.011 -11.190   4.263  1.00  0.00     0.081 A 
HETATM    9  C   UNL     1      38.566 -11.075   5.613  1.00  0.00     0.100 C 
HETATM   10  N   UNL     1      38.194 -10.981   6.707  1.00  0.00    -0.191 NA
HETATM   11  C   UNL     1      38.646 -10.262   3.337  1.00  0.00     0.140 A 
HETATM   12  O   UNL     1      39.015 -10.372   1.987  1.00  0.00    -0.279 OA
ENDROOT
BRANCH   7  13
HETATM   13  C   UNL     1      41.184 -12.458   4.646  1.00  0.00    -0.044 A 
HETATM   14  C   UNL     1      42.183 -11.487   4.443  1.00  0.00     0.011 A 
HETATM   15  C   UNL     1      43.392 -11.548   5.141  1.00  0.00     0.038 A 
HETATM   16  C   UNL     1      43.596 -12.564   6.071  1.00  0.00     0.081 A 
HETATM   17  C   UNL     1      42.624 -13.535   6.294  1.00  0.00     0.038 A 
HETATM   18  C   UNL     1      41.419 -13.472   5.595  1.00  0.00     0.011 A 
BRANCH  16  19
HETATM   19  O   UNL     1      44.854 -12.631   6.687  1.00  0.00    -0.261 OA
BRANCH  19  20
HETATM   20  C   UNL     1      45.612 -11.463   6.751  1.00  0.00     0.368 C 
HETATM   21  N   UNL     1      45.172 -10.606   7.749  1.00  0.00    -0.324 N 
HETATM   22  C   UNL     1      45.982  -9.437   8.083  1.00  0.00     0.154 C 
HETATM   23  C   UNL     1      44.209 -11.009   8.774  1.00  0.00     0.154 C 
HETATM   24  C   UNL     1      45.122  -8.304   8.646  1.00  0.00     0.187 C 
HETATM   25  O   UNL     1      44.315  -8.762   9.743  1.00  0.00    -0.388 OA
HETATM   26  C   UNL     1      43.430  -9.804   9.309  1.00  0.00     0.187 C 
HETATM   27  O   UNL     1      46.556 -11.205   6.011  1.00  0.00    -0.238 OA
ENDBRANCH  19  20
ENDBRANCH  16  19
ENDBRANCH   7  13
BRANCH  11  28
HETATM   28  N   UNL     1      37.888  -9.140   3.587  1.00  0.00    -0.282 NA
HETATM   29  H   UNL     1      37.415  -8.741   2.779  1.00  0.00     0.126 HD
HETATM   30  H   UNL     1      37.273  -9.262   4.388  1.00  0.00     0.126 HD
ENDBRANCH  11  28
BRANCH   1  31
HETATM   31  C   UNL     1      41.497 -14.636   1.875  1.00  0.00    -0.005 A 
HETATM   32  C   UNL     1      42.877 -14.739   1.651  1.00  0.00     0.014 A 
HETATM   33  C   UNL     1      43.565 -15.920   1.941  1.00  0.00     0.008 A 
HETATM   34  C   UNL     1      42.885 -17.024   2.465  1.00  0.00    -0.058 A 
HETATM   35  C   UNL     1      41.504 -16.931   2.676  1.00  0.00     0.008 A 
HETATM   36  C   UNL     1      40.815 -15.751   2.373  1.00  0.00     0.014 A 
BRANCH  34  37
HETATM   37  C   UNL     1      43.633 -18.291   2.804  1.00  0.00     0.042 C 
BRANCH  37  38
HETATM   38  C   UNL     1      43.673 -18.603   4.313  1.00  0.00    -0.019 C 
HETATM   39  C   UNL     1      44.401 -17.517   5.109  1.00  0.00     0.010 C 
HETATM   40  C   UNL     1      44.360 -19.953   4.542  1.00  0.00     0.010 C 
ENDBRANCH  37  38
ENDBRANCH  34  37
ENDBRANCH   1  31
TORSDOF 7
ENDMDL
MODEL 2
REMARK VINA RESULT:      -9.2      2.722      6.230
REMARK  7 active torsions:
REMARK  status: ('A' for Active; 'I' for Inactive)
REMARK    1  A    between atoms: C_2  and  C_3 
REMARK    2  A    between atoms: C_3  and  C_4 
REMARK    3  A    between atoms: C_7  and  C_8 
REMARK    4  A    between atoms: C_14  and  C_15 
REMARK    5  A    between atoms: C_18  and  O_19 
REMARK    6  A    between atoms: O_19  and  C_20 
REMARK       I    between atoms: C_20  and  N_21 
REMARK    7  A    between atoms: C_33  and  N_34 
ROOT
HETATM    1  C   UNL     1      39.857 -11.384   2.844  1.00  0.00     0.099 A 
HETATM    2  N   UNL     1      38.761 -10.772   3.340  1.00  0.00    -0.172 NA
HETATM    3  N   UNL     1      37.869 -10.790   2.336  1.00  0.00    -0.256 N 
HETATM    4  H   UNL     1      36.961 -10.363   2.481  1.00  0.00     0.191 HD
HETATM    5  C   UNL     1      38.337 -11.411   1.228  1.00  0.00     0.175 A 
HETATM    6  C   UNL     1      39.619 -11.816   1.507  1.00  0.00     0.040 A 
HETATM    7  C   UNL     1      40.396 -12.542   0.461  1.00  0.00     0.106 A 
HETATM    8  C   UNL     1      39.587 -12.662  -0.833  1.00  0.00     0.081 A 
HETATM    9  C   UNL     1      40.254 -13.237  -1.955  1.00  0.00     0.100 C 
HETATM   10  N   UNL     1      40.795 -13.697  -2.872  1.00  0.00    -0.191 NA
HETATM   11  C   UNL     1      38.313 -12.198  -0.955  1.00  0.00     0.140 A 
HETATM   12  O   UNL     1      37.644 -11.573   0.109  1.00  0.00    -0.279 OA
ENDROOT
BRANCH   7  13
HETATM   13  C   UNL     1      40.782 -13.897   1.044  1.00  0.00    -0.044 A 
HETATM   14  C   UNL     1      39.836 -14.898   1.334  1.00  0.00     0.011 A 
HETATM   15  C   UNL     1      40.236 -16.130   1.858  1.00  0.00     0.038 A 
HETATM   16  C   UNL     1      41.590 -16.380   2.063  1.00  0.00     0.081 A 
HETATM   17  C   UNL     1      42.548 -15.411   1.780  1.00  0.00     0.038 A 
HETATM   18  C   UNL     1      42.145 -14.181   1.259  1.00  0.00     0.011 A 
BRANCH  16  19
HETATM   19  O   UNL     1      41.936 -17.599   2.664  1.00  0.00    -0.261 OA
BRANCH  19  20
HETATM   20  C   UNL     1      43.177 -17.687   3.293  1.00  0.00     0.368 C 
HETATM   21  N   UNL     1      43.135 -17.234   4.604  1.00  0.00    -0.324 N 
HETATM   22  C   UNL     1      44.296 -17.450   5.463  1.00  0.00     0.154 C 
HETATM   23  C   UNL     1      41.882 -16.960   5.308  1.00  0.00     0.154 C 
HETATM   24  C   UNL     1      44.388 -16.385   6.556  1.00  0.00     0.187 C 
HETATM   25  O   UNL     1      43.156 -16.286   7.289  1.00  0.00    -0.388 OA
HETATM   26  C   UNL     1      42.082 -15.917   6.412  1.00  0.00     0.187 C 
HETATM   27  O   UNL     1      44.200 -18.106   2.759  1.00  0.00    -0.238 OA
ENDBRANCH  19  20
ENDBRANCH  16  19
ENDBRANCH   7  13
BRANCH  11  28
HETATM   28  N   UNL     1      37.543 -12.267  -2.095  1.00  0.00    -0.282 NA
HETATM   29  H   UNL     1      38.055 -12.230  -2.973  1.00  0.00     0.126 HD
HETATM   30  H   UNL     1      36.871 -13.030  -2.058  1.00  0.00     0.126 HD
ENDBRANCH  11  28
BRANCH   1  31
HETATM   31  C   UNL     1      41.046 -11.555   3.683  1.00  0.00    -0.005 A 
HETATM   32  C   UNL     1      42.274 -11.028   3.260  1.00  0.00     0.014 A 
HETATM   33  C   UNL     1      43.421 -11.161   4.047  1.00  0.00     0.008 A 
HETATM   34  C   UNL     1      43.363 -11.824   5.277  1.00  0.00    -0.058 A 
HETATM   35  C   UNL     1      42.142 -12.365   5.696  1.00  0.00     0.008 A 
HETATM   36  C   UNL     1      40.996 -12.241   4.902  1.00  0.00     0.014 A 
BRANCH  34  37
HETATM   37  C   UNL     1      44.596 -11.944   6.139  1.00  0.00     0.042 C 
BRANCH  37  38
HETATM   38  C   UNL     1      44.810 -10.747   7.087  1.00  0.00    -0.019 C 
HETATM   39  C   UNL     1      46.283 -10.556   7.456  1.00  0.00     0.010 C 
HETATM   40  C   UNL     1      43.984 -10.947   8.362  1.00  0.00     0.010 C 
ENDBRANCH  37  38
ENDBRANCH  34  37
ENDBRANCH   1  31
TORSDOF 7
ENDMDL
MODEL 3
REMARK VINA RESULT:      -9.1      2.963      7.049
REMARK  7 active torsions:
REMARK  status: ('A' for Active; 'I' for Inactive)
REMARK    1  A    between atoms: C_2  and  C_3 
REMARK    2  A    between atoms: C_3  and  C_4 
REMARK    3  A    between atoms: C_7  and  C_8 
REMARK    4  A    between atoms: C_14  and  C_15 
REMARK    5  A    between atoms: C_18  and  O_19 
REMARK    6  A    between atoms: O_19  and  C_20 
REMARK       I    between atoms: C_20  and  N_21 
REMARK    7  A    between atoms: C_33  and  N_34 
ROOT
HETATM    1  C   UNL     1      39.703 -11.315   2.830  1.00  0.00     0.099 A 
HETATM    2  N   UNL     1      38.554 -10.809   3.325  1.00  0.00    -0.172 NA
HETATM    3  N   UNL     1      37.696 -10.819   2.291  1.00  0.00    -0.256 N 
HETATM    4  H   UNL     1      36.757 -10.463   2.432  1.00  0.00     0.191 HD
HETATM    5  C   UNL     1      38.239 -11.335   1.164  1.00  0.00     0.175 A 
HETATM    6  C   UNL     1      39.535 -11.673   1.461  1.00  0.00     0.040 A 
HETATM    7  C   UNL     1      40.392 -12.277   0.399  1.00  0.00     0.106 A 
HETATM    8  C   UNL     1      39.632 -12.365  -0.928  1.00  0.00     0.081 A 
HETATM    9  C   UNL     1      40.370 -12.821  -2.059  1.00  0.00     0.100 C 
HETATM   10  N   UNL     1      40.969 -13.183  -2.984  1.00  0.00    -0.191 NA
HETATM   11  C   UNL     1      38.334 -11.978  -1.064  1.00  0.00     0.140 A 
HETATM   12  O   UNL     1      37.592 -11.468   0.013  1.00  0.00    -0.279 OA
ENDROOT
BRANCH   7  13
HETATM   13  C   UNL     1      40.850 -13.639   0.908  1.00  0.00    -0.044 A 
HETATM   14  C   UNL     1      39.974 -14.732   1.052  1.00  0.00     0.011 A 
HETATM   15  C   UNL     1      40.440 -15.966   1.513  1.00  0.00     0.038 A 
HETATM   16  C   UNL     1      41.793 -16.124   1.800  1.00  0.00     0.081 A 
HETATM   17  C   UNL     1      42.682 -15.062   1.662  1.00  0.00     0.038 A 
HETATM   18  C   UNL     1      42.213 -13.831   1.204  1.00  0.00     0.011 A 
BRANCH  16  19
HETATM   19  O   UNL     1      42.199 -17.355   2.335  1.00  0.00    -0.261 OA
BRANCH  19  20
HETATM   20  C   UNL     1      42.543 -17.398   3.685  1.00  0.00     0.368 C 
HETATM   21  N   UNL     1      43.227 -18.559   4.015  1.00  0.00    -0.324 N 
HETATM   22  C   UNL     1      43.838 -18.665   5.338  1.00  0.00     0.154 C 
HETATM   23  C   UNL     1      43.752 -19.484   3.011  1.00  0.00     0.154 C 
HETATM   24  C   UNL     1      43.940 -20.123   5.791  1.00  0.00     0.187 C 
HETATM   25  O   UNL     1      44.599 -20.928   4.799  1.00  0.00    -0.388 OA
HETATM   26  C   UNL     1      43.861 -20.907   3.569  1.00  0.00     0.187 C 
HETATM   27  O   UNL     1      42.272 -16.522   4.500  1.00  0.00    -0.238 OA
ENDBRANCH  19  20
ENDBRANCH  16  19
ENDBRANCH   7  13
BRANCH  11  28
HETATM   28  N   UNL     1      37.606 -12.023  -2.232  1.00  0.00    -0.282 NA
HETATM   29  H   UNL     1      37.767 -11.254  -2.879  1.00  0.00     0.126 HD
HETATM   30  H   UNL     1      37.653 -12.935  -2.679  1.00  0.00     0.126 HD
ENDBRANCH  11  28
BRANCH   1  31
HETATM   31  C   UNL     1      40.875 -11.463   3.698  1.00  0.00    -0.005 A 
HETATM   32  C   UNL     1      41.018 -12.619   4.478  1.00  0.00     0.014 A 
HETATM   33  C   UNL     1      42.132 -12.796   5.302  1.00  0.00     0.008 A 
HETATM   34  C   UNL     1      43.130 -11.817   5.361  1.00  0.00    -0.058 A 
HETATM   35  C   UNL     1      42.984 -10.654   4.596  1.00  0.00     0.008 A 
HETATM   36  C   UNL     1      41.861 -10.474   3.779  1.00  0.00     0.014 A 
BRANCH  34  37
HETATM   37  C   UNL     1      44.347 -12.020   6.232  1.00  0.00     0.042 C 
BRANCH  37  38
HETATM   38  C   UNL     1      44.707 -10.791   7.090  1.00  0.00    -0.019 C 
HETATM   39  C   UNL     1      46.202 -10.727   7.412  1.00  0.00     0.010 C 
HETATM   40  C   UNL     1      43.903 -10.820   8.393  1.00  0.00     0.010 C 
ENDBRANCH  37  38
ENDBRANCH  34  37
ENDBRANCH   1  31
TORSDOF 7
ENDMDL
MODEL 4
REMARK VINA RESULT:      -9.0      2.509      3.720
REMARK  7 active torsions:
REMARK  status: ('A' for Active; 'I' for Inactive)
REMARK    1  A    between atoms: C_2  and  C_3 
REMARK    2  A    between atoms: C_3  and  C_4 
REMARK    3  A    between atoms: C_7  and  C_8 
REMARK    4  A    between atoms: C_14  and  C_15 
REMARK    5  A    between atoms: C_18  and  O_19 
REMARK    6  A    between atoms: O_19  and  C_20 
REMARK       I    between atoms: C_20  and  N_21 
REMARK    7  A    between atoms: C_33  and  N_34 
ROOT
HETATM    1  C   UNL     1      39.995 -13.732  -0.934  1.00  0.00     0.099 A 
HETATM    2  N   UNL     1      40.437 -13.948  -2.191  1.00  0.00    -0.172 NA
HETATM    3  N   UNL     1      39.801 -13.035  -2.945  1.00  0.00    -0.256 N 
HETATM    4  H   UNL     1      39.973 -13.021  -3.944  1.00  0.00     0.191 HD
HETATM    5  C   UNL     1      38.992 -12.228  -2.220  1.00  0.00     0.175 A 
HETATM    6  C   UNL     1      39.084 -12.637  -0.913  1.00  0.00     0.040 A 
HETATM    7  C   UNL     1      38.294 -11.920   0.131  1.00  0.00     0.106 A 
HETATM    8  C   UNL     1      37.430 -10.823  -0.498  1.00  0.00     0.081 A 
HETATM    9  C   UNL     1      36.538 -10.132   0.373  1.00  0.00     0.100 C 
HETATM   10  N   UNL     1      35.805  -9.572   1.077  1.00  0.00    -0.191 NA
HETATM   11  C   UNL     1      37.447 -10.541  -1.830  1.00  0.00     0.140 A 
HETATM   12  O   UNL     1      38.268 -11.240  -2.729  1.00  0.00    -0.279 OA
ENDROOT
BRANCH   7  13
HETATM   13  C   UNL     1      39.286 -11.376   1.153  1.00  0.00    -0.044 A 
HETATM   14  C   UNL     1      40.175 -10.324   0.865  1.00  0.00     0.011 A 
HETATM   15  C   UNL     1      41.060  -9.850   1.838  1.00  0.00     0.038 A 
HETATM   16  C   UNL     1      41.037 -10.404   3.114  1.00  0.00     0.081 A 
HETATM   17  C   UNL     1      40.165 -11.442   3.428  1.00  0.00     0.038 A 
HETATM   18  C   UNL     1      39.284 -11.914   2.455  1.00  0.00     0.011 A 
BRANCH  16  19
HETATM   19  O   UNL     1      41.997  -9.951   4.031  1.00  0.00    -0.261 OA
BRANCH  19  20
HETATM   20  C   UNL     1      43.118 -10.750   4.250  1.00  0.00     0.368 C 
HETATM   21  N   UNL     1      43.384 -10.923   5.600  1.00  0.00    -0.324 N 
HETATM   22  C   UNL     1      44.396 -11.898   6.000  1.00  0.00     0.154 C 
HETATM   23  C   UNL     1      42.443 -10.536   6.651  1.00  0.00     0.154 C 
HETATM   24  C   UNL     1      45.036 -11.521   7.338  1.00  0.00     0.187 C 
HETATM   25  O   UNL     1      44.037 -11.299   8.346  1.00  0.00    -0.388 OA
HETATM   26  C   UNL     1      43.170 -10.223   7.962  1.00  0.00     0.187 C 
HETATM   27  O   UNL     1      43.804 -11.244   3.360  1.00  0.00    -0.238 OA
ENDBRANCH  19  20
ENDBRANCH  16  19
ENDBRANCH   7  13
BRANCH  11  28
HETATM   28  N   UNL     1      36.685  -9.577  -2.452  1.00  0.00    -0.282 NA
HETATM   29  H   UNL     1      36.499  -8.742  -1.901  1.00  0.00     0.126 HD
HETATM   30  H   UNL     1      37.019  -9.369  -3.389  1.00  0.00     0.126 HD
ENDBRANCH  11  28
BRANCH   1  31
HETATM   31  C   UNL     1      40.495 -14.553   0.171  1.00  0.00    -0.005 A 
HETATM   32  C   UNL     1      41.726 -14.241   0.765  1.00  0.00     0.014 A 
HETATM   33  C   UNL     1      42.221 -14.996   1.831  1.00  0.00     0.008 A 
HETATM   34  C   UNL     1      41.491 -16.080   2.329  1.00  0.00    -0.058 A 
HETATM   35  C   UNL     1      40.268 -16.404   1.730  1.00  0.00     0.008 A 
HETATM   36  C   UNL     1      39.779 -15.654   0.654  1.00  0.00     0.014 A 
BRANCH  34  37
HETATM   37  C   UNL     1      42.012 -16.879   3.499  1.00  0.00     0.042 C 
BRANCH  37  38
HETATM   38  C   UNL     1      43.341 -17.606   3.211  1.00  0.00    -0.019 C 
HETATM   39  C   UNL     1      43.153 -18.812   2.288  1.00  0.00     0.010 C 
HETATM   40  C   UNL     1      43.974 -18.063   4.529  1.00  0.00     0.010 C 
ENDBRANCH  37  38
ENDBRANCH  34  37
ENDBRANCH   1  31
TORSDOF 7
ENDMDL
MODEL 5
REMARK VINA RESULT:      -8.5     17.334     19.358
REMARK  7 active torsions:
REMARK  status: ('A' for Active; 'I' for Inactive)
REMARK    1  A    between atoms: C_2  and  C_3 
REMARK    2  A    between atoms: C_3  and  C_4 
REMARK    3  A    between atoms: C_7  and  C_8 
REMARK    4  A    between atoms: C_14  and  C_15 
REMARK    5  A    between atoms: C_18  and  O_19 
REMARK    6  A    between atoms: O_19  and  C_20 
REMARK       I    between atoms: C_20  and  N_21 
REMARK    7  A    between atoms: C_33  and  N_34 
ROOT
HETATM    1  C   UNL     1      46.945 -28.825  -1.018  1.00  0.00     0.099 A 
HETATM    2  N   UNL     1      47.231 -27.700  -1.706  1.00  0.00    -0.172 NA
HETATM    3  N   UNL     1      46.561 -27.820  -2.865  1.00  0.00    -0.256 N 
HETATM    4  H   UNL     1      46.642 -27.083  -3.556  1.00  0.00     0.191 HD
HETATM    5  C   UNL     1      45.839 -28.962  -2.936  1.00  0.00     0.175 A 
HETATM    6  C   UNL     1      46.052 -29.646  -1.765  1.00  0.00     0.040 A 
HETATM    7  C   UNL     1      45.372 -30.958  -1.554  1.00  0.00     0.106 A 
HETATM    8  C   UNL     1      44.551 -31.349  -2.786  1.00  0.00     0.081 A 
HETATM    9  C   UNL     1      43.938 -32.637  -2.765  1.00  0.00     0.100 C 
HETATM   10  N   UNL     1      43.444 -33.686  -2.755  1.00  0.00    -0.191 NA
HETATM   11  C   UNL     1      44.443 -30.555  -3.887  1.00  0.00     0.140 A 
HETATM   12  O   UNL     1      45.080 -29.307  -3.969  1.00  0.00    -0.279 OA
ENDROOT
BRANCH   7  13
HETATM   13  C   UNL     1      44.522 -30.830  -0.296  1.00  0.00    -0.044 A 
HETATM   14  C   UNL     1      44.630 -31.720   0.789  1.00  0.00     0.011 A 
HETATM   15  C   UNL     1      43.838 -31.558   1.929  1.00  0.00     0.038 A 
HETATM   16  C   UNL     1      42.957 -30.482   2.004  1.00  0.00     0.081 A 
HETATM   17  C   UNL     1      42.834 -29.584   0.949  1.00  0.00     0.038 A 
HETATM   18  C   UNL     1      43.624 -29.750  -0.188  1.00  0.00     0.011 A 
BRANCH  16  19
HETATM   19  O   UNL     1      42.127 -30.407   3.133  1.00  0.00    -0.261 OA
BRANCH  19  20
HETATM   20  C   UNL     1      41.019 -31.251   3.185  1.00  0.00     0.368 C 
HETATM   21  N   UNL     1      40.797 -31.747   4.461  1.00  0.00    -0.324 N 
HETATM   22  C   UNL     1      39.560 -32.477   4.728  1.00  0.00     0.154 C 
HETATM   23  C   UNL     1      41.480 -31.226   5.645  1.00  0.00     0.154 C 
HETATM   24  C   UNL     1      39.741 -33.483   5.867  1.00  0.00     0.187 C 
HETATM   25  O   UNL     1      40.285 -32.849   7.036  1.00  0.00    -0.388 OA
HETATM   26  C   UNL     1      41.573 -32.288   6.745  1.00  0.00     0.187 C 
HETATM   27  O   UNL     1      40.318 -31.539   2.220  1.00  0.00    -0.238 OA
ENDBRANCH  19  20
ENDBRANCH  16  19
ENDBRANCH   7  13
BRANCH  11  28
HETATM   28  N   UNL     1      43.730 -30.860  -5.025  1.00  0.00    -0.282 NA
HETATM   29  H   UNL     1      43.143 -30.113  -5.388  1.00  0.00     0.126 HD
HETATM   30  H   UNL     1      44.313 -31.290  -5.739  1.00  0.00     0.126 HD
ENDBRANCH  11  28
BRANCH   1  31
HETATM   31  C   UNL     1      47.507 -29.032   0.319  1.00  0.00    -0.005 A 
HETATM   32  C   UNL     1      48.621 -29.868   0.480  1.00  0.00     0.014 A 
HETATM   33  C   UNL     1      49.189 -30.071   1.740  1.00  0.00     0.008 A 
HETATM   34  C   UNL     1      48.655 -29.438   2.867  1.00  0.00    -0.058 A 
HETATM   35  C   UNL     1      47.534 -28.614   2.713  1.00  0.00     0.008 A 
HETATM   36  C   UNL     1      46.959 -28.421   1.451  1.00  0.00     0.014 A 
BRANCH  34  37
HETATM   37  C   UNL     1      49.285 -29.636   4.225  1.00  0.00     0.042 C 
BRANCH  37  38
HETATM   38  C   UNL     1      49.896 -31.037   4.428  1.00  0.00    -0.019 C 
HETATM   39  C   UNL     1      48.954 -31.976   5.186  1.00  0.00     0.010 C 
HETATM   40  C   UNL     1      51.220 -30.917   5.187  1.00  0.00     0.010 C 
ENDBRANCH  37  38
ENDBRANCH  34  37
ENDBRANCH   1  31
TORSDOF 7
ENDMDL
MODEL 6
REMARK VINA RESULT:      -8.2      4.400      9.345
REMARK  7 active torsions:
REMARK  status: ('A' for Active; 'I' for Inactive)
REMARK    1  A    between atoms: C_2  and  C_3 
REMARK    2  A    between atoms: C_3  and  C_4 
REMARK    3  A    between atoms: C_7  and  C_8 
REMARK    4  A    between atoms: C_14  and  C_15 
REMARK    5  A    between atoms: C_18  and  O_19 
REMARK    6  A    between atoms: O_19  and  C_20 
REMARK       I    between atoms: C_20  and  N_21 
REMARK    7  A    between atoms: C_33  and  N_34 
ROOT
HETATM    1  C   UNL     1      42.176  -8.600  12.689  1.00  0.00     0.099 A 
HETATM    2  N   UNL     1      42.342  -8.998  13.968  1.00  0.00    -0.172 NA
HETATM    3  N   UNL     1      41.338  -8.417  14.646  1.00  0.00    -0.256 N 
HETATM    4  H   UNL     1      41.273  -8.568  15.647  1.00  0.00     0.191 HD
HETATM    5  C   UNL     1      40.522  -7.686  13.852  1.00  0.00     0.175 A 
HETATM    6  C   UNL     1      41.020  -7.774  12.576  1.00  0.00     0.040 A 
HETATM    7  C   UNL     1      40.315  -7.063  11.469  1.00  0.00     0.106 A 
HETATM    8  C   UNL     1      39.119  -6.272  12.005  1.00  0.00     0.081 A 
HETATM    9  C   UNL     1      38.422  -5.453  11.069  1.00  0.00     0.100 C 
HETATM   10  N   UNL     1      37.856  -4.779  10.314  1.00  0.00    -0.191 NA
HETATM   11  C   UNL     1      38.754  -6.281  13.316  1.00  0.00     0.140 A 
HETATM   12  O   UNL     1      39.452  -7.028  14.278  1.00  0.00    -0.279 OA
ENDROOT
BRANCH   7  13
HETATM   13  C   UNL     1      39.914  -8.114  10.440  1.00  0.00    -0.044 A 
HETATM   14  C   UNL     1      40.365  -8.085   9.107  1.00  0.00     0.011 A 
HETATM   15  C   UNL     1      39.979  -9.076   8.200  1.00  0.00     0.038 A 
HETATM   16  C   UNL     1      39.168 -10.122   8.631  1.00  0.00     0.081 A 
HETATM   17  C   UNL     1      38.711 -10.178   9.945  1.00  0.00     0.038 A 
HETATM   18  C   UNL     1      39.096  -9.186  10.847  1.00  0.00     0.011 A 
BRANCH  16  19
HETATM   19  O   UNL     1      38.743 -11.047   7.667  1.00  0.00    -0.261 OA
BRANCH  19  20
HETATM   20  C   UNL     1      38.649 -10.615   6.345  1.00  0.00     0.368 C 
HETATM   21  N   UNL     1      39.431 -11.374   5.488  1.00  0.00    -0.324 N 
HETATM   22  C   UNL     1      39.286 -11.185   4.046  1.00  0.00     0.154 C 
HETATM   23  C   UNL     1      40.056 -12.634   5.890  1.00  0.00     0.154 C 
HETATM   24  C   UNL     1      40.578 -11.533   3.305  1.00  0.00     0.187 C 
HETATM   25  O   UNL     1      41.039 -12.848   3.657  1.00  0.00    -0.388 OA
HETATM   26  C   UNL     1      41.314 -12.920   5.063  1.00  0.00     0.187 C 
HETATM   27  O   UNL     1      37.963  -9.669   5.970  1.00  0.00    -0.238 OA
ENDBRANCH  19  20
ENDBRANCH  16  19
ENDBRANCH   7  13
BRANCH  11  28
HETATM   28  N   UNL     1      37.698  -5.581  13.857  1.00  0.00    -0.282 NA
HETATM   29  H   UNL     1      37.770  -5.376  14.851  1.00  0.00     0.126 HD
HETATM   30  H   UNL     1      37.452  -4.767  13.299  1.00  0.00     0.126 HD
ENDBRANCH  11  28
BRANCH   1  31
HETATM   31  C   UNL     1      43.102  -9.059  11.650  1.00  0.00    -0.005 A 
HETATM   32  C   UNL     1      43.546 -10.389  11.657  1.00  0.00     0.014 A 
HETATM   33  C   UNL     1      44.416 -10.860  10.671  1.00  0.00     0.008 A 
HETATM   34  C   UNL     1      44.858 -10.009   9.653  1.00  0.00    -0.058 A 
HETATM   35  C   UNL     1      44.428  -8.677   9.650  1.00  0.00     0.008 A 
HETATM   36  C   UNL     1      43.566  -8.203  10.646  1.00  0.00     0.014 A 
BRANCH  34  37
HETATM   37  C   UNL     1      45.777 -10.525   8.571  1.00  0.00     0.042 C 
BRANCH  37  38
HETATM   38  C   UNL     1      45.053 -10.868   7.254  1.00  0.00    -0.019 C 
HETATM   39  C   UNL     1      44.027 -11.990   7.432  1.00  0.00     0.010 C 
HETATM   40  C   UNL     1      46.080 -11.277   6.193  1.00  0.00     0.010 C 
ENDBRANCH  37  38
ENDBRANCH  34  37
ENDBRANCH   1  31
TORSDOF 7
ENDMDL
MODEL 7
REMARK VINA RESULT:      -8.1      3.218      7.118
REMARK  7 active torsions:
REMARK  status: ('A' for Active; 'I' for Inactive)
REMARK    1  A    between atoms: C_2  and  C_3 
REMARK    2  A    between atoms: C_3  and  C_4 
REMARK    3  A    between atoms: C_7  and  C_8 
REMARK    4  A    between atoms: C_14  and  C_15 
REMARK    5  A    between atoms: C_18  and  O_19 
REMARK    6  A    between atoms: O_19  and  C_20 
REMARK       I    between atoms: C_20  and  N_21 
REMARK    7  A    between atoms: C_33  and  N_34 
ROOT
HETATM    1  C   UNL     1      40.305 -11.566   6.200  1.00  0.00     0.099 A 
HETATM    2  N   UNL     1      39.448 -11.955   7.168  1.00  0.00    -0.172 NA
HETATM    3  N   UNL     1      39.027 -10.814   7.739  1.00  0.00    -0.256 N 
HETATM    4  H   UNL     1      38.376 -10.866   8.515  1.00  0.00     0.191 HD
HETATM    5  C   UNL     1      39.558  -9.711   7.161  1.00  0.00     0.175 A 
HETATM    6  C   UNL     1      40.389 -10.144   6.159  1.00  0.00     0.040 A 
HETATM    7  C   UNL     1      41.119  -9.137   5.333  1.00  0.00     0.106 A 
HETATM    8  C   UNL     1      40.828  -7.716   5.825  1.00  0.00     0.081 A 
HETATM    9  C   UNL     1      41.550  -6.661   5.195  1.00  0.00     0.100 C 
HETATM   10  N   UNL     1      42.142  -5.799   4.692  1.00  0.00    -0.191 NA
HETATM   11  C   UNL     1      39.973  -7.449   6.849  1.00  0.00     0.140 A 
HETATM   12  O   UNL     1      39.288  -8.466   7.533  1.00  0.00    -0.279 OA
ENDROOT
BRANCH   7  13
HETATM   13  C   UNL     1      40.706  -9.357   3.883  1.00  0.00    -0.044 A 
HETATM   14  C   UNL     1      39.502  -8.857   3.351  1.00  0.00     0.011 A 
HETATM   15  C   UNL     1      39.169  -9.073   2.011  1.00  0.00     0.038 A 
HETATM   16  C   UNL     1      40.054  -9.762   1.187  1.00  0.00     0.081 A 
HETATM   17  C   UNL     1      41.253 -10.263   1.685  1.00  0.00     0.038 A 
HETATM   18  C   UNL     1      41.582 -10.047   3.023  1.00  0.00     0.011 A 
BRANCH  16  19
HETATM   19  O   UNL     1      39.640 -10.024  -0.128  1.00  0.00    -0.261 OA
BRANCH  19  20
HETATM   20  C   UNL     1      38.922 -11.195  -0.364  1.00  0.00     0.368 C 
HETATM   21  N   UNL     1      39.554 -12.021  -1.282  1.00  0.00    -0.324 N 
HETATM   22  C   UNL     1      39.041 -13.374  -1.484  1.00  0.00     0.154 C 
HETATM   23  C   UNL     1      40.930 -11.804  -1.730  1.00  0.00     0.154 C 
HETATM   24  C   UNL     1      39.353 -13.885  -2.892  1.00  0.00     0.187 C 
HETATM   25  O   UNL     1      40.754 -13.763  -3.189  1.00  0.00    -0.388 OA
HETATM   26  C   UNL     1      41.159 -12.388  -3.127  1.00  0.00     0.187 C 
HETATM   27  O   UNL     1      37.851 -11.474   0.165  1.00  0.00    -0.238 OA
ENDBRANCH  19  20
ENDBRANCH  16  19
ENDBRANCH   7  13
BRANCH  11  28
HETATM   28  N   UNL     1      39.682  -6.195   7.341  1.00  0.00    -0.282 NA
HETATM   29  H   UNL     1      40.407  -5.770   7.914  1.00  0.00     0.126 HD
HETATM   30  H   UNL     1      39.330  -5.572   6.618  1.00  0.00     0.126 HD
ENDBRANCH  11  28
BRANCH   1  31
HETATM   31  C   UNL     1      40.959 -12.566   5.352  1.00  0.00    -0.005 A 
HETATM   32  C   UNL     1      42.345 -12.753   5.445  1.00  0.00     0.014 A 
HETATM   33  C   UNL     1      42.994 -13.710   4.661  1.00  0.00     0.008 A 
HETATM   34  C   UNL     1      42.267 -14.504   3.768  1.00  0.00    -0.058 A 
HETATM   35  C   UNL     1      40.885 -14.310   3.661  1.00  0.00     0.008 A 
HETATM   36  C   UNL     1      40.238 -13.342   4.438  1.00  0.00     0.014 A 
BRANCH  34  37
HETATM   37  C   UNL     1      42.964 -15.557   2.940  1.00  0.00     0.042 C 
BRANCH  37  38
HETATM   38  C   UNL     1      42.783 -16.990   3.479  1.00  0.00    -0.019 C 
HETATM   39  C   UNL     1      43.825 -17.345   4.543  1.00  0.00     0.010 C 
HETATM   40  C   UNL     1      42.871 -17.989   2.322  1.00  0.00     0.010 C 
ENDBRANCH  37  38
ENDBRANCH  34  37
ENDBRANCH   1  31
TORSDOF 7
ENDMDL
MODEL 8
REMARK VINA RESULT:      -8.0      4.273      9.168
REMARK  7 active torsions:
REMARK  status: ('A' for Active; 'I' for Inactive)
REMARK    1  A    between atoms: C_2  and  C_3 
REMARK    2  A    between atoms: C_3  and  C_4 
REMARK    3  A    between atoms: C_7  and  C_8 
REMARK    4  A    between atoms: C_14  and  C_15 
REMARK    5  A    between atoms: C_18  and  O_19 
REMARK    6  A    between atoms: O_19  and  C_20 
REMARK       I    between atoms: C_20  and  N_21 
REMARK    7  A    between atoms: C_33  and  N_34 
ROOT
HETATM    1  C   UNL     1      44.590 -10.127   9.123  1.00  0.00     0.099 A 
HETATM    2  N   UNL     1      45.936 -10.128   9.024  1.00  0.00    -0.172 NA
HETATM    3  N   UNL     1      46.192 -10.455   7.746  1.00  0.00    -0.256 N 
HETATM    4  H   UNL     1      47.157 -10.531   7.445  1.00  0.00     0.191 HD
HETATM    5  C   UNL     1      45.067 -10.637   7.017  1.00  0.00     0.175 A 
HETATM    6  C   UNL     1      44.004 -10.434   7.861  1.00  0.00     0.040 A 
HETATM    7  C   UNL     1      42.616 -10.564   7.328  1.00  0.00     0.106 A 
HETATM    8  C   UNL     1      42.636 -10.979   5.854  1.00  0.00     0.081 A 
HETATM    9  C   UNL     1      41.374 -11.250   5.248  1.00  0.00     0.100 C 
HETATM   10  N   UNL     1      40.351 -11.479   4.752  1.00  0.00    -0.191 NA
HETATM   11  C   UNL     1      43.788 -11.149   5.149  1.00  0.00     0.140 A 
HETATM   12  O   UNL     1      45.051 -10.950   5.728  1.00  0.00    -0.279 OA
ENDROOT
BRANCH   7  13
HETATM   13  C   UNL     1      41.917  -9.229   7.555  1.00  0.00    -0.044 A 
HETATM   14  C   UNL     1      42.336  -8.036   6.936  1.00  0.00     0.011 A 
HETATM   15  C   UNL     1      41.658  -6.835   7.165  1.00  0.00     0.038 A 
HETATM   16  C   UNL     1      40.537  -6.828   7.989  1.00  0.00     0.081 A 
HETATM   17  C   UNL     1      40.098  -7.993   8.611  1.00  0.00     0.038 A 
HETATM   18  C   UNL     1      40.777  -9.189   8.381  1.00  0.00     0.011 A 
BRANCH  16  19
HETATM   19  O   UNL     1      39.939  -5.586   8.253  1.00  0.00    -0.261 OA
BRANCH  19  20
HETATM   20  C   UNL     1      39.527  -5.325   9.558  1.00  0.00     0.368 C 
HETATM   21  N   UNL     1      40.508  -4.686  10.301  1.00  0.00    -0.324 N 
HETATM   22  C   UNL     1      40.165  -4.158  11.619  1.00  0.00     0.154 C 
HETATM   23  C   UNL     1      41.716  -4.119   9.699  1.00  0.00     0.154 C 
HETATM   24  C   UNL     1      41.387  -4.112  12.538  1.00  0.00     0.187 C 
HETATM   25  O   UNL     1      42.476  -3.411  11.917  1.00  0.00    -0.388 OA
HETATM   26  C   UNL     1      42.869  -4.072  10.706  1.00  0.00     0.187 C 
HETATM   27  O   UNL     1      38.428  -5.628  10.015  1.00  0.00    -0.238 OA
ENDBRANCH  19  20
ENDBRANCH  16  19
ENDBRANCH   7  13
BRANCH  11  28
HETATM   28  N   UNL     1      43.867 -11.532   3.828  1.00  0.00    -0.282 NA
HETATM   29  H   UNL     1      44.752 -11.945   3.543  1.00  0.00     0.126 HD
HETATM   30  H   UNL     1      43.061 -12.082   3.539  1.00  0.00     0.126 HD
ENDBRANCH  11  28
BRANCH   1  31
HETATM   31  C   UNL     1      43.947  -9.798  10.397  1.00  0.00    -0.005 A 
HETATM   32  C   UNL     1      43.581 -10.827  11.275  1.00  0.00     0.014 A 
HETATM   33  C   UNL     1      42.981 -10.543  12.504  1.00  0.00     0.008 A 
HETATM   34  C   UNL     1      42.736  -9.219  12.883  1.00  0.00    -0.058 A 
HETATM   35  C   UNL     1      43.086  -8.188  12.003  1.00  0.00     0.008 A 
HETATM   36  C   UNL     1      43.677  -8.476  10.766  1.00  0.00     0.014 A 
BRANCH  34  37
HETATM   37  C   UNL     1      42.112  -8.910  14.222  1.00  0.00     0.042 C 
BRANCH  37  38
HETATM   38  C   UNL     1      41.785  -7.417  14.425  1.00  0.00    -0.019 C 
HETATM   39  C   UNL     1      42.310  -6.886  15.761  1.00  0.00     0.010 C 
HETATM   40  C   UNL     1      40.270  -7.208  14.350  1.00  0.00     0.010 C 
ENDBRANCH  37  38
ENDBRANCH  34  37
ENDBRANCH   1  31
TORSDOF 7
ENDMDL
MODEL 9
REMARK VINA RESULT:      -8.0      3.219      4.513
REMARK  7 active torsions:
REMARK  status: ('A' for Active; 'I' for Inactive)
REMARK    1  A    between atoms: C_2  and  C_3 
REMARK    2  A    between atoms: C_3  and  C_4 
REMARK    3  A    between atoms: C_7  and  C_8 
REMARK    4  A    between atoms: C_14  and  C_15 
REMARK    5  A    between atoms: C_18  and  O_19 
REMARK    6  A    between atoms: O_19  and  C_20 
REMARK       I    between atoms: C_20  and  N_21 
REMARK    7  A    between atoms: C_33  and  N_34 
ROOT
HETATM    1  C   UNL     1      39.942 -13.529  -0.988  1.00  0.00     0.099 A 
HETATM    2  N   UNL     1      40.458 -13.789  -2.208  1.00  0.00    -0.172 NA
HETATM    3  N   UNL     1      39.821 -12.948  -3.041  1.00  0.00    -0.256 N 
HETATM    4  H   UNL     1      40.043 -12.979  -4.030  1.00  0.00     0.191 HD
HETATM    5  C   UNL     1      38.941 -12.144  -2.402  1.00  0.00     0.175 A 
HETATM    6  C   UNL     1      38.983 -12.478  -1.072  1.00  0.00     0.040 A 
HETATM    7  C   UNL     1      38.110 -11.745  -0.109  1.00  0.00     0.106 A 
HETATM    8  C   UNL     1      37.232 -10.725  -0.838  1.00  0.00     0.081 A 
HETATM    9  C   UNL     1      36.266 -10.032  -0.051  1.00  0.00     0.100 C 
HETATM   10  N   UNL     1      35.474  -9.471   0.584  1.00  0.00    -0.191 NA
HETATM   11  C   UNL     1      37.304 -10.512  -2.181  1.00  0.00     0.140 A 
HETATM   12  O   UNL     1      38.201 -11.218  -2.999  1.00  0.00    -0.279 OA
ENDROOT
BRANCH   7  13
HETATM   13  C   UNL     1      39.022 -11.103   0.930  1.00  0.00    -0.044 A 
HETATM   14  C   UNL     1      39.938 -10.082   0.611  1.00  0.00     0.011 A 
HETATM   15  C   UNL     1      40.747  -9.514   1.598  1.00  0.00     0.038 A 
HETATM   16  C   UNL     1      40.622  -9.940   2.917  1.00  0.00     0.081 A 
HETATM   17  C   UNL     1      39.722 -10.944   3.262  1.00  0.00     0.038 A 
HETATM   18  C   UNL     1      38.917 -11.511   2.274  1.00  0.00     0.011 A 
BRANCH  16  19
HETATM   19  O   UNL     1      41.511  -9.399   3.857  1.00  0.00    -0.261 OA
BRANCH  19  20
HETATM   20  C   UNL     1      41.144  -8.215   4.495  1.00  0.00     0.368 C 
HETATM   21  N   UNL     1      40.711  -8.431   5.795  1.00  0.00    -0.324 N 
HETATM   22  C   UNL     1      40.488  -7.279   6.665  1.00  0.00     0.154 C 
HETATM   23  C   UNL     1      40.882  -9.709   6.486  1.00  0.00     0.154 C 
HETATM   24  C   UNL     1      39.438  -7.583   7.736  1.00  0.00     0.187 C 
HETATM   25  O   UNL     1      39.767  -8.780   8.459  1.00  0.00    -0.388 OA
HETATM   26  C   UNL     1      39.815  -9.903   7.568  1.00  0.00     0.187 C 
HETATM   27  O   UNL     1      41.185  -7.103   3.976  1.00  0.00    -0.238 OA
ENDBRANCH  19  20
ENDBRANCH  16  19
ENDBRANCH   7  13
BRANCH  11  28
HETATM   28  N   UNL     1      36.533  -9.619  -2.891  1.00  0.00    -0.282 NA
HETATM   29  H   UNL     1      37.035  -9.045  -3.565  1.00  0.00     0.126 HD
HETATM   30  H   UNL     1      35.702 -10.056  -3.282  1.00  0.00     0.126 HD
ENDBRANCH  11  28
BRANCH   1  31
HETATM   31  C   UNL     1      40.420 -14.266   0.184  1.00  0.00    -0.005 A 
HETATM   32  C   UNL     1      41.526 -13.787   0.900  1.00  0.00     0.014 A 
HETATM   33  C   UNL     1      41.995 -14.460   2.032  1.00  0.00     0.008 A 
HETATM   34  C   UNL     1      41.364 -15.628   2.472  1.00  0.00    -0.058 A 
HETATM   35  C   UNL     1      40.268 -16.118   1.751  1.00  0.00     0.008 A 
HETATM   36  C   UNL     1      39.807 -15.449   0.612  1.00  0.00     0.014 A 
BRANCH  34  37
HETATM   37  C   UNL     1      41.853 -16.340   3.710  1.00  0.00     0.042 C 
BRANCH  37  38
HETATM   38  C   UNL     1      43.277 -16.916   3.573  1.00  0.00    -0.019 C 
HETATM   39  C   UNL     1      43.350 -18.038   2.535  1.00  0.00     0.010 C 
HETATM   40  C   UNL     1      43.752 -17.442   4.931  1.00  0.00     0.010 C 
ENDBRANCH  37  38
ENDBRANCH  34  37
ENDBRANCH   1  31
TORSDOF 7
ENDMDL
MODEL 10
REMARK VINA RESULT:      -7.8      5.656     10.778
REMARK  7 active torsions:
REMARK  status: ('A' for Active; 'I' for Inactive)
REMARK    1  A    between atoms: C_2  and  C_3 
REMARK    2  A    between atoms: C_3  and  C_4 
REMARK    3  A    between atoms: C_7  and  C_8 
REMARK    4  A    between atoms: C_14  and  C_15 
REMARK    5  A    between atoms: C_18  and  O_19 
REMARK    6  A    between atoms: O_19  and  C_20 
REMARK       I    between atoms: C_20  and  N_21 
REMARK    7  A    between atoms: C_33  and  N_34 
ROOT
HETATM    1  C   UNL     1      43.340  -9.254  10.979  1.00  0.00     0.099 A 
HETATM    2  N   UNL     1      44.658  -9.498  10.826  1.00  0.00    -0.172 NA
HETATM    3  N   UNL     1      44.806  -9.812   9.528  1.00  0.00    -0.256 N 
HETATM    4  H   UNL     1      45.729 -10.051   9.185  1.00  0.00     0.191 HD
HETATM    5  C   UNL     1      43.643  -9.754   8.839  1.00  0.00     0.175 A 
HETATM    6  C   UNL     1      42.664  -9.396   9.732  1.00  0.00     0.040 A 
HETATM    7  C   UNL     1      41.259  -9.247   9.252  1.00  0.00     0.106 A 
HETATM    8  C   UNL     1      41.153  -9.597   7.765  1.00  0.00     0.081 A 
HETATM    9  C   UNL     1      39.843  -9.607   7.202  1.00  0.00     0.100 C 
HETATM   10  N   UNL     1      38.779  -9.623   6.741  1.00  0.00    -0.191 NA
HETATM   11  C   UNL     1      42.229  -9.946   7.008  1.00  0.00     0.140 A 
HETATM   12  O   UNL     1      43.526 -10.005   7.542  1.00  0.00    -0.279 OA
ENDROOT
BRANCH   7  13
HETATM   13  C   UNL     1      40.827  -7.817   9.554  1.00  0.00    -0.044 A 
HETATM   14  C   UNL     1      39.828  -7.506  10.495  1.00  0.00     0.011 A 
HETATM   15  C   UNL     1      39.471  -6.179  10.748  1.00  0.00     0.038 A 
HETATM   16  C   UNL     1      40.137  -5.152  10.085  1.00  0.00     0.081 A 
HETATM   17  C   UNL     1      41.132  -5.430   9.153  1.00  0.00     0.038 A 
HETATM   18  C   UNL     1      41.484  -6.756   8.901  1.00  0.00     0.011 A 
BRANCH  16  19
HETATM   19  O   UNL     1      39.690  -3.842  10.312  1.00  0.00    -0.261 OA
BRANCH  19  20
HETATM   20  C   UNL     1      39.808  -3.327  11.602  1.00  0.00     0.368 C 
HETATM   21  N   UNL     1      41.044  -2.737  11.820  1.00  0.00    -0.324 N 
HETATM   22  C   UNL     1      41.253  -1.971  13.046  1.00  0.00     0.154 C 
HETATM   23  C   UNL     1      41.991  -2.456  10.741  1.00  0.00     0.154 C 
HETATM   24  C   UNL     1      42.726  -1.970  13.460  1.00  0.00     0.187 C 
HETATM   25  O   UNL     1      43.568  -1.543  12.378  1.00  0.00    -0.388 OA
HETATM   26  C   UNL     1      43.432  -2.431  11.259  1.00  0.00     0.187 C 
HETATM   27  O   UNL     1      38.931  -3.389  12.458  1.00  0.00    -0.238 OA
ENDBRANCH  19  20
ENDBRANCH  16  19
ENDBRANCH   7  13
BRANCH  11  28
HETATM   28  N   UNL     1      42.192 -10.281   5.673  1.00  0.00    -0.282 NA
HETATM   29  H   UNL     1      43.059 -10.140   5.161  1.00  0.00     0.126 HD
HETATM   30  H   UNL     1      41.784 -11.200   5.520  1.00  0.00     0.126 HD
ENDBRANCH  11  28
BRANCH   1  31
HETATM   31  C   UNL     1      42.811  -8.866  12.289  1.00  0.00    -0.005 A 
HETATM   32  C   UNL     1      41.757  -9.596  12.855  1.00  0.00     0.014 A 
HETATM   33  C   UNL     1      41.243  -9.260  14.110  1.00  0.00     0.008 A 
HETATM   34  C   UNL     1      41.777  -8.185  14.828  1.00  0.00    -0.058 A 
HETATM   35  C   UNL     1      42.820  -7.444  14.260  1.00  0.00     0.008 A 
HETATM   36  C   UNL     1      43.326  -7.775  12.998  1.00  0.00     0.014 A 
BRANCH  34  37
HETATM   37  C   UNL     1      41.240  -7.837  16.196  1.00  0.00     0.042 C 
BRANCH  37  38
HETATM   38  C   UNL     1      40.679  -6.405  16.297  1.00  0.00    -0.019 C 
HETATM   39  C   UNL     1      40.243  -6.053  17.721  1.00  0.00     0.010 C 
HETATM   40  C   UNL     1      39.490  -6.250  15.344  1.00  0.00     0.010 C 
ENDBRANCH  37  38
ENDBRANCH  34  37
ENDBRANCH   1  31
TORSDOF 7
ENDMDL
