MODEL 1
REMARK VINA RESULT:      -8.3      0.000      0.000
REMARK  8 active torsions:
REMARK  status: ('A' for Active; 'I' for Inactive)
REMARK    1  A    between atoms: C_7  and  C_8 
REMARK       I    between atoms: C_8  and  N_9 
REMARK    2  A    between atoms: N_9  and  C_10 
REMARK    3  A    between atoms: C_11  and  C_12 
REMARK       I    between atoms: C_12  and  N_13 
REMARK    4  A    between atoms: N_13  and  C_14 
REMARK    5  A    between atoms: C_14  and  C_15 
REMARK    6  A    between atoms: C_15  and  C_16 
REMARK    7  A    between atoms: C_17  and  O_18 
REMARK    8  A    between atoms: C_21  and  O_22 
ROOT
HETATM    1  C   UNL     1      44.086 -10.775   8.410  1.00  0.00     0.050 A 
HETATM    2  C   UNL     1      43.699 -11.299   7.167  1.00  0.00     0.058 A 
HETATM    3  C   UNL     1      44.668 -11.522   6.169  1.00  0.00     0.019 A 
HETATM    4  C   UNL     1      46.008 -11.208   6.397  1.00  0.00     0.001 A 
HETATM    5  C   UNL     1      46.385 -10.639   7.608  1.00  0.00     0.002 A 
HETATM    6  C   UNL     1      45.430 -10.412   8.602  1.00  0.00     0.030 A 
ENDROOT
BRANCH   2   7
HETATM    7  C   UNL     1      42.279 -11.399   6.734  1.00  0.00     0.253 C 
HETATM    8  N   UNL     1      41.853 -12.676   6.432  1.00  0.00    -0.356 N 
HETATM    9  H   UNL     1      42.386 -13.453   6.801  1.00  0.00     0.162 HD
HETATM   10  O   UNL     1      41.606 -10.387   6.582  1.00  0.00    -0.268 OA
BRANCH   8  11
HETATM   11  C   UNL     1      40.562 -12.940   5.830  1.00  0.00     0.127 C 
BRANCH  11  12
HETATM   12  C   UNL     1      40.101 -14.391   5.974  1.00  0.00     0.061 C 
BRANCH  12  13
HETATM   13  C   UNL     1      41.028 -15.328   5.222  1.00  0.00    -0.023 A 
HETATM   14  C   UNL     1      41.905 -16.204   5.889  1.00  0.00     0.077 A 
HETATM   15  C   UNL     1      42.714 -17.079   5.147  1.00  0.00     0.074 A 
HETATM   16  C   UNL     1      42.652 -17.092   3.751  1.00  0.00     0.070 A 
HETATM   17  C   UNL     1      41.769 -16.236   3.095  1.00  0.00     0.037 A 
HETATM   18  C   UNL     1      40.966 -15.358   3.821  1.00  0.00     0.013 A 
BRANCH  14  19
HETATM   19  O   UNL     1      41.885 -16.139   7.257  1.00  0.00    -0.355 OA
HETATM   20  C   UNL     1      43.060 -15.691   7.920  1.00  0.00     0.210 C 
ENDBRANCH  14  19
BRANCH  16  21
HETATM   21  O   UNL     1      43.382 -17.900   2.920  1.00  0.00    -0.356 OA
HETATM   22  C   UNL     1      44.270 -18.823   3.537  1.00  0.00     0.210 C 
ENDBRANCH  16  21
ENDBRANCH  12  13
ENDBRANCH  11  12
ENDBRANCH   8  11
ENDBRANCH   2   7
BRANCH   1  23
HETATM   23  N   UNL     1      43.239 -10.583   9.520  1.00  0.00    -0.321 N 
HETATM   24  C   UNL     1      42.649  -9.384   9.883  1.00  0.00     0.265 C 
HETATM   25  O   UNL     1      42.747  -8.341   9.245  1.00  0.00    -0.267 OA
HETATM   26  H   UNL     1      42.814 -11.405   9.935  1.00  0.00     0.169 HD
BRANCH  24  27
HETATM   27  C   UNL     1      41.714  -9.508  11.079  1.00  0.00     0.097 C 
HETATM   28  C   UNL     1      40.376  -9.650  10.913  1.00  0.00     0.064 C 
HETATM   29  C   UNL     1      39.686  -9.559   9.577  1.00  0.00     0.078 C 
HETATM   30  O   UNL     1      39.453  -9.849  11.931  1.00  0.00    -0.353 OA
HETATM   31  C   UNL     1      39.963 -10.291  13.188  1.00  0.00     0.185 C 
HETATM   32  C   UNL     1      41.027  -9.351  13.713  1.00  0.00     0.106 C 
HETATM   33  S   UNL     1      42.485  -9.507  12.656  1.00  0.00    -0.120 SA
ENDBRANCH  24  27
ENDBRANCH   1  23
TORSDOF 8
ENDMDL
MODEL 2
REMARK VINA RESULT:      -8.2      3.981      8.418
REMARK  8 active torsions:
REMARK  status: ('A' for Active; 'I' for Inactive)
REMARK    1  A    between atoms: C_7  and  C_8 
REMARK       I    between atoms: C_8  and  N_9 
REMARK    2  A    between atoms: N_9  and  C_10 
REMARK    3  A    between atoms: C_11  and  C_12 
REMARK       I    between atoms: C_12  and  N_13 
REMARK    4  A    between atoms: N_13  and  C_14 
REMARK    5  A    between atoms: C_14  and  C_15 
REMARK    6  A    between atoms: C_15  and  C_16 
REMARK    7  A    between atoms: C_17  and  O_18 
REMARK    8  A    between atoms: C_21  and  O_22 
ROOT
HETATM    1  C   UNL     1      43.285 -18.037   3.005  1.00  0.00     0.050 A 
HETATM    2  C   UNL     1      43.832 -18.365   4.254  1.00  0.00     0.058 A 
HETATM    3  C   UNL     1      44.224 -19.693   4.519  1.00  0.00     0.019 A 
HETATM    4  C   UNL     1      44.055 -20.689   3.558  1.00  0.00     0.001 A 
HETATM    5  C   UNL     1      43.464 -20.376   2.339  1.00  0.00     0.002 A 
HETATM    6  C   UNL     1      43.069 -19.063   2.069  1.00  0.00     0.030 A 
ENDROOT
BRANCH   2   7
HETATM    7  C   UNL     1      43.792 -17.449   5.425  1.00  0.00     0.253 C 
HETATM    8  N   UNL     1      42.566 -17.357   6.049  1.00  0.00    -0.356 N 
HETATM    9  H   UNL     1      41.898 -18.100   5.894  1.00  0.00     0.162 HD
HETATM   10  O   UNL     1      44.774 -16.778   5.718  1.00  0.00    -0.268 OA
BRANCH   8  11
HETATM   11  C   UNL     1      42.298 -16.386   7.091  1.00  0.00     0.127 C 
BRANCH  11  12
HETATM   12  C   UNL     1      41.336 -15.276   6.666  1.00  0.00     0.061 C 
BRANCH  12  13
HETATM   13  C   UNL     1      42.051 -13.939   6.604  1.00  0.00    -0.023 A 
HETATM   14  C   UNL     1      41.375 -12.745   6.287  1.00  0.00     0.077 A 
HETATM   15  C   UNL     1      42.075 -11.528   6.282  1.00  0.00     0.074 A 
HETATM   16  C   UNL     1      43.436 -11.490   6.596  1.00  0.00     0.070 A 
HETATM   17  C   UNL     1      44.097 -12.671   6.929  1.00  0.00     0.037 A 
HETATM   18  C   UNL     1      43.414 -13.886   6.930  1.00  0.00     0.013 A 
BRANCH  14  19
HETATM   19  O   UNL     1      40.039 -12.873   6.013  1.00  0.00    -0.355 OA
HETATM   20  C   UNL     1      39.392 -11.802   5.340  1.00  0.00     0.210 C 
ENDBRANCH  14  19
BRANCH  16  21
HETATM   21  O   UNL     1      44.223 -10.370   6.632  1.00  0.00    -0.356 OA
HETATM   22  C   UNL     1      45.195 -10.299   7.667  1.00  0.00     0.210 C 
ENDBRANCH  16  21
ENDBRANCH  12  13
ENDBRANCH  11  12
ENDBRANCH   8  11
ENDBRANCH   2   7
BRANCH   1  23
HETATM   23  N   UNL     1      42.931 -16.741   2.578  1.00  0.00    -0.321 N 
HETATM   24  C   UNL     1      41.726 -16.110   2.838  1.00  0.00     0.265 C 
HETATM   25  O   UNL     1      40.828 -16.584   3.527  1.00  0.00    -0.267 OA
HETATM   26  H   UNL     1      43.680 -16.119   2.293  1.00  0.00     0.169 HD
BRANCH  24  27
HETATM   27  C   UNL     1      41.670 -14.678   2.323  1.00  0.00     0.097 C 
HETATM   28  C   UNL     1      40.820 -14.320   1.330  1.00  0.00     0.064 C 
HETATM   29  C   UNL     1      39.972 -15.302   0.563  1.00  0.00     0.078 C 
HETATM   30  O   UNL     1      40.638 -13.031   0.848  1.00  0.00    -0.353 OA
HETATM   31  C   UNL     1      41.096 -11.961   1.674  1.00  0.00     0.185 C 
HETATM   32  C   UNL     1      42.562 -12.119   2.016  1.00  0.00     0.106 C 
HETATM   33  S   UNL     1      42.730 -13.533   3.130  1.00  0.00    -0.120 SA
ENDBRANCH  24  27
ENDBRANCH   1  23
TORSDOF 8
ENDMDL
MODEL 3
REMARK VINA RESULT:      -8.1      1.025      1.766
REMARK  8 active torsions:
REMARK  status: ('A' for Active; 'I' for Inactive)
REMARK    1  A    between atoms: C_7  and  C_8 
REMARK       I    between atoms: C_8  and  N_9 
REMARK    2  A    between atoms: N_9  and  C_10 
REMARK    3  A    between atoms: C_11  and  C_12 
REMARK       I    between atoms: C_12  and  N_13 
REMARK    4  A    between atoms: N_13  and  C_14 
REMARK    5  A    between atoms: C_14  and  C_15 
REMARK    6  A    between atoms: C_15  and  C_16 
REMARK    7  A    between atoms: C_17  and  O_18 
REMARK    8  A    between atoms: C_21  and  O_22 
ROOT
HETATM    1  C   UNL     1      44.140 -10.852   8.384  1.00  0.00     0.050 A 
HETATM    2  C   UNL     1      43.822 -11.498   7.180  1.00  0.00     0.058 A 
HETATM    3  C   UNL     1      44.824 -11.708   6.212  1.00  0.00     0.019 A 
HETATM    4  C   UNL     1      46.128 -11.261   6.430  1.00  0.00     0.001 A 
HETATM    5  C   UNL     1      46.432 -10.573   7.599  1.00  0.00     0.002 A 
HETATM    6  C   UNL     1      45.444 -10.358   8.563  1.00  0.00     0.030 A 
ENDROOT
BRANCH   2   7
HETATM    7  C   UNL     1      42.424 -11.757   6.741  1.00  0.00     0.253 C 
HETATM    8  N   UNL     1      42.164 -13.058   6.367  1.00  0.00    -0.356 N 
HETATM    9  H   UNL     1      42.794 -13.780   6.691  1.00  0.00     0.162 HD
HETATM   10  O   UNL     1      41.626 -10.833   6.646  1.00  0.00    -0.268 OA
BRANCH   8  11
HETATM   11  C   UNL     1      40.914 -13.452   5.749  1.00  0.00     0.127 C 
BRANCH  11  12
HETATM   12  C   UNL     1      40.543 -14.915   5.990  1.00  0.00     0.061 C 
BRANCH  12  13
HETATM   13  C   UNL     1      41.421 -15.837   5.166  1.00  0.00    -0.023 A 
HETATM   14  C   UNL     1      41.199 -16.049   3.792  1.00  0.00     0.077 A 
HETATM   15  C   UNL     1      42.066 -16.882   3.066  1.00  0.00     0.074 A 
HETATM   16  C   UNL     1      43.152 -17.497   3.694  1.00  0.00     0.070 A 
HETATM   17  C   UNL     1      43.380 -17.269   5.050  1.00  0.00     0.037 A 
HETATM   18  C   UNL     1      42.522 -16.451   5.782  1.00  0.00     0.013 A 
BRANCH  14  19
HETATM   19  O   UNL     1      40.125 -15.390   3.255  1.00  0.00    -0.355 OA
HETATM   20  C   UNL     1      39.871 -15.552   1.866  1.00  0.00     0.210 C 
ENDBRANCH  14  19
BRANCH  16  21
HETATM   21  O   UNL     1      44.067 -18.321   3.095  1.00  0.00    -0.356 OA
HETATM   22  C   UNL     1      43.559 -19.467   2.423  1.00  0.00     0.210 C 
ENDBRANCH  16  21
ENDBRANCH  12  13
ENDBRANCH  11  12
ENDBRANCH   8  11
ENDBRANCH   2   7
BRANCH   1  23
HETATM   23  N   UNL     1      43.261 -10.654   9.467  1.00  0.00    -0.321 N 
HETATM   24  C   UNL     1      42.687  -9.446   9.827  1.00  0.00     0.265 C 
HETATM   25  O   UNL     1      42.831  -8.397   9.207  1.00  0.00    -0.267 OA
HETATM   26  H   UNL     1      42.802 -11.471   9.856  1.00  0.00     0.169 HD
BRANCH  24  27
HETATM   27  C   UNL     1      41.708  -9.563  10.988  1.00  0.00     0.097 C 
HETATM   28  C   UNL     1      40.372  -9.646  10.776  1.00  0.00     0.064 C 
HETATM   29  C   UNL     1      39.730  -9.492   9.421  1.00  0.00     0.078 C 
HETATM   30  O   UNL     1      39.409  -9.833  11.758  1.00  0.00    -0.353 OA
HETATM   31  C   UNL     1      39.859 -10.329  13.019  1.00  0.00     0.185 C 
HETATM   32  C   UNL     1      40.942  -9.448  13.602  1.00  0.00     0.106 C 
HETATM   33  S   UNL     1      42.427  -9.635  12.589  1.00  0.00    -0.120 SA
ENDBRANCH  24  27
ENDBRANCH   1  23
TORSDOF 8
ENDMDL
MODEL 4
REMARK VINA RESULT:      -8.0      2.853      4.587
REMARK  8 active torsions:
REMARK  status: ('A' for Active; 'I' for Inactive)
REMARK    1  A    between atoms: C_7  and  C_8 
REMARK       I    between atoms: C_8  and  N_9 
REMARK    2  A    between atoms: N_9  and  C_10 
REMARK    3  A    between atoms: C_11  and  C_12 
REMARK       I    between atoms: C_12  and  N_13 
REMARK    4  A    between atoms: N_13  and  C_14 
REMARK    5  A    between atoms: C_14  and  C_15 
REMARK    6  A    between atoms: C_15  and  C_16 
REMARK    7  A    between atoms: C_17  and  O_18 
REMARK    8  A    between atoms: C_21  and  O_22 
ROOT
HETATM    1  C   UNL     1      41.520  -9.667   4.270  1.00  0.00     0.050 A 
HETATM    2  C   UNL     1      41.853 -10.323   3.075  1.00  0.00     0.058 A 
HETATM    3  C   UNL     1      41.071 -10.114   1.921  1.00  0.00     0.019 A 
HETATM    4  C   UNL     1      39.957  -9.275   1.959  1.00  0.00     0.001 A 
HETATM    5  C   UNL     1      39.594  -8.667   3.155  1.00  0.00     0.002 A 
HETATM    6  C   UNL     1      40.362  -8.871   4.305  1.00  0.00     0.030 A 
ENDROOT
BRANCH   2   7
HETATM    7  C   UNL     1      42.836 -11.436   3.006  1.00  0.00     0.253 C 
HETATM    8  N   UNL     1      42.302 -12.664   2.679  1.00  0.00    -0.356 N 
HETATM    9  H   UNL     1      41.399 -12.682   2.223  1.00  0.00     0.162 HD
HETATM   10  O   UNL     1      44.006 -11.247   3.315  1.00  0.00    -0.268 OA
BRANCH   8  11
HETATM   11  C   UNL     1      43.077 -13.888   2.737  1.00  0.00     0.127 C 
BRANCH  11  12
HETATM   12  C   UNL     1      42.891 -14.673   4.036  1.00  0.00     0.061 C 
BRANCH  12  13
HETATM   13  C   UNL     1      43.244 -16.135   3.836  1.00  0.00    -0.023 A 
HETATM   14  C   UNL     1      43.891 -16.890   4.833  1.00  0.00     0.077 A 
HETATM   15  C   UNL     1      44.161 -18.249   4.614  1.00  0.00     0.074 A 
HETATM   16  C   UNL     1      43.786 -18.863   3.415  1.00  0.00     0.070 A 
HETATM   17  C   UNL     1      43.128 -18.118   2.439  1.00  0.00     0.037 A 
HETATM   18  C   UNL     1      42.862 -16.765   2.643  1.00  0.00     0.013 A 
BRANCH  14  19
HETATM   19  O   UNL     1      44.202 -16.212   5.983  1.00  0.00    -0.355 OA
HETATM   20  C   UNL     1      43.595 -16.642   7.193  1.00  0.00     0.210 C 
ENDBRANCH  14  19
BRANCH  16  21
HETATM   21  O   UNL     1      43.987 -20.178   3.088  1.00  0.00    -0.356 OA
HETATM   22  C   UNL     1      43.682 -20.562   1.753  1.00  0.00     0.210 C 
ENDBRANCH  16  21
ENDBRANCH  12  13
ENDBRANCH  11  12
ENDBRANCH   8  11
ENDBRANCH   2   7
BRANCH   1  23
HETATM   23  N   UNL     1      42.259  -9.719   5.469  1.00  0.00    -0.321 N 
HETATM   24  C   UNL     1      42.175 -10.718   6.423  1.00  0.00     0.265 C 
HETATM   25  O   UNL     1      41.479 -11.723   6.316  1.00  0.00    -0.267 OA
HETATM   26  H   UNL     1      43.094  -9.145   5.531  1.00  0.00     0.169 HD
BRANCH  24  27
HETATM   27  C   UNL     1      43.164 -10.545   7.569  1.00  0.00     0.097 C 
HETATM   28  C   UNL     1      44.326 -11.242   7.606  1.00  0.00     0.064 C 
HETATM   29  C   UNL     1      44.681 -12.327   6.622  1.00  0.00     0.078 C 
HETATM   30  O   UNL     1      45.323 -11.098   8.560  1.00  0.00    -0.353 OA
HETATM   31  C   UNL     1      45.301  -9.905   9.344  1.00  0.00     0.185 C 
HETATM   32  C   UNL     1      43.970  -9.730  10.042  1.00  0.00     0.106 C 
HETATM   33  S   UNL     1      42.721  -9.362   8.789  1.00  0.00    -0.120 SA
ENDBRANCH  24  27
ENDBRANCH   1  23
TORSDOF 8
ENDMDL
MODEL 5
REMARK VINA RESULT:      -7.7      4.974      7.463
REMARK  8 active torsions:
REMARK  status: ('A' for Active; 'I' for Inactive)
REMARK    1  A    between atoms: C_7  and  C_8 
REMARK       I    between atoms: C_8  and  N_9 
REMARK    2  A    between atoms: N_9  and  C_10 
REMARK    3  A    between atoms: C_11  and  C_12 
REMARK       I    between atoms: C_12  and  N_13 
REMARK    4  A    between atoms: N_13  and  C_14 
REMARK    5  A    between atoms: C_14  and  C_15 
REMARK    6  A    between atoms: C_15  and  C_16 
REMARK    7  A    between atoms: C_17  and  O_18 
REMARK    8  A    between atoms: C_21  and  O_22 
ROOT
HETATM    1  C   UNL     1      39.240 -12.702   0.119  1.00  0.00     0.050 A 
HETATM    2  C   UNL     1      39.752 -13.947  -0.277  1.00  0.00     0.058 A 
HETATM    3  C   UNL     1      39.343 -14.515  -1.501  1.00  0.00     0.019 A 
HETATM    4  C   UNL     1      38.418 -13.860  -2.314  1.00  0.00     0.001 A 
HETATM    5  C   UNL     1      37.869 -12.652  -1.897  1.00  0.00     0.002 A 
HETATM    6  C   UNL     1      38.266 -12.084  -0.684  1.00  0.00     0.030 A 
ENDROOT
BRANCH   2   7
HETATM    7  C   UNL     1      40.514 -14.841   0.636  1.00  0.00     0.253 C 
HETATM    8  N   UNL     1      41.861 -14.563   0.729  1.00  0.00    -0.356 N 
HETATM    9  H   UNL     1      42.177 -13.643   0.449  1.00  0.00     0.162 HD
HETATM   10  O   UNL     1      39.962 -15.795   1.169  1.00  0.00    -0.268 OA
BRANCH   8  11
HETATM   11  C   UNL     1      42.785 -15.433   1.429  1.00  0.00     0.127 C 
BRANCH  11  12
HETATM   12  C   UNL     1      42.866 -15.162   2.932  1.00  0.00     0.061 C 
BRANCH  12  13
HETATM   13  C   UNL     1      43.275 -16.415   3.684  1.00  0.00    -0.023 A 
HETATM   14  C   UNL     1      43.326 -16.459   5.090  1.00  0.00     0.077 A 
HETATM   15  C   UNL     1      43.674 -17.655   5.738  1.00  0.00     0.074 A 
HETATM   16  C   UNL     1      43.963 -18.805   4.999  1.00  0.00     0.070 A 
HETATM   17  C   UNL     1      43.892 -18.763   3.608  1.00  0.00     0.037 A 
HETATM   18  C   UNL     1      43.556 -17.579   2.954  1.00  0.00     0.013 A 
BRANCH  14  19
HETATM   19  O   UNL     1      43.007 -15.292   5.733  1.00  0.00    -0.355 OA
HETATM   20  C   UNL     1      42.353 -15.383   6.991  1.00  0.00     0.210 C 
ENDBRANCH  14  19
BRANCH  16  21
HETATM   21  O   UNL     1      44.306 -20.027   5.514  1.00  0.00    -0.356 OA
HETATM   22  C   UNL     1      43.823 -21.174   4.826  1.00  0.00     0.210 C 
ENDBRANCH  16  21
ENDBRANCH  12  13
ENDBRANCH  11  12
ENDBRANCH   8  11
ENDBRANCH   2   7
BRANCH   1  23
HETATM   23  N   UNL     1      39.624 -11.985   1.270  1.00  0.00    -0.321 N 
HETATM   24  C   UNL     1      40.799 -11.269   1.416  1.00  0.00     0.265 C 
HETATM   25  O   UNL     1      41.637 -11.121   0.532  1.00  0.00    -0.267 OA
HETATM   26  H   UNL     1      38.900 -11.749   1.940  1.00  0.00     0.169 HD
BRANCH  24  27
HETATM   27  C   UNL     1      40.894 -10.525   2.742  1.00  0.00     0.097 C 
HETATM   28  C   UNL     1      42.002 -10.609   3.518  1.00  0.00     0.064 C 
HETATM   29  C   UNL     1      43.159 -11.528   3.225  1.00  0.00     0.078 C 
HETATM   30  O   UNL     1      42.216  -9.910   4.698  1.00  0.00    -0.353 OA
HETATM   31  C   UNL     1      41.391  -8.769   4.933  1.00  0.00     0.185 C 
HETATM   32  C   UNL     1      39.923  -9.130   4.874  1.00  0.00     0.106 C 
HETATM   33  S   UNL     1      39.509  -9.529   3.160  1.00  0.00    -0.120 SA
ENDBRANCH  24  27
ENDBRANCH   1  23
TORSDOF 8
ENDMDL
MODEL 6
REMARK VINA RESULT:      -7.7      1.585      2.344
REMARK  8 active torsions:
REMARK  status: ('A' for Active; 'I' for Inactive)
REMARK    1  A    between atoms: C_7  and  C_8 
REMARK       I    between atoms: C_8  and  N_9 
REMARK    2  A    between atoms: N_9  and  C_10 
REMARK    3  A    between atoms: C_11  and  C_12 
REMARK       I    between atoms: C_12  and  N_13 
REMARK    4  A    between atoms: N_13  and  C_14 
REMARK    5  A    between atoms: C_14  and  C_15 
REMARK    6  A    between atoms: C_15  and  C_16 
REMARK    7  A    between atoms: C_17  and  O_18 
REMARK    8  A    between atoms: C_21  and  O_22 
ROOT
HETATM    1  C   UNL     1      43.949 -10.535   8.284  1.00  0.00     0.050 A 
HETATM    2  C   UNL     1      43.500 -10.880   7.000  1.00  0.00     0.058 A 
HETATM    3  C   UNL     1      44.433 -11.233   6.004  1.00  0.00     0.019 A 
HETATM    4  C   UNL     1      45.801 -11.223   6.277  1.00  0.00     0.001 A 
HETATM    5  C   UNL     1      46.250 -10.830   7.532  1.00  0.00     0.002 A 
HETATM    6  C   UNL     1      45.332 -10.475   8.525  1.00  0.00     0.030 A 
ENDROOT
BRANCH   2   7
HETATM    7  C   UNL     1      42.105 -10.651   6.538  1.00  0.00     0.253 C 
HETATM    8  N   UNL     1      41.244 -11.708   6.744  1.00  0.00    -0.356 N 
HETATM    9  H   UNL     1      41.502 -12.402   7.434  1.00  0.00     0.162 HD
HETATM   10  O   UNL     1      41.813  -9.623   5.940  1.00  0.00    -0.268 OA
BRANCH   8  11
HETATM   11  C   UNL     1      39.900 -11.731   6.202  1.00  0.00     0.127 C 
BRANCH  11  12
HETATM   12  C   UNL     1      39.666 -12.846   5.183  1.00  0.00     0.061 C 
BRANCH  12  13
HETATM   13  C   UNL     1      40.671 -13.967   5.371  1.00  0.00    -0.023 A 
HETATM   14  C   UNL     1      41.900 -13.992   4.685  1.00  0.00     0.077 A 
HETATM   15  C   UNL     1      42.811 -15.032   4.924  1.00  0.00     0.074 A 
HETATM   16  C   UNL     1      42.512 -16.041   5.844  1.00  0.00     0.070 A 
HETATM   17  C   UNL     1      41.303 -16.003   6.536  1.00  0.00     0.037 A 
HETATM   18  C   UNL     1      40.387 -14.979   6.300  1.00  0.00     0.013 A 
BRANCH  14  19
HETATM   19  O   UNL     1      42.118 -12.953   3.819  1.00  0.00    -0.355 OA
HETATM   20  C   UNL     1      43.229 -13.043   2.937  1.00  0.00     0.210 C 
ENDBRANCH  14  19
BRANCH  16  21
HETATM   21  O   UNL     1      43.318 -17.100   6.168  1.00  0.00    -0.356 OA
HETATM   22  C   UNL     1      43.783 -17.907   5.093  1.00  0.00     0.210 C 
ENDBRANCH  16  21
ENDBRANCH  12  13
ENDBRANCH  11  12
ENDBRANCH   8  11
ENDBRANCH   2   7
BRANCH   1  23
HETATM   23  N   UNL     1      43.126 -10.245   9.391  1.00  0.00    -0.321 N 
HETATM   24  C   UNL     1      42.582  -9.007   9.687  1.00  0.00     0.265 C 
HETATM   25  O   UNL     1      42.705  -8.008   8.983  1.00  0.00    -0.267 OA
HETATM   26  H   UNL     1      42.679 -11.025   9.862  1.00  0.00     0.169 HD
BRANCH  24  27
HETATM   27  C   UNL     1      41.662  -9.024  10.900  1.00  0.00     0.097 C 
HETATM   28  C   UNL     1      42.094  -8.615  12.117  1.00  0.00     0.064 C 
HETATM   29  C   UNL     1      43.525  -8.246  12.414  1.00  0.00     0.078 C 
HETATM   30  O   UNL     1      41.314  -8.518  13.261  1.00  0.00    -0.353 OA
HETATM   31  C   UNL     1      39.899  -8.500  13.079  1.00  0.00     0.185 C 
HETATM   32  C   UNL     1      39.428  -9.712  12.304  1.00  0.00     0.106 C 
HETATM   33  S   UNL     1      40.014  -9.554  10.602  1.00  0.00    -0.120 SA
ENDBRANCH  24  27
ENDBRANCH   1  23
TORSDOF 8
ENDMDL
MODEL 7
REMARK VINA RESULT:      -7.7      3.722      8.814
REMARK  8 active torsions:
REMARK  status: ('A' for Active; 'I' for Inactive)
REMARK    1  A    between atoms: C_7  and  C_8 
REMARK       I    between atoms: C_8  and  N_9 
REMARK    2  A    between atoms: N_9  and  C_10 
REMARK    3  A    between atoms: C_11  and  C_12 
REMARK       I    between atoms: C_12  and  N_13 
REMARK    4  A    between atoms: N_13  and  C_14 
REMARK    5  A    between atoms: C_14  and  C_15 
REMARK    6  A    between atoms: C_15  and  C_16 
REMARK    7  A    between atoms: C_17  and  O_18 
REMARK    8  A    between atoms: C_21  and  O_22 
ROOT
HETATM    1  C   UNL     1      42.709 -17.048   3.196  1.00  0.00     0.050 A 
HETATM    2  C   UNL     1      43.199 -17.180   4.504  1.00  0.00     0.058 A 
HETATM    3  C   UNL     1      43.901 -18.345   4.874  1.00  0.00     0.019 A 
HETATM    4  C   UNL     1      44.096 -19.379   3.957  1.00  0.00     0.001 A 
HETATM    5  C   UNL     1      43.564 -19.273   2.677  1.00  0.00     0.002 A 
HETATM    6  C   UNL     1      42.864 -18.122   2.303  1.00  0.00     0.030 A 
ENDROOT
BRANCH   2   7
HETATM    7  C   UNL     1      42.805 -16.273   5.615  1.00  0.00     0.253 C 
HETATM    8  N   UNL     1      43.437 -15.047   5.615  1.00  0.00    -0.356 N 
HETATM    9  H   UNL     1      43.856 -14.729   4.751  1.00  0.00     0.162 HD
HETATM   10  O   UNL     1      42.045 -16.665   6.492  1.00  0.00    -0.268 OA
BRANCH   8  11
HETATM   11  C   UNL     1      43.309 -14.110   6.713  1.00  0.00     0.127 C 
BRANCH  11  12
HETATM   12  C   UNL     1      44.259 -12.916   6.616  1.00  0.00     0.061 C 
BRANCH  12  13
HETATM   13  C   UNL     1      43.547 -11.630   6.993  1.00  0.00    -0.023 A 
HETATM   14  C   UNL     1      44.117 -10.692   7.876  1.00  0.00     0.077 A 
HETATM   15  C   UNL     1      43.434  -9.500   8.162  1.00  0.00     0.074 A 
HETATM   16  C   UNL     1      42.196  -9.231   7.571  1.00  0.00     0.070 A 
HETATM   17  C   UNL     1      41.645 -10.152   6.683  1.00  0.00     0.037 A 
HETATM   18  C   UNL     1      42.310 -11.343   6.398  1.00  0.00     0.013 A 
BRANCH  14  19
HETATM   19  O   UNL     1      45.341 -11.028   8.391  1.00  0.00    -0.355 OA
HETATM   20  C   UNL     1      46.485 -10.358   7.879  1.00  0.00     0.210 C 
ENDBRANCH  14  19
BRANCH  16  21
HETATM   21  O   UNL     1      41.440  -8.105   7.764  1.00  0.00    -0.356 OA
HETATM   22  C   UNL     1      41.994  -6.874   7.319  1.00  0.00     0.210 C 
ENDBRANCH  16  21
ENDBRANCH  12  13
ENDBRANCH  11  12
ENDBRANCH   8  11
ENDBRANCH   2   7
BRANCH   1  23
HETATM   23  N   UNL     1      42.068 -15.908   2.670  1.00  0.00    -0.321 N 
HETATM   24  C   UNL     1      42.674 -14.924   1.908  1.00  0.00     0.265 C 
HETATM   25  O   UNL     1      43.845 -14.951   1.543  1.00  0.00    -0.267 OA
HETATM   26  H   UNL     1      41.055 -15.923   2.611  1.00  0.00     0.169 HD
BRANCH  24  27
HETATM   27  C   UNL     1      41.703 -13.862   1.409  1.00  0.00     0.097 C 
HETATM   28  C   UNL     1      41.807 -12.571   1.809  1.00  0.00     0.064 C 
HETATM   29  C   UNL     1      42.775 -12.099   2.863  1.00  0.00     0.078 C 
HETATM   30  O   UNL     1      41.025 -11.519   1.353  1.00  0.00    -0.353 OA
HETATM   31  C   UNL     1      40.312 -11.724   0.134  1.00  0.00     0.185 C 
HETATM   32  C   UNL     1      39.429 -12.950   0.213  1.00  0.00     0.106 C 
HETATM   33  S   UNL     1      40.494 -14.410   0.259  1.00  0.00    -0.120 SA
ENDBRANCH  24  27
ENDBRANCH   1  23
TORSDOF 8
ENDMDL
MODEL 8
REMARK VINA RESULT:      -7.6      2.190      2.923
REMARK  8 active torsions:
REMARK  status: ('A' for Active; 'I' for Inactive)
REMARK    1  A    between atoms: C_7  and  C_8 
REMARK       I    between atoms: C_8  and  N_9 
REMARK    2  A    between atoms: N_9  and  C_10 
REMARK    3  A    between atoms: C_11  and  C_12 
REMARK       I    between atoms: C_12  and  N_13 
REMARK    4  A    between atoms: N_13  and  C_14 
REMARK    5  A    between atoms: C_14  and  C_15 
REMARK    6  A    between atoms: C_15  and  C_16 
REMARK    7  A    between atoms: C_17  and  O_18 
REMARK    8  A    between atoms: C_21  and  O_22 
ROOT
HETATM    1  C   UNL     1      44.114  -9.537   8.167  1.00  0.00     0.050 A 
HETATM    2  C   UNL     1      44.221 -10.770   7.506  1.00  0.00     0.058 A 
HETATM    3  C   UNL     1      45.494 -11.277   7.173  1.00  0.00     0.019 A 
HETATM    4  C   UNL     1      46.648 -10.556   7.477  1.00  0.00     0.001 A 
HETATM    5  C   UNL     1      46.541  -9.310   8.083  1.00  0.00     0.002 A 
HETATM    6  C   UNL     1      45.284  -8.798   8.414  1.00  0.00     0.030 A 
ENDROOT
BRANCH   2   7
HETATM    7  C   UNL     1      43.059 -11.470   6.897  1.00  0.00     0.253 C 
HETATM    8  N   UNL     1      43.195 -12.838   6.791  1.00  0.00    -0.356 N 
HETATM    9  H   UNL     1      43.881 -13.293   7.379  1.00  0.00     0.162 HD
HETATM   10  O   UNL     1      42.115 -10.828   6.453  1.00  0.00    -0.268 OA
BRANCH   8  11
HETATM   11  C   UNL     1      42.243 -13.658   6.068  1.00  0.00     0.127 C 
BRANCH  11  12
HETATM   12  C   UNL     1      42.551 -13.789   4.576  1.00  0.00     0.061 C 
BRANCH  12  13
HETATM   13  C   UNL     1      42.907 -15.221   4.224  1.00  0.00    -0.023 A 
HETATM   14  C   UNL     1      42.876 -15.693   2.898  1.00  0.00     0.077 A 
HETATM   15  C   UNL     1      43.252 -17.017   2.620  1.00  0.00     0.074 A 
HETATM   16  C   UNL     1      43.664 -17.869   3.649  1.00  0.00     0.070 A 
HETATM   17  C   UNL     1      43.712 -17.392   4.957  1.00  0.00     0.037 A 
HETATM   18  C   UNL     1      43.333 -16.082   5.246  1.00  0.00     0.013 A 
BRANCH  14  19
HETATM   19  O   UNL     1      42.481 -14.784   1.952  1.00  0.00    -0.355 OA
HETATM   20  C   UNL     1      41.359 -15.109   1.144  1.00  0.00     0.210 C 
ENDBRANCH  14  19
BRANCH  16  21
HETATM   21  O   UNL     1      44.060 -19.172   3.504  1.00  0.00    -0.356 OA
HETATM   22  C   UNL     1      44.236 -19.927   4.696  1.00  0.00     0.210 C 
ENDBRANCH  16  21
ENDBRANCH  12  13
ENDBRANCH  11  12
ENDBRANCH   8  11
ENDBRANCH   2   7
BRANCH   1  23
HETATM   23  N   UNL     1      42.917  -8.956   8.631  1.00  0.00    -0.321 N 
HETATM   24  C   UNL     1      42.294  -9.247   9.832  1.00  0.00     0.265 C 
HETATM   25  O   UNL     1      42.742 -10.017  10.678  1.00  0.00    -0.267 OA
HETATM   26  H   UNL     1      42.620  -8.085   8.203  1.00  0.00     0.169 HD
BRANCH  24  27
HETATM   27  C   UNL     1      41.062  -8.393  10.098  1.00  0.00     0.097 C 
HETATM   28  C   UNL     1      41.153  -7.214  10.761  1.00  0.00     0.064 C 
HETATM   29  C   UNL     1      42.421  -6.713  11.404  1.00  0.00     0.078 C 
HETATM   30  O   UNL     1      40.107  -6.329  10.982  1.00  0.00    -0.353 OA
HETATM   31  C   UNL     1      38.947  -6.481  10.165  1.00  0.00     0.185 C 
HETATM   32  C   UNL     1      38.388  -7.884  10.259  1.00  0.00     0.106 C 
HETATM   33  S   UNL     1      39.550  -9.009   9.451  1.00  0.00    -0.120 SA
ENDBRANCH  24  27
ENDBRANCH   1  23
TORSDOF 8
ENDMDL
MODEL 9
REMARK VINA RESULT:      -7.5      6.062      9.541
REMARK  8 active torsions:
REMARK  status: ('A' for Active; 'I' for Inactive)
REMARK    1  A    between atoms: C_7  and  C_8 
REMARK       I    between atoms: C_8  and  N_9 
REMARK    2  A    between atoms: N_9  and  C_10 
REMARK    3  A    between atoms: C_11  and  C_12 
REMARK       I    between atoms: C_12  and  N_13 
REMARK    4  A    between atoms: N_13  and  C_14 
REMARK    5  A    between atoms: C_14  and  C_15 
REMARK    6  A    between atoms: C_15  and  C_16 
REMARK    7  A    between atoms: C_17  and  O_18 
REMARK    8  A    between atoms: C_21  and  O_22 
ROOT
HETATM    1  C   UNL     1      40.735 -14.877   3.793  1.00  0.00     0.050 A 
HETATM    2  C   UNL     1      40.162 -14.254   2.674  1.00  0.00     0.058 A 
HETATM    3  C   UNL     1      39.534 -13.000   2.817  1.00  0.00     0.019 A 
HETATM    4  C   UNL     1      39.460 -12.380   4.064  1.00  0.00     0.001 A 
HETATM    5  C   UNL     1      39.980 -13.021   5.183  1.00  0.00     0.002 A 
HETATM    6  C   UNL     1      40.601 -14.266   5.051  1.00  0.00     0.030 A 
ENDROOT
BRANCH   2   7
HETATM    7  C   UNL     1      39.944 -14.950   1.378  1.00  0.00     0.253 C 
HETATM    8  N   UNL     1      39.799 -14.117   0.289  1.00  0.00    -0.356 N 
HETATM    9  H   UNL     1      40.144 -13.169   0.367  1.00  0.00     0.162 HD
HETATM   10  O   UNL     1      39.816 -16.168   1.344  1.00  0.00    -0.268 OA
BRANCH   8  11
HETATM   11  C   UNL     1      39.407 -14.609  -1.017  1.00  0.00     0.127 C 
BRANCH  11  12
HETATM   12  C   UNL     1      38.607 -13.600  -1.840  1.00  0.00     0.061 C 
BRANCH  12  13
HETATM   13  C   UNL     1      39.188 -12.205  -1.695  1.00  0.00    -0.023 A 
HETATM   14  C   UNL     1      38.657 -11.266  -0.791  1.00  0.00     0.077 A 
HETATM   15  C   UNL     1      39.255 -10.002  -0.666  1.00  0.00     0.074 A 
HETATM   16  C   UNL     1      40.379  -9.671  -1.428  1.00  0.00     0.070 A 
HETATM   17  C   UNL     1      40.914 -10.610  -2.308  1.00  0.00     0.037 A 
HETATM   18  C   UNL     1      40.323 -11.865  -2.445  1.00  0.00     0.013 A 
BRANCH  14  19
HETATM   19  O   UNL     1      37.569 -11.684  -0.070  1.00  0.00    -0.355 OA
HETATM   20  C   UNL     1      37.134 -10.870   1.011  1.00  0.00     0.210 C 
ENDBRANCH  14  19
BRANCH  16  21
HETATM   21  O   UNL     1      41.053  -8.479  -1.391  1.00  0.00    -0.356 OA
HETATM   22  C   UNL     1      42.474  -8.542  -1.408  1.00  0.00     0.210 C 
ENDBRANCH  16  21
ENDBRANCH  12  13
ENDBRANCH  11  12
ENDBRANCH   8  11
ENDBRANCH   2   7
BRANCH   1  23
HETATM   23  N   UNL     1      41.462 -16.085   3.777  1.00  0.00    -0.321 N 
HETATM   24  C   UNL     1      42.760 -16.236   3.321  1.00  0.00     0.265 C 
HETATM   25  O   UNL     1      43.467 -15.316   2.921  1.00  0.00    -0.267 OA
HETATM   26  H   UNL     1      41.133 -16.840   4.369  1.00  0.00     0.169 HD
BRANCH  24  27
HETATM   27  C   UNL     1      43.309 -17.643   3.513  1.00  0.00     0.097 C 
HETATM   28  C   UNL     1      44.012 -17.978   4.623  1.00  0.00     0.064 C 
HETATM   29  C   UNL     1      44.428 -16.987   5.679  1.00  0.00     0.078 C 
HETATM   30  O   UNL     1      44.484 -19.248   4.927  1.00  0.00    -0.353 OA
HETATM   31  C   UNL     1      43.897 -20.342   4.223  1.00  0.00     0.185 C 
HETATM   32  C   UNL     1      44.012 -20.157   2.725  1.00  0.00     0.106 C 
HETATM   33  S   UNL     1      42.929 -18.793   2.241  1.00  0.00    -0.120 SA
ENDBRANCH  24  27
ENDBRANCH   1  23
TORSDOF 8
ENDMDL
MODEL 10
REMARK VINA RESULT:      -7.3      2.155      2.853
REMARK  8 active torsions:
REMARK  status: ('A' for Active; 'I' for Inactive)
REMARK    1  A    between atoms: C_7  and  C_8 
REMARK       I    between atoms: C_8  and  N_9 
REMARK    2  A    between atoms: N_9  and  C_10 
REMARK    3  A    between atoms: C_11  and  C_12 
REMARK       I    between atoms: C_12  and  N_13 
REMARK    4  A    between atoms: N_13  and  C_14 
REMARK    5  A    between atoms: C_14  and  C_15 
REMARK    6  A    between atoms: C_15  and  C_16 
REMARK    7  A    between atoms: C_17  and  O_18 
REMARK    8  A    between atoms: C_21  and  O_22 
ROOT
HETATM    1  C   UNL     1      44.025  -9.500   8.733  1.00  0.00     0.050 A 
HETATM    2  C   UNL     1      43.821 -10.447   7.718  1.00  0.00     0.058 A 
HETATM    3  C   UNL     1      44.923 -10.944   6.994  1.00  0.00     0.019 A 
HETATM    4  C   UNL     1      46.214 -10.490   7.263  1.00  0.00     0.001 A 
HETATM    5  C   UNL     1      46.411  -9.512   8.231  1.00  0.00     0.002 A 
HETATM    6  C   UNL     1      45.324  -9.011   8.952  1.00  0.00     0.030 A 
ENDROOT
BRANCH   2   7
HETATM    7  C   UNL     1      42.477 -10.779   7.174  1.00  0.00     0.253 C 
HETATM    8  N   UNL     1      42.381 -12.021   6.582  1.00  0.00    -0.356 N 
HETATM    9  H   UNL     1      43.080 -12.714   6.817  1.00  0.00     0.162 HD
HETATM   10  O   UNL     1      41.581  -9.945   7.189  1.00  0.00    -0.268 OA
BRANCH   8  11
HETATM   11  C   UNL     1      41.204 -12.440   5.847  1.00  0.00     0.127 C 
BRANCH  11  12
HETATM   12  C   UNL     1      41.027 -13.958   5.784  1.00  0.00     0.061 C 
BRANCH  12  13
HETATM   13  C   UNL     1      40.763 -14.410   4.360  1.00  0.00    -0.023 A 
HETATM   14  C   UNL     1      41.170 -15.674   3.890  1.00  0.00     0.077 A 
HETATM   15  C   UNL     1      40.867 -16.059   2.575  1.00  0.00     0.074 A 
HETATM   16  C   UNL     1      40.158 -15.202   1.729  1.00  0.00     0.070 A 
HETATM   17  C   UNL     1      39.739 -13.960   2.203  1.00  0.00     0.037 A 
HETATM   18  C   UNL     1      40.042 -13.564   3.505  1.00  0.00     0.013 A 
BRANCH  14  19
HETATM   19  O   UNL     1      41.841 -16.456   4.793  1.00  0.00    -0.355 OA
HETATM   20  C   UNL     1      43.038 -17.090   4.364  1.00  0.00     0.210 C 
ENDBRANCH  14  19
BRANCH  16  21
HETATM   21  O   UNL     1      39.797 -15.466   0.434  1.00  0.00    -0.356 OA
HETATM   22  C   UNL     1      39.862 -14.384  -0.486  1.00  0.00     0.210 C 
ENDBRANCH  16  21
ENDBRANCH  12  13
ENDBRANCH  11  12
ENDBRANCH   8  11
ENDBRANCH   2   7
BRANCH   1  23
HETATM   23  N   UNL     1      43.029  -8.985   9.587  1.00  0.00    -0.321 N 
HETATM   24  C   UNL     1      42.599  -9.570  10.766  1.00  0.00     0.265 C 
HETATM   25  O   UNL     1      43.076 -10.592  11.249  1.00  0.00    -0.267 OA
HETATM   26  H   UNL     1      42.788  -8.004   9.491  1.00  0.00     0.169 HD
BRANCH  24  27
HETATM   27  C   UNL     1      41.572  -8.732  11.517  1.00  0.00     0.097 C 
HETATM   28  C   UNL     1      41.939  -7.915  12.534  1.00  0.00     0.064 C 
HETATM   29  C   UNL     1      43.336  -7.859  13.098  1.00  0.00     0.078 C 
HETATM   30  O   UNL     1      41.096  -7.056  13.225  1.00  0.00    -0.353 OA
HETATM   31  C   UNL     1      39.848  -6.740  12.608  1.00  0.00     0.185 C 
HETATM   32  C   UNL     1      39.062  -7.991  12.283  1.00  0.00     0.106 C 
HETATM   33  S   UNL     1      39.916  -8.862  10.948  1.00  0.00    -0.120 SA
ENDBRANCH  24  27
ENDBRANCH   1  23
TORSDOF 8
ENDMDL
