MODEL 1
REMARK VINA RESULT:      -8.8      0.000      0.000
REMARK  2 active torsions:
REMARK  status: ('A' for Active; 'I' for Inactive)
REMARK    1  A    between atoms: C_9  and  O_10 
REMARK    2  A    between atoms: C_9  and  C_11 
ROOT
HETATM    1  C   UNL     1      44.033 -20.626   1.889  1.00  0.00     0.048 C 
HETATM    2  C   UNL     1      43.890 -20.113   3.293  1.00  0.00    -0.061 A 
HETATM    3  C   UNL     1      43.718 -18.743   3.537  1.00  0.00     0.020 A 
HETATM    4  C   UNL     1      43.567 -18.313   4.849  1.00  0.00     0.018 A 
HETATM    5  C   UNL     1      43.609 -19.232   5.898  1.00  0.00     0.045 A 
HETATM    6  N   UNL     1      43.458 -18.589   7.116  1.00  0.00    -0.323 N 
HETATM    7  C   UNL     1      43.303 -17.211   6.951  1.00  0.00     0.266 A 
HETATM    8  O   UNL     1      43.174 -16.422   7.874  1.00  0.00    -0.269 OA
HETATM    9  C   UNL     1      43.383 -16.915   5.404  1.00  0.00     0.198 A 
HETATM   10  C   UNL     1      43.788 -20.584   5.694  1.00  0.00     0.031 A 
HETATM   11  C   UNL     1      43.928 -21.022   4.375  1.00  0.00     0.009 A 
HETATM   12  H   UNL     1      43.451 -19.029   8.024  1.00  0.00     0.169 HD
ENDROOT
BRANCH   9  13
HETATM   13  O   UNL     1      44.512 -16.115   5.083  1.00  0.00    -0.371 OA
HETATM   14  H   UNL     1      44.167 -15.249   4.812  1.00  0.00     0.212 HD
ENDBRANCH   9  13
BRANCH   9  15
HETATM   15  C   UNL     1      42.081 -16.404   4.835  1.00  0.00     0.018 A 
HETATM   16  C   UNL     1      41.846 -15.918   3.499  1.00  0.00     0.002 A 
HETATM   17  C   UNL     1      40.498 -15.567   3.402  1.00  0.00     0.043 A 
HETATM   18  C   UNL     1      42.655 -15.745   2.354  1.00  0.00     0.014 A 
HETATM   19  C   UNL     1      39.924 -15.056   2.231  1.00  0.00     0.030 A 
HETATM   20  N   UNL     1      39.927 -15.820   4.624  1.00  0.00    -0.365 N 
HETATM   21  C   UNL     1      40.751 -14.897   1.116  1.00  0.00     0.002 A 
HETATM   22  C   UNL     1      42.099 -15.236   1.174  1.00  0.00     0.001 A 
HETATM   23  H   UNL     1      38.955 -15.653   4.847  1.00  0.00     0.165 HD
HETATM   24  C   UNL     1      40.858 -16.327   5.488  1.00  0.00     0.100 A 
ENDBRANCH   9  15
TORSDOF 2
ENDMDL
MODEL 2
REMARK VINA RESULT:      -8.1      3.249      4.688
REMARK  2 active torsions:
REMARK  status: ('A' for Active; 'I' for Inactive)
REMARK    1  A    between atoms: C_9  and  O_10 
REMARK    2  A    between atoms: C_9  and  C_11 
ROOT
HETATM    1  C   UNL     1      44.329 -19.041   3.518  1.00  0.00     0.048 C 
HETATM    2  C   UNL     1      43.472 -17.846   3.214  1.00  0.00    -0.061 A 
HETATM    3  C   UNL     1      42.757 -17.204   4.236  1.00  0.00     0.020 A 
HETATM    4  C   UNL     1      41.995 -16.087   3.916  1.00  0.00     0.018 A 
HETATM    5  C   UNL     1      41.931 -15.636   2.598  1.00  0.00     0.045 A 
HETATM    6  N   UNL     1      41.103 -14.528   2.502  1.00  0.00    -0.323 N 
HETATM    7  C   UNL     1      40.573 -14.177   3.745  1.00  0.00     0.266 A 
HETATM    8  O   UNL     1      39.798 -13.248   3.921  1.00  0.00    -0.269 OA
HETATM    9  C   UNL     1      41.121 -15.217   4.797  1.00  0.00     0.198 A 
HETATM   10  C   UNL     1      42.611 -16.250   1.569  1.00  0.00     0.031 A 
HETATM   11  C   UNL     1      43.389 -17.366   1.888  1.00  0.00     0.009 A 
HETATM   12  H   UNL     1      40.893 -14.015   1.660  1.00  0.00     0.169 HD
ENDROOT
BRANCH   9  13
HETATM   13  O   UNL     1      40.073 -15.993   5.359  1.00  0.00    -0.371 OA
HETATM   14  H   UNL     1      40.205 -15.978   6.320  1.00  0.00     0.212 HD
ENDBRANCH   9  13
BRANCH   9  15
HETATM   15  C   UNL     1      42.042 -14.591   5.816  1.00  0.00     0.018 A 
HETATM   16  C   UNL     1      42.918 -13.462   5.621  1.00  0.00     0.002 A 
HETATM   17  C   UNL     1      43.569 -13.212   6.831  1.00  0.00     0.043 A 
HETATM   18  C   UNL     1      43.217 -12.621   4.526  1.00  0.00     0.014 A 
HETATM   19  C   UNL     1      44.496 -12.176   6.999  1.00  0.00     0.030 A 
HETATM   20  N   UNL     1      43.121 -14.147   7.731  1.00  0.00    -0.365 N 
HETATM   21  C   UNL     1      44.771 -11.363   5.896  1.00  0.00     0.002 A 
HETATM   22  C   UNL     1      44.141 -11.581   4.675  1.00  0.00     0.001 A 
HETATM   23  H   UNL     1      43.429 -14.210   8.691  1.00  0.00     0.165 HD
HETATM   24  C   UNL     1      42.204 -14.972   7.142  1.00  0.00     0.100 A 
ENDBRANCH   9  15
TORSDOF 2
ENDMDL
MODEL 3
REMARK VINA RESULT:      -8.0      2.899      5.877
REMARK  2 active torsions:
REMARK  status: ('A' for Active; 'I' for Inactive)
REMARK    1  A    between atoms: C_9  and  O_10 
REMARK    2  A    between atoms: C_9  and  C_11 
ROOT
HETATM    1  C   UNL     1      44.642 -11.382   6.167  1.00  0.00     0.048 C 
HETATM    2  C   UNL     1      43.424 -12.088   5.646  1.00  0.00    -0.061 A 
HETATM    3  C   UNL     1      43.551 -13.184   4.780  1.00  0.00     0.020 A 
HETATM    4  C   UNL     1      42.398 -13.823   4.339  1.00  0.00     0.018 A 
HETATM    5  C   UNL     1      41.144 -13.362   4.740  1.00  0.00     0.045 A 
HETATM    6  N   UNL     1      40.139 -14.129   4.171  1.00  0.00    -0.323 N 
HETATM    7  C   UNL     1      40.663 -15.142   3.366  1.00  0.00     0.266 A 
HETATM    8  O   UNL     1      39.981 -15.938   2.738  1.00  0.00    -0.269 OA
HETATM    9  C   UNL     1      42.234 -15.003   3.403  1.00  0.00     0.198 A 
HETATM   10  C   UNL     1      40.983 -12.282   5.581  1.00  0.00     0.031 A 
HETATM   11  C   UNL     1      42.140 -11.644   6.036  1.00  0.00     0.009 A 
HETATM   12  H   UNL     1      39.147 -14.002   4.304  1.00  0.00     0.169 HD
ENDROOT
BRANCH   9  13
HETATM   13  O   UNL     1      42.760 -14.682   2.123  1.00  0.00    -0.371 OA
HETATM   14  H   UNL     1      42.803 -13.714   2.078  1.00  0.00     0.212 HD
ENDBRANCH   9  13
BRANCH   9  15
HETATM   15  C   UNL     1      42.911 -16.172   4.075  1.00  0.00     0.018 A 
HETATM   16  C   UNL     1      43.131 -17.486   3.523  1.00  0.00     0.002 A 
HETATM   17  C   UNL     1      43.809 -18.244   4.480  1.00  0.00     0.043 A 
HETATM   18  C   UNL     1      42.820 -18.105   2.292  1.00  0.00     0.014 A 
HETATM   19  C   UNL     1      44.185 -19.577   4.271  1.00  0.00     0.030 A 
HETATM   20  N   UNL     1      43.994 -17.438   5.575  1.00  0.00    -0.365 N 
HETATM   21  C   UNL     1      43.862 -20.160   3.043  1.00  0.00     0.002 A 
HETATM   22  C   UNL     1      43.188 -19.436   2.065  1.00  0.00     0.001 A 
HETATM   23  H   UNL     1      44.454 -17.728   6.427  1.00  0.00     0.165 HD
HETATM   24  C   UNL     1      43.471 -16.196   5.345  1.00  0.00     0.100 A 
ENDBRANCH   9  15
TORSDOF 2
ENDMDL
MODEL 4
REMARK VINA RESULT:      -7.9     12.920     14.243
REMARK  2 active torsions:
REMARK  status: ('A' for Active; 'I' for Inactive)
REMARK    1  A    between atoms: C_9  and  O_10 
REMARK    2  A    between atoms: C_9  and  C_11 
ROOT
HETATM    1  C   UNL     1      51.304 -31.232  -2.604  1.00  0.00     0.048 C 
HETATM    2  C   UNL     1      50.664 -30.753  -1.333  1.00  0.00    -0.061 A 
HETATM    3  C   UNL     1      49.511 -29.955  -1.373  1.00  0.00     0.020 A 
HETATM    4  C   UNL     1      48.937 -29.553  -0.173  1.00  0.00     0.018 A 
HETATM    5  C   UNL     1      49.516 -29.923   1.041  1.00  0.00     0.045 A 
HETATM    6  N   UNL     1      48.796 -29.401   2.103  1.00  0.00    -0.323 N 
HETATM    7  C   UNL     1      47.698 -28.659   1.661  1.00  0.00     0.266 A 
HETATM    8  O   UNL     1      46.920 -28.080   2.405  1.00  0.00    -0.269 OA
HETATM    9  C   UNL     1      47.718 -28.689   0.085  1.00  0.00     0.198 A 
HETATM   10  C   UNL     1      50.654 -30.697   1.115  1.00  0.00     0.031 A 
HETATM   11  C   UNL     1      51.228 -31.114  -0.089  1.00  0.00     0.009 A 
HETATM   12  H   UNL     1      49.006 -29.524   3.082  1.00  0.00     0.169 HD
ENDROOT
BRANCH   9  13
HETATM   13  O   UNL     1      47.919 -27.394  -0.460  1.00  0.00    -0.371 OA
HETATM   14  H   UNL     1      47.839 -26.769   0.278  1.00  0.00     0.212 HD
ENDBRANCH   9  13
BRANCH   9  15
HETATM   15  C   UNL     1      46.543 -29.432  -0.504  1.00  0.00     0.018 A 
HETATM   16  C   UNL     1      45.832 -29.115  -1.717  1.00  0.00     0.002 A 
HETATM   17  C   UNL     1      44.832 -30.075  -1.890  1.00  0.00     0.043 A 
HETATM   18  C   UNL     1      45.947 -28.101  -2.694  1.00  0.00     0.014 A 
HETATM   19  C   UNL     1      43.949 -30.069  -2.977  1.00  0.00     0.030 A 
HETATM   20  N   UNL     1      44.917 -30.941  -0.829  1.00  0.00    -0.365 N 
HETATM   21  C   UNL     1      44.089 -29.052  -3.924  1.00  0.00     0.002 A 
HETATM   22  C   UNL     1      45.074 -28.080  -3.787  1.00  0.00     0.001 A 
HETATM   23  H   UNL     1      44.308 -31.736  -0.689  1.00  0.00     0.165 HD
HETATM   24  C   UNL     1      45.939 -30.575   0.003  1.00  0.00     0.100 A 
ENDBRANCH   9  15
TORSDOF 2
ENDMDL
MODEL 5
REMARK VINA RESULT:      -7.6      2.396      3.773
REMARK  2 active torsions:
REMARK  status: ('A' for Active; 'I' for Inactive)
REMARK    1  A    between atoms: C_9  and  O_10 
REMARK    2  A    between atoms: C_9  and  C_11 
ROOT
HETATM    1  C   UNL     1      44.034 -19.397   2.678  1.00  0.00     0.048 C 
HETATM    2  C   UNL     1      43.580 -18.118   3.320  1.00  0.00    -0.061 A 
HETATM    3  C   UNL     1      43.321 -16.982   2.540  1.00  0.00     0.020 A 
HETATM    4  C   UNL     1      42.881 -15.826   3.172  1.00  0.00     0.018 A 
HETATM    5  C   UNL     1      42.723 -15.800   4.558  1.00  0.00     0.045 A 
HETATM    6  N   UNL     1      42.296 -14.550   4.976  1.00  0.00    -0.323 N 
HETATM    7  C   UNL     1      42.142 -13.675   3.899  1.00  0.00     0.266 A 
HETATM    8  O   UNL     1      41.796 -12.508   4.009  1.00  0.00    -0.269 OA
HETATM    9  C   UNL     1      42.544 -14.466   2.595  1.00  0.00     0.198 A 
HETATM   10  C   UNL     1      42.978 -16.895   5.355  1.00  0.00     0.031 A 
HETATM   11  C   UNL     1      43.410 -18.064   4.722  1.00  0.00     0.009 A 
HETATM   12  H   UNL     1      42.107 -14.274   5.928  1.00  0.00     0.169 HD
ENDROOT
BRANCH   9  13
HETATM   13  O   UNL     1      43.693 -13.904   1.976  1.00  0.00    -0.371 OA
HETATM   14  H   UNL     1      44.135 -14.630   1.507  1.00  0.00     0.212 HD
ENDBRANCH   9  13
BRANCH   9  15
HETATM   15  C   UNL     1      41.381 -14.682   1.657  1.00  0.00     0.018 A 
HETATM   16  C   UNL     1      40.918 -13.790   0.623  1.00  0.00     0.002 A 
HETATM   17  C   UNL     1      39.831 -14.397  -0.009  1.00  0.00     0.043 A 
HETATM   18  C   UNL     1      41.326 -12.520   0.159  1.00  0.00     0.014 A 
HETATM   19  C   UNL     1      39.136 -13.802  -1.070  1.00  0.00     0.030 A 
HETATM   20  N   UNL     1      39.627 -15.605   0.609  1.00  0.00    -0.365 N 
HETATM   21  C   UNL     1      39.564 -12.545  -1.505  1.00  0.00     0.002 A 
HETATM   22  C   UNL     1      40.644 -11.911  -0.901  1.00  0.00     0.001 A 
HETATM   23  H   UNL     1      38.897 -16.258   0.361  1.00  0.00     0.165 HD
HETATM   24  C   UNL     1      40.549 -15.793   1.601  1.00  0.00     0.100 A 
ENDBRANCH   9  15
TORSDOF 2
ENDMDL
MODEL 6
REMARK VINA RESULT:      -7.5      3.029      5.432
REMARK  2 active torsions:
REMARK  status: ('A' for Active; 'I' for Inactive)
REMARK    1  A    between atoms: C_9  and  O_10 
REMARK    2  A    between atoms: C_9  and  C_11 
ROOT
HETATM    1  C   UNL     1      42.253 -10.337   3.276  1.00  0.00     0.048 C 
HETATM    2  C   UNL     1      42.492 -11.382   4.328  1.00  0.00    -0.061 A 
HETATM    3  C   UNL     1      41.670 -12.516   4.406  1.00  0.00     0.020 A 
HETATM    4  C   UNL     1      41.940 -13.469   5.379  1.00  0.00     0.018 A 
HETATM    5  C   UNL     1      42.998 -13.283   6.270  1.00  0.00     0.045 A 
HETATM    6  N   UNL     1      43.075 -14.339   7.163  1.00  0.00    -0.323 N 
HETATM    7  C   UNL     1      42.080 -15.289   6.919  1.00  0.00     0.266 A 
HETATM    8  O   UNL     1      41.923 -16.302   7.583  1.00  0.00    -0.269 OA
HETATM    9  C   UNL     1      41.223 -14.764   5.703  1.00  0.00     0.198 A 
HETATM   10  C   UNL     1      43.818 -12.176   6.227  1.00  0.00     0.031 A 
HETATM   11  C   UNL     1      43.557 -11.220   5.242  1.00  0.00     0.009 A 
HETATM   12  H   UNL     1      43.752 -14.444   7.903  1.00  0.00     0.169 HD
ENDROOT
BRANCH   9  13
HETATM   13  O   UNL     1      39.883 -14.492   6.087  1.00  0.00    -0.371 OA
HETATM   14  H   UNL     1      39.452 -15.353   6.210  1.00  0.00     0.212 HD
ENDBRANCH   9  13
BRANCH   9  15
HETATM   15  C   UNL     1      41.350 -15.634   4.476  1.00  0.00     0.018 A 
HETATM   16  C   UNL     1      42.406 -16.569   4.177  1.00  0.00     0.002 A 
HETATM   17  C   UNL     1      42.112 -17.169   2.951  1.00  0.00     0.043 A 
HETATM   18  C   UNL     1      43.589 -16.968   4.839  1.00  0.00     0.014 A 
HETATM   19  C   UNL     1      42.934 -18.136   2.358  1.00  0.00     0.030 A 
HETATM   20  N   UNL     1      40.932 -16.626   2.509  1.00  0.00    -0.365 N 
HETATM   21  C   UNL     1      44.097 -18.507   3.037  1.00  0.00     0.002 A 
HETATM   22  C   UNL     1      44.422 -17.933   4.262  1.00  0.00     0.001 A 
HETATM   23  H   UNL     1      40.480 -16.871   1.639  1.00  0.00     0.165 HD
HETATM   24  C   UNL     1      40.460 -15.714   3.412  1.00  0.00     0.100 A 
ENDBRANCH   9  15
TORSDOF 2
ENDMDL
MODEL 7
REMARK VINA RESULT:      -7.5      3.637      6.376
REMARK  2 active torsions:
REMARK  status: ('A' for Active; 'I' for Inactive)
REMARK    1  A    between atoms: C_9  and  O_10 
REMARK    2  A    between atoms: C_9  and  C_11 
ROOT
HETATM    1  C   UNL     1      45.526 -10.997   7.525  1.00  0.00     0.048 C 
HETATM    2  C   UNL     1      44.221 -11.343   6.868  1.00  0.00    -0.061 A 
HETATM    3  C   UNL     1      44.084 -12.532   6.137  1.00  0.00     0.020 A 
HETATM    4  C   UNL     1      42.853 -12.826   5.565  1.00  0.00     0.018 A 
HETATM    5  C   UNL     1      41.785 -11.938   5.705  1.00  0.00     0.045 A 
HETATM    6  N   UNL     1      40.665 -12.416   5.044  1.00  0.00    -0.323 N 
HETATM    7  C   UNL     1      40.918 -13.646   4.432  1.00  0.00     0.266 A 
HETATM    8  O   UNL     1      40.097 -14.263   3.770  1.00  0.00    -0.269 OA
HETATM    9  C   UNL     1      42.425 -14.010   4.722  1.00  0.00     0.198 A 
HETATM   10  C   UNL     1      41.888 -10.757   6.408  1.00  0.00     0.031 A 
HETATM   11  C   UNL     1      43.122 -10.464   6.994  1.00  0.00     0.009 A 
HETATM   12  H   UNL     1      39.765 -11.963   4.995  1.00  0.00     0.169 HD
ENDROOT
BRANCH   9  13
HETATM   13  O   UNL     1      43.191 -14.055   3.527  1.00  0.00    -0.371 OA
HETATM   14  H   UNL     1      43.203 -14.983   3.243  1.00  0.00     0.212 HD
ENDBRANCH   9  13
BRANCH   9  15
HETATM   15  C   UNL     1      42.576 -15.229   5.600  1.00  0.00     0.018 A 
HETATM   16  C   UNL     1      43.089 -16.520   5.216  1.00  0.00     0.002 A 
HETATM   17  C   UNL     1      43.068 -17.342   6.345  1.00  0.00     0.043 A 
HETATM   18  C   UNL     1      43.578 -17.070   4.010  1.00  0.00     0.014 A 
HETATM   19  C   UNL     1      43.503 -18.673   6.328  1.00  0.00     0.030 A 
HETATM   20  N   UNL     1      42.559 -16.595   7.378  1.00  0.00    -0.365 N 
HETATM   21  C   UNL     1      43.980 -19.187   5.120  1.00  0.00     0.002 A 
HETATM   22  C   UNL     1      44.018 -18.398   3.975  1.00  0.00     0.001 A 
HETATM   23  H   UNL     1      42.422 -16.938   8.319  1.00  0.00     0.165 HD
HETATM   24  C   UNL     1      42.268 -15.329   6.950  1.00  0.00     0.100 A 
ENDBRANCH   9  15
TORSDOF 2
ENDMDL
MODEL 8
REMARK VINA RESULT:      -7.3      4.215      6.421
REMARK  2 active torsions:
REMARK  status: ('A' for Active; 'I' for Inactive)
REMARK    1  A    between atoms: C_9  and  O_10 
REMARK    2  A    between atoms: C_9  and  C_11 
ROOT
HETATM    1  C   UNL     1      43.587 -16.292   1.919  1.00  0.00     0.048 C 
HETATM    2  C   UNL     1      42.273 -15.588   2.102  1.00  0.00    -0.061 A 
HETATM    3  C   UNL     1      42.194 -14.191   2.011  1.00  0.00     0.020 A 
HETATM    4  C   UNL     1      40.955 -13.582   2.164  1.00  0.00     0.018 A 
HETATM    5  C   UNL     1      39.822 -14.352   2.424  1.00  0.00     0.045 A 
HETATM    6  N   UNL     1      38.704 -13.544   2.560  1.00  0.00    -0.323 N 
HETATM    7  C   UNL     1      39.025 -12.195   2.394  1.00  0.00     0.266 A 
HETATM    8  O   UNL     1      38.217 -11.283   2.488  1.00  0.00    -0.269 OA
HETATM    9  C   UNL     1      40.578 -12.114   2.132  1.00  0.00     0.198 A 
HETATM   10  C   UNL     1      39.866 -15.726   2.531  1.00  0.00     0.031 A 
HETATM   11  C   UNL     1      41.108 -16.344   2.365  1.00  0.00     0.009 A 
HETATM   12  H   UNL     1      37.764 -13.857   2.748  1.00  0.00     0.169 HD
ENDROOT
BRANCH   9  13
HETATM   13  O   UNL     1      41.248 -11.419   3.174  1.00  0.00    -0.371 OA
HETATM   14  H   UNL     1      40.638 -10.731   3.482  1.00  0.00     0.212 HD
ENDBRANCH   9  13
BRANCH   9  15
HETATM   15  C   UNL     1      40.915 -11.623   0.745  1.00  0.00     0.018 A 
HETATM   16  C   UNL     1      40.687 -12.312  -0.501  1.00  0.00     0.002 A 
HETATM   17  C   UNL     1      41.133 -11.485  -1.535  1.00  0.00     0.043 A 
HETATM   18  C   UNL     1      40.138 -13.566  -0.851  1.00  0.00     0.014 A 
HETATM   19  C   UNL     1      41.059 -11.845  -2.886  1.00  0.00     0.030 A 
HETATM   20  N   UNL     1      41.618 -10.340  -0.954  1.00  0.00    -0.365 N 
HETATM   21  C   UNL     1      40.511 -13.092  -3.199  1.00  0.00     0.002 A 
HETATM   22  C   UNL     1      40.056 -13.942  -2.197  1.00  0.00     0.001 A 
HETATM   23  H   UNL     1      42.014  -9.563  -1.465  1.00  0.00     0.165 HD
HETATM   24  C   UNL     1      41.488 -10.405   0.405  1.00  0.00     0.100 A 
ENDBRANCH   9  15
TORSDOF 2
ENDMDL
MODEL 9
REMARK VINA RESULT:      -7.1      2.897      3.829
REMARK  2 active torsions:
REMARK  status: ('A' for Active; 'I' for Inactive)
REMARK    1  A    between atoms: C_9  and  O_10 
REMARK    2  A    between atoms: C_9  and  C_11 
ROOT
HETATM    1  C   UNL     1      43.236 -18.656   2.253  1.00  0.00     0.048 C 
HETATM    2  C   UNL     1      43.265 -17.530   3.245  1.00  0.00    -0.061 A 
HETATM    3  C   UNL     1      42.930 -16.226   2.853  1.00  0.00     0.020 A 
HETATM    4  C   UNL     1      42.947 -15.217   3.808  1.00  0.00     0.018 A 
HETATM    5  C   UNL     1      43.310 -15.503   5.124  1.00  0.00     0.045 A 
HETATM    6  N   UNL     1      43.277 -14.355   5.899  1.00  0.00    -0.323 N 
HETATM    7  C   UNL     1      42.888 -13.243   5.149  1.00  0.00     0.266 A 
HETATM    8  O   UNL     1      42.803 -12.110   5.599  1.00  0.00    -0.269 OA
HETATM    9  C   UNL     1      42.652 -13.737   3.670  1.00  0.00     0.198 A 
HETATM   10  C   UNL     1      43.654 -16.771   5.541  1.00  0.00     0.031 A 
HETATM   11  C   UNL     1      43.627 -17.791   4.586  1.00  0.00     0.009 A 
HETATM   12  H   UNL     1      43.495 -14.295   6.882  1.00  0.00     0.169 HD
ENDROOT
BRANCH   9  13
HETATM   13  O   UNL     1      43.572 -13.142   2.767  1.00  0.00    -0.371 OA
HETATM   14  H   UNL     1      43.307 -12.213   2.677  1.00  0.00     0.212 HD
ENDBRANCH   9  13
BRANCH   9  15
HETATM   15  C   UNL     1      41.208 -13.634   3.240  1.00  0.00     0.018 A 
HETATM   16  C   UNL     1      40.493 -12.437   2.872  1.00  0.00     0.002 A 
HETATM   17  C   UNL     1      39.192 -12.806   2.526  1.00  0.00     0.043 A 
HETATM   18  C   UNL     1      40.832 -11.068   2.795  1.00  0.00     0.014 A 
HETATM   19  C   UNL     1      38.221 -11.884   2.114  1.00  0.00     0.030 A 
HETATM   20  N   UNL     1      39.104 -14.167   2.679  1.00  0.00    -0.365 N 
HETATM   21  C   UNL     1      38.588 -10.538   2.049  1.00  0.00     0.002 A 
HETATM   22  C   UNL     1      39.876 -10.132   2.384  1.00  0.00     0.001 A 
HETATM   23  H   UNL     1      38.269 -14.710   2.505  1.00  0.00     0.165 HD
HETATM   24  C   UNL     1      40.302 -14.676   3.097  1.00  0.00     0.100 A 
ENDBRANCH   9  15
TORSDOF 2
ENDMDL
MODEL 10
REMARK VINA RESULT:      -7.0      3.099      6.594
REMARK  2 active torsions:
REMARK  status: ('A' for Active; 'I' for Inactive)
REMARK    1  A    between atoms: C_9  and  O_10 
REMARK    2  A    between atoms: C_9  and  C_11 
ROOT
HETATM    1  C   UNL     1      42.215 -10.241   4.415  1.00  0.00     0.048 C 
HETATM    2  C   UNL     1      41.339 -11.327   3.858  1.00  0.00    -0.061 A 
HETATM    3  C   UNL     1      41.903 -12.430   3.202  1.00  0.00     0.020 A 
HETATM    4  C   UNL     1      41.059 -13.424   2.722  1.00  0.00     0.018 A 
HETATM    5  C   UNL     1      39.677 -13.306   2.877  1.00  0.00     0.045 A 
HETATM    6  N   UNL     1      39.029 -14.392   2.312  1.00  0.00    -0.323 N 
HETATM    7  C   UNL     1      39.936 -15.295   1.754  1.00  0.00     0.266 A 
HETATM    8  O   UNL     1      39.612 -16.322   1.177  1.00  0.00    -0.269 OA
HETATM    9  C   UNL     1      41.381 -14.701   1.972  1.00  0.00     0.198 A 
HETATM   10  C   UNL     1      39.090 -12.230   3.507  1.00  0.00     0.031 A 
HETATM   11  C   UNL     1      39.936 -11.234   4.002  1.00  0.00     0.009 A 
HETATM   12  H   UNL     1      38.032 -14.545   2.293  1.00  0.00     0.169 HD
ENDROOT
BRANCH   9  13
HETATM   13  O   UNL     1      42.010 -14.391   0.737  1.00  0.00    -0.371 OA
HETATM   14  H   UNL     1      42.928 -14.696   0.813  1.00  0.00     0.212 HD
ENDBRANCH   9  13
BRANCH   9  15
HETATM   15  C   UNL     1      42.224 -15.536   2.904  1.00  0.00     0.018 A 
HETATM   16  C   UNL     1      42.029 -15.726   4.320  1.00  0.00     0.002 A 
HETATM   17  C   UNL     1      43.029 -16.587   4.777  1.00  0.00     0.043 A 
HETATM   18  C   UNL     1      41.089 -15.249   5.261  1.00  0.00     0.014 A 
HETATM   19  C   UNL     1      43.136 -16.990   6.115  1.00  0.00     0.030 A 
HETATM   20  N   UNL     1      43.809 -16.910   3.696  1.00  0.00    -0.365 N 
HETATM   21  C   UNL     1      42.192 -16.499   7.020  1.00  0.00     0.002 A 
HETATM   22  C   UNL     1      41.181 -15.640   6.601  1.00  0.00     0.001 A 
HETATM   23  H   UNL     1      44.617 -17.517   3.734  1.00  0.00     0.165 HD
HETATM   24  C   UNL     1      43.337 -16.296   2.569  1.00  0.00     0.100 A 
ENDBRANCH   9  15
TORSDOF 2
ENDMDL
