MODEL 1
REMARK VINA RESULT:      -8.0      0.000      0.000
REMARK  6 active torsions:
REMARK  status: ('A' for Active; 'I' for Inactive)
REMARK    1  A    between atoms: C_2  and  O_3 
REMARK    2  A    between atoms: O_3  and  C_4 
REMARK    3  A    between atoms: C_6  and  C_7 
REMARK       I    between atoms: C_7  and  N_8 
REMARK    4  A    between atoms: C_10  and  N_11 
REMARK       I    between atoms: N_11  and  C_12 
REMARK    5  A    between atoms: C_12  and  C_13 
REMARK    6  A    between atoms: N_15  and  C_16 
ROOT
HETATM    1  N   UNL     1      43.678 -12.803   5.994  1.00  0.00    -0.319 N 
HETATM    2  C   UNL     1      43.394 -14.097   6.405  1.00  0.00     0.295 C 
HETATM    3  O   UNL     1      43.162 -14.437   7.561  1.00  0.00    -0.264 OA
HETATM    4  H   UNL     1      43.702 -12.674   4.981  1.00  0.00     0.169 HD
ENDROOT
BRANCH   1   5
HETATM    5  C   UNL     1      43.886 -11.663   6.804  1.00  0.00     0.051 A 
HETATM    6  C   UNL     1      42.883 -10.680   6.923  1.00  0.00     0.061 A 
HETATM    7  C   UNL     1      43.118  -9.505   7.656  1.00  0.00     0.056 A 
HETATM    8  C   UNL     1      44.338  -9.297   8.297  1.00  0.00     0.069 A 
HETATM    9  C   UNL     1      45.330 -10.267   8.193  1.00  0.00     0.039 A 
HETATM   10  C   UNL     1      45.104 -11.438   7.455  1.00  0.00     0.033 A 
BRANCH   6  11
HETATM   11  C   UNL     1      41.525 -10.830   6.341  1.00  0.00     0.251 C 
HETATM   12  N   UNL     1      40.468 -10.648   7.192  1.00  0.00    -0.366 N 
HETATM   13  H   UNL     1      40.592 -10.163   8.072  1.00  0.00     0.159 HD
HETATM   14  H   UNL     1      39.558 -10.576   6.752  1.00  0.00     0.159 HD
HETATM   15  O   UNL     1      41.347 -11.050   5.151  1.00  0.00    -0.268 OA
ENDBRANCH   6  11
BRANCH   8  16
HETATM   16  O   UNL     1      44.433  -8.124   8.992  1.00  0.00    -0.351 OA
BRANCH  16  17
HETATM   17  C   UNL     1      43.422  -7.861   9.965  1.00  0.00     0.171 C 
HETATM   18  C   UNL     1      43.730  -8.685  11.202  1.00  0.00     0.034 C 
ENDBRANCH  16  17
ENDBRANCH   8  16
ENDBRANCH   1   5
BRANCH   2  19
HETATM   19  C   UNL     1      43.345 -15.057   5.278  1.00  0.00     0.239 A 
HETATM   20  N   UNL     1      43.777 -16.331   5.383  1.00  0.00    -0.140 NA
HETATM   21  N   UNL     1      43.462 -16.852   4.167  1.00  0.00    -0.225 N 
HETATM   22  C   UNL     1      42.966 -15.857   3.363  1.00  0.00     0.237 A 
HETATM   23  N   UNL     1      42.866 -14.734   4.030  1.00  0.00    -0.216 NA
BRANCH  21  24
HETATM   24  C   UNL     1      43.627 -18.230   3.868  1.00  0.00     0.059 A 
HETATM   25  C   UNL     1      44.017 -19.115   4.883  1.00  0.00     0.031 A 
HETATM   26  C   UNL     1      44.144 -20.480   4.613  1.00  0.00     0.002 A 
HETATM   27  C   UNL     1      43.891 -20.966   3.332  1.00  0.00     0.000 A 
HETATM   28  C   UNL     1      43.513 -20.090   2.316  1.00  0.00     0.002 A 
HETATM   29  C   UNL     1      43.377 -18.725   2.579  1.00  0.00     0.031 A 
ENDBRANCH  21  24
ENDBRANCH   2  19
TORSDOF 6
ENDMDL
MODEL 2
REMARK VINA RESULT:      -7.7      2.603      9.005
REMARK  6 active torsions:
REMARK  status: ('A' for Active; 'I' for Inactive)
REMARK    1  A    between atoms: C_2  and  O_3 
REMARK    2  A    between atoms: O_3  and  C_4 
REMARK    3  A    between atoms: C_6  and  C_7 
REMARK       I    between atoms: C_7  and  N_8 
REMARK    4  A    between atoms: C_10  and  N_11 
REMARK       I    between atoms: N_11  and  C_12 
REMARK    5  A    between atoms: C_12  and  C_13 
REMARK    6  A    between atoms: N_15  and  C_16 
ROOT
HETATM    1  N   UNL     1      43.469 -12.598   7.535  1.00  0.00    -0.319 N 
HETATM    2  C   UNL     1      44.381 -11.564   7.386  1.00  0.00     0.295 C 
HETATM    3  O   UNL     1      44.997 -11.308   6.355  1.00  0.00    -0.264 OA
HETATM    4  H   UNL     1      42.943 -12.577   8.410  1.00  0.00     0.169 HD
ENDROOT
BRANCH   1   5
HETATM    5  C   UNL     1      43.162 -13.623   6.611  1.00  0.00     0.051 A 
HETATM    6  C   UNL     1      42.016 -13.530   5.797  1.00  0.00     0.061 A 
HETATM    7  C   UNL     1      41.661 -14.586   4.941  1.00  0.00     0.056 A 
HETATM    8  C   UNL     1      42.445 -15.736   4.863  1.00  0.00     0.069 A 
HETATM    9  C   UNL     1      43.585 -15.831   5.656  1.00  0.00     0.039 A 
HETATM   10  C   UNL     1      43.939 -14.784   6.519  1.00  0.00     0.033 A 
BRANCH   6  11
HETATM   11  C   UNL     1      41.149 -12.325   5.747  1.00  0.00     0.251 C 
HETATM   12  N   UNL     1      39.940 -12.411   6.383  1.00  0.00    -0.366 N 
HETATM   13  H   UNL     1      39.773 -13.128   7.078  1.00  0.00     0.159 HD
HETATM   14  H   UNL     1      39.441 -11.536   6.495  1.00  0.00     0.159 HD
HETATM   15  O   UNL     1      41.511 -11.285   5.215  1.00  0.00    -0.268 OA
ENDBRANCH   6  11
BRANCH   8  16
HETATM   16  O   UNL     1      42.001 -16.679   3.979  1.00  0.00    -0.351 OA
BRANCH  16  17
HETATM   17  C   UNL     1      42.978 -17.295   3.140  1.00  0.00     0.171 C 
HETATM   18  C   UNL     1      43.188 -16.406   1.928  1.00  0.00     0.034 C 
ENDBRANCH  16  17
ENDBRANCH   8  16
ENDBRANCH   1   5
BRANCH   2  19
HETATM   19  C   UNL     1      44.513 -10.736   8.607  1.00  0.00     0.239 A 
HETATM   20  N   UNL     1      43.472 -10.458   9.418  1.00  0.00    -0.140 NA
HETATM   21  N   UNL     1      44.061  -9.768  10.431  1.00  0.00    -0.225 N 
HETATM   22  C   UNL     1      45.385  -9.571  10.133  1.00  0.00     0.237 A 
HETATM   23  N   UNL     1      45.701 -10.174   9.014  1.00  0.00    -0.216 NA
BRANCH  21  24
HETATM   24  C   UNL     1      43.349  -9.375  11.594  1.00  0.00     0.059 A 
HETATM   25  C   UNL     1      42.305 -10.182  12.070  1.00  0.00     0.031 A 
HETATM   26  C   UNL     1      41.622  -9.829  13.236  1.00  0.00     0.002 A 
HETATM   27  C   UNL     1      41.970  -8.670  13.927  1.00  0.00     0.000 A 
HETATM   28  C   UNL     1      43.000  -7.859  13.455  1.00  0.00     0.002 A 
HETATM   29  C   UNL     1      43.693  -8.208  12.293  1.00  0.00     0.031 A 
ENDBRANCH  21  24
ENDBRANCH   2  19
TORSDOF 6
ENDMDL
MODEL 3
REMARK VINA RESULT:      -7.6      5.125      8.941
REMARK  6 active torsions:
REMARK  status: ('A' for Active; 'I' for Inactive)
REMARK    1  A    between atoms: C_2  and  O_3 
REMARK    2  A    between atoms: O_3  and  C_4 
REMARK    3  A    between atoms: C_6  and  C_7 
REMARK       I    between atoms: C_7  and  N_8 
REMARK    4  A    between atoms: C_10  and  N_11 
REMARK       I    between atoms: N_11  and  C_12 
REMARK    5  A    between atoms: C_12  and  C_13 
REMARK    6  A    between atoms: N_15  and  C_16 
ROOT
HETATM    1  N   UNL     1      41.854 -15.242   1.465  1.00  0.00    -0.319 N 
HETATM    2  C   UNL     1      40.530 -15.232   1.052  1.00  0.00     0.295 C 
HETATM    3  O   UNL     1      39.636 -15.927   1.526  1.00  0.00    -0.264 OA
HETATM    4  H   UNL     1      42.430 -14.501   1.064  1.00  0.00     0.169 HD
ENDROOT
BRANCH   1   5
HETATM    5  C   UNL     1      42.465 -16.115   2.394  1.00  0.00     0.051 A 
HETATM    6  C   UNL     1      42.664 -15.711   3.729  1.00  0.00     0.061 A 
HETATM    7  C   UNL     1      43.348 -16.541   4.632  1.00  0.00     0.056 A 
HETATM    8  C   UNL     1      43.825 -17.789   4.234  1.00  0.00     0.069 A 
HETATM    9  C   UNL     1      43.623 -18.200   2.920  1.00  0.00     0.039 A 
HETATM   10  C   UNL     1      42.948 -17.372   2.012  1.00  0.00     0.033 A 
BRANCH   6  11
HETATM   11  C   UNL     1      42.138 -14.435   4.279  1.00  0.00     0.251 C 
HETATM   12  N   UNL     1      43.063 -13.488   4.627  1.00  0.00    -0.366 N 
HETATM   13  H   UNL     1      44.008 -13.534   4.267  1.00  0.00     0.159 HD
HETATM   14  H   UNL     1      42.692 -12.567   4.829  1.00  0.00     0.159 HD
HETATM   15  O   UNL     1      40.939 -14.211   4.370  1.00  0.00    -0.268 OA
ENDBRANCH   6  11
BRANCH   8  16
HETATM   16  O   UNL     1      44.455 -18.506   5.212  1.00  0.00    -0.351 OA
BRANCH  16  17
HETATM   17  C   UNL     1      43.680 -19.488   5.900  1.00  0.00     0.171 C 
HETATM   18  C   UNL     1      43.995 -20.846   5.298  1.00  0.00     0.034 C 
ENDBRANCH  16  17
ENDBRANCH   8  16
ENDBRANCH   1   5
BRANCH   2  19
HETATM   19  C   UNL     1      40.272 -14.239  -0.016  1.00  0.00     0.239 A 
HETATM   20  N   UNL     1      40.801 -12.998  -0.004  1.00  0.00    -0.140 NA
HETATM   21  N   UNL     1      40.380 -12.485  -1.191  1.00  0.00    -0.225 N 
HETATM   22  C   UNL     1      39.542 -13.383  -1.800  1.00  0.00     0.237 A 
HETATM   23  N   UNL     1      39.466 -14.489  -1.103  1.00  0.00    -0.216 NA
BRANCH  21  24
HETATM   24  C   UNL     1      40.813 -11.219  -1.665  1.00  0.00     0.059 A 
HETATM   25  C   UNL     1      40.516 -10.836  -2.981  1.00  0.00     0.031 A 
HETATM   26  C   UNL     1      40.900  -9.576  -3.449  1.00  0.00     0.002 A 
HETATM   27  C   UNL     1      41.587  -8.699  -2.612  1.00  0.00     0.000 A 
HETATM   28  C   UNL     1      41.893  -9.077  -1.306  1.00  0.00     0.002 A 
HETATM   29  C   UNL     1      41.507 -10.332  -0.828  1.00  0.00     0.031 A 
ENDBRANCH  21  24
ENDBRANCH   2  19
TORSDOF 6
ENDMDL
MODEL 4
REMARK VINA RESULT:      -7.6      1.911      3.199
REMARK  6 active torsions:
REMARK  status: ('A' for Active; 'I' for Inactive)
REMARK    1  A    between atoms: C_2  and  O_3 
REMARK    2  A    between atoms: O_3  and  C_4 
REMARK    3  A    between atoms: C_6  and  C_7 
REMARK       I    between atoms: C_7  and  N_8 
REMARK    4  A    between atoms: C_10  and  N_11 
REMARK       I    between atoms: N_11  and  C_12 
REMARK    5  A    between atoms: C_12  and  C_13 
REMARK    6  A    between atoms: N_15  and  C_16 
ROOT
HETATM    1  N   UNL     1      43.188 -11.385   7.380  1.00  0.00    -0.319 N 
HETATM    2  C   UNL     1      43.257 -11.892   6.090  1.00  0.00     0.295 C 
HETATM    3  O   UNL     1      43.376 -11.217   5.071  1.00  0.00    -0.264 OA
HETATM    4  H   UNL     1      43.236 -12.091   8.116  1.00  0.00     0.169 HD
ENDROOT
BRANCH   1   5
HETATM    5  C   UNL     1      43.107 -10.030   7.776  1.00  0.00     0.051 A 
HETATM    6  C   UNL     1      44.253  -9.353   8.237  1.00  0.00     0.061 A 
HETATM    7  C   UNL     1      44.159  -8.035   8.713  1.00  0.00     0.056 A 
HETATM    8  C   UNL     1      42.938  -7.363   8.718  1.00  0.00     0.069 A 
HETATM    9  C   UNL     1      41.804  -8.021   8.253  1.00  0.00     0.039 A 
HETATM   10  C   UNL     1      41.890  -9.341   7.786  1.00  0.00     0.033 A 
BRANCH   6  11
HETATM   11  C   UNL     1      45.614  -9.946   8.211  1.00  0.00     0.251 C 
HETATM   12  N   UNL     1      46.614  -9.170   7.689  1.00  0.00    -0.366 N 
HETATM   13  H   UNL     1      46.495  -8.169   7.600  1.00  0.00     0.159 HD
HETATM   14  H   UNL     1      47.556  -9.510   7.839  1.00  0.00     0.159 HD
HETATM   15  O   UNL     1      45.851 -11.051   8.680  1.00  0.00    -0.268 OA
ENDBRANCH   6  11
BRANCH   8  16
HETATM   16  O   UNL     1      42.986  -6.080   9.187  1.00  0.00    -0.351 OA
BRANCH  16  17
HETATM   17  C   UNL     1      42.142  -5.759  10.292  1.00  0.00     0.171 C 
HETATM   18  C   UNL     1      42.616  -4.444  10.883  1.00  0.00     0.034 C 
ENDBRANCH  16  17
ENDBRANCH   8  16
ENDBRANCH   1   5
BRANCH   2  19
HETATM   19  C   UNL     1      43.224 -13.372   6.054  1.00  0.00     0.239 A 
HETATM   20  N   UNL     1      43.209 -14.075   4.903  1.00  0.00    -0.140 NA
HETATM   21  N   UNL     1      43.272 -15.361   5.341  1.00  0.00    -0.225 N 
HETATM   22  C   UNL     1      43.210 -15.376   6.711  1.00  0.00     0.237 A 
HETATM   23  N   UNL     1      43.195 -14.155   7.184  1.00  0.00    -0.216 NA
BRANCH  21  24
HETATM   24  C   UNL     1      43.407 -16.459   4.451  1.00  0.00     0.059 A 
HETATM   25  C   UNL     1      44.102 -17.604   4.867  1.00  0.00     0.031 A 
HETATM   26  C   UNL     1      44.209 -18.707   4.018  1.00  0.00     0.002 A 
HETATM   27  C   UNL     1      43.633 -18.671   2.749  1.00  0.00     0.000 A 
HETATM   28  C   UNL     1      42.950 -17.533   2.325  1.00  0.00     0.002 A 
HETATM   29  C   UNL     1      42.832 -16.428   3.171  1.00  0.00     0.031 A 
ENDBRANCH  21  24
ENDBRANCH   2  19
TORSDOF 6
ENDMDL
MODEL 5
REMARK VINA RESULT:      -7.5      1.518      2.219
REMARK  6 active torsions:
REMARK  status: ('A' for Active; 'I' for Inactive)
REMARK    1  A    between atoms: C_2  and  O_3 
REMARK    2  A    between atoms: O_3  and  C_4 
REMARK    3  A    between atoms: C_6  and  C_7 
REMARK       I    between atoms: C_7  and  N_8 
REMARK    4  A    between atoms: C_10  and  N_11 
REMARK       I    between atoms: N_11  and  C_12 
REMARK    5  A    between atoms: C_12  and  C_13 
REMARK    6  A    between atoms: N_15  and  C_16 
ROOT
HETATM    1  N   UNL     1      42.426 -12.710   5.352  1.00  0.00    -0.319 N 
HETATM    2  C   UNL     1      42.723 -13.969   5.854  1.00  0.00     0.295 C 
HETATM    3  O   UNL     1      42.732 -14.272   7.043  1.00  0.00    -0.264 OA
HETATM    4  H   UNL     1      42.323 -12.671   4.337  1.00  0.00     0.169 HD
ENDROOT
BRANCH   1   5
HETATM    5  C   UNL     1      42.211 -11.517   6.078  1.00  0.00     0.051 A 
HETATM    6  C   UNL     1      43.302 -10.786   6.588  1.00  0.00     0.061 A 
HETATM    7  C   UNL     1      43.090  -9.648   7.384  1.00  0.00     0.056 A 
HETATM    8  C   UNL     1      41.798  -9.206   7.667  1.00  0.00     0.069 A 
HETATM    9  C   UNL     1      40.715  -9.916   7.158  1.00  0.00     0.039 A 
HETATM   10  C   UNL     1      40.921 -11.058   6.370  1.00  0.00     0.033 A 
BRANCH   6  11
HETATM   11  C   UNL     1      44.718 -11.125   6.292  1.00  0.00     0.251 C 
HETATM   12  N   UNL     1      45.529 -11.371   7.367  1.00  0.00    -0.366 N 
HETATM   13  H   UNL     1      45.132 -11.594   8.271  1.00  0.00     0.159 HD
HETATM   14  H   UNL     1      46.434 -11.772   7.150  1.00  0.00     0.159 HD
HETATM   15  O   UNL     1      45.134 -11.235   5.147  1.00  0.00    -0.268 OA
ENDBRANCH   6  11
BRANCH   8  16
HETATM   16  O   UNL     1      41.729  -8.078   8.435  1.00  0.00    -0.351 OA
BRANCH  16  17
HETATM   17  C   UNL     1      42.700  -7.061   8.187  1.00  0.00     0.171 C 
HETATM   18  C   UNL     1      43.086  -6.441   9.518  1.00  0.00     0.034 C 
ENDBRANCH  16  17
ENDBRANCH   8  16
ENDBRANCH   1   5
BRANCH   2  19
HETATM   19  C   UNL     1      42.987 -14.963   4.787  1.00  0.00     0.239 A 
HETATM   20  N   UNL     1      43.304 -16.248   5.047  1.00  0.00    -0.140 NA
HETATM   21  N   UNL     1      43.365 -16.795   3.804  1.00  0.00    -0.225 N 
HETATM   22  C   UNL     1      43.194 -15.809   2.866  1.00  0.00     0.237 A 
HETATM   23  N   UNL     1      42.941 -14.661   3.446  1.00  0.00    -0.216 NA
BRANCH  21  24
HETATM   24  C   UNL     1      43.551 -18.187   3.597  1.00  0.00     0.059 A 
HETATM   25  C   UNL     1      44.020 -18.985   4.652  1.00  0.00     0.031 A 
HETATM   26  C   UNL     1      44.170 -20.363   4.476  1.00  0.00     0.002 A 
HETATM   27  C   UNL     1      43.862 -20.949   3.249  1.00  0.00     0.000 A 
HETATM   28  C   UNL     1      43.404 -20.161   2.195  1.00  0.00     0.002 A 
HETATM   29  C   UNL     1      43.246 -18.783   2.364  1.00  0.00     0.031 A 
ENDBRANCH  21  24
ENDBRANCH   2  19
TORSDOF 6
ENDMDL
MODEL 6
REMARK VINA RESULT:      -7.5      1.647      2.924
REMARK  6 active torsions:
REMARK  status: ('A' for Active; 'I' for Inactive)
REMARK    1  A    between atoms: C_2  and  O_3 
REMARK    2  A    between atoms: O_3  and  C_4 
REMARK    3  A    between atoms: C_6  and  C_7 
REMARK       I    between atoms: C_7  and  N_8 
REMARK    4  A    between atoms: C_10  and  N_11 
REMARK       I    between atoms: N_11  and  C_12 
REMARK    5  A    between atoms: C_12  and  C_13 
REMARK    6  A    between atoms: N_15  and  C_16 
ROOT
HETATM    1  N   UNL     1      42.512 -11.742   6.166  1.00  0.00    -0.319 N 
HETATM    2  C   UNL     1      42.327 -11.788   4.792  1.00  0.00     0.295 C 
HETATM    3  O   UNL     1      42.460 -10.836   4.028  1.00  0.00    -0.264 OA
HETATM    4  H   UNL     1      42.503 -12.652   6.627  1.00  0.00     0.169 HD
ENDROOT
BRANCH   1   5
HETATM    5  C   UNL     1      42.752 -10.603   6.970  1.00  0.00     0.051 A 
HETATM    6  C   UNL     1      44.046 -10.335   7.459  1.00  0.00     0.061 A 
HETATM    7  C   UNL     1      44.271  -9.255   8.328  1.00  0.00     0.056 A 
HETATM    8  C   UNL     1      43.226  -8.415   8.707  1.00  0.00     0.069 A 
HETATM    9  C   UNL     1      41.947  -8.666   8.220  1.00  0.00     0.039 A 
HETATM   10  C   UNL     1      41.715  -9.749   7.359  1.00  0.00     0.033 A 
BRANCH   6  11
HETATM   11  C   UNL     1      45.243 -11.121   7.064  1.00  0.00     0.251 C 
HETATM   12  N   UNL     1      46.445 -10.466   7.089  1.00  0.00    -0.366 N 
HETATM   13  H   UNL     1      46.552  -9.606   7.613  1.00  0.00     0.159 HD
HETATM   14  H   UNL     1      47.266 -11.052   6.994  1.00  0.00     0.159 HD
HETATM   15  O   UNL     1      45.178 -12.310   6.783  1.00  0.00    -0.268 OA
ENDBRANCH   6  11
BRANCH   8  16
HETATM   16  O   UNL     1      43.580  -7.391   9.540  1.00  0.00    -0.351 OA
BRANCH  16  17
HETATM   17  C   UNL     1      42.846  -7.258  10.757  1.00  0.00     0.171 C 
HETATM   18  C   UNL     1      43.351  -8.308  11.730  1.00  0.00     0.034 C 
ENDBRANCH  16  17
ENDBRANCH   8  16
ENDBRANCH   1   5
BRANCH   2  19
HETATM   19  C   UNL     1      41.994 -13.147   4.305  1.00  0.00     0.239 A 
HETATM   20  N   UNL     1      42.925 -14.105   4.116  1.00  0.00    -0.140 NA
HETATM   21  N   UNL     1      42.173 -15.182   3.763  1.00  0.00    -0.225 N 
HETATM   22  C   UNL     1      40.861 -14.801   3.651  1.00  0.00     0.237 A 
HETATM   23  N   UNL     1      40.714 -13.546   3.996  1.00  0.00    -0.216 NA
BRANCH  21  24
HETATM   24  C   UNL     1      42.736 -16.473   3.586  1.00  0.00     0.059 A 
HETATM   25  C   UNL     1      42.423 -17.211   2.436  1.00  0.00     0.031 A 
HETATM   26  C   UNL     1      43.001 -18.466   2.228  1.00  0.00     0.002 A 
HETATM   27  C   UNL     1      43.886 -18.992   3.168  1.00  0.00     0.000 A 
HETATM   28  C   UNL     1      44.195 -18.268   4.317  1.00  0.00     0.002 A 
HETATM   29  C   UNL     1      43.626 -17.009   4.530  1.00  0.00     0.031 A 
ENDBRANCH  21  24
ENDBRANCH   2  19
TORSDOF 6
ENDMDL
MODEL 7
REMARK VINA RESULT:      -7.5      6.587      8.941
REMARK  6 active torsions:
REMARK  status: ('A' for Active; 'I' for Inactive)
REMARK    1  A    between atoms: C_2  and  O_3 
REMARK    2  A    between atoms: O_3  and  C_4 
REMARK    3  A    between atoms: C_6  and  C_7 
REMARK       I    between atoms: C_7  and  N_8 
REMARK    4  A    between atoms: C_10  and  N_11 
REMARK       I    between atoms: N_11  and  C_12 
REMARK    5  A    between atoms: C_12  and  C_13 
REMARK    6  A    between atoms: N_15  and  C_16 
ROOT
HETATM    1  N   UNL     1      39.198 -13.294  -0.019  1.00  0.00    -0.319 N 
HETATM    2  C   UNL     1      40.474 -13.376   0.521  1.00  0.00     0.295 C 
HETATM    3  O   UNL     1      41.371 -12.558   0.342  1.00  0.00    -0.264 OA
HETATM    4  H   UNL     1      38.537 -13.979   0.348  1.00  0.00     0.169 HD
ENDROOT
BRANCH   1   5
HETATM    5  C   UNL     1      38.716 -12.358  -0.963  1.00  0.00     0.051 A 
HETATM    6  C   UNL     1      39.227 -12.342  -2.276  1.00  0.00     0.061 A 
HETATM    7  C   UNL     1      38.814 -11.359  -3.191  1.00  0.00     0.056 A 
HETATM    8  C   UNL     1      37.876 -10.395  -2.826  1.00  0.00     0.069 A 
HETATM    9  C   UNL     1      37.359 -10.411  -1.535  1.00  0.00     0.039 A 
HETATM   10  C   UNL     1      37.774 -11.384  -0.615  1.00  0.00     0.033 A 
BRANCH   6  11
HETATM   11  C   UNL     1      40.176 -13.362  -2.792  1.00  0.00     0.251 C 
HETATM   12  N   UNL     1      41.468 -12.956  -2.989  1.00  0.00    -0.366 N 
HETATM   13  H   UNL     1      41.818 -12.116  -2.544  1.00  0.00     0.159 HD
HETATM   14  H   UNL     1      42.138 -13.695  -3.167  1.00  0.00     0.159 HD
HETATM   15  O   UNL     1      39.843 -14.523  -2.982  1.00  0.00    -0.268 OA
ENDBRANCH   6  11
BRANCH   8  16
HETATM   16  O   UNL     1      37.545  -9.509  -3.813  1.00  0.00    -0.351 OA
BRANCH  16  17
HETATM   17  C   UNL     1      38.618  -8.817  -4.452  1.00  0.00     0.171 C 
HETATM   18  C   UNL     1      38.270  -8.661  -5.922  1.00  0.00     0.034 C 
ENDBRANCH  16  17
ENDBRANCH   8  16
ENDBRANCH   1   5
BRANCH   2  19
HETATM   19  C   UNL     1      40.646 -14.553   1.403  1.00  0.00     0.239 A 
HETATM   20  N   UNL     1      41.800 -15.248   1.478  1.00  0.00    -0.140 NA
HETATM   21  N   UNL     1      41.535 -16.158   2.453  1.00  0.00    -0.225 N 
HETATM   22  C   UNL     1      40.223 -16.042   2.836  1.00  0.00     0.237 A 
HETATM   23  N   UNL     1      39.648 -15.044   2.213  1.00  0.00    -0.216 NA
BRANCH  21  24
HETATM   24  C   UNL     1      42.529 -17.036   2.960  1.00  0.00     0.059 A 
HETATM   25  C   UNL     1      43.106 -16.777   4.212  1.00  0.00     0.031 A 
HETATM   26  C   UNL     1      44.056 -17.654   4.742  1.00  0.00     0.002 A 
HETATM   27  C   UNL     1      44.439 -18.786   4.025  1.00  0.00     0.000 A 
HETATM   28  C   UNL     1      43.877 -19.045   2.776  1.00  0.00     0.002 A 
HETATM   29  C   UNL     1      42.921 -18.176   2.242  1.00  0.00     0.031 A 
ENDBRANCH  21  24
ENDBRANCH   2  19
TORSDOF 6
ENDMDL
MODEL 8
REMARK VINA RESULT:      -7.3      2.287      8.871
REMARK  6 active torsions:
REMARK  status: ('A' for Active; 'I' for Inactive)
REMARK    1  A    between atoms: C_2  and  O_3 
REMARK    2  A    between atoms: O_3  and  C_4 
REMARK    3  A    between atoms: C_6  and  C_7 
REMARK       I    between atoms: C_7  and  N_8 
REMARK    4  A    between atoms: C_10  and  N_11 
REMARK       I    between atoms: N_11  and  C_12 
REMARK    5  A    between atoms: C_12  and  C_13 
REMARK    6  A    between atoms: N_15  and  C_16 
ROOT
HETATM    1  N   UNL     1      42.567 -13.441   4.790  1.00  0.00    -0.319 N 
HETATM    2  C   UNL     1      41.683 -12.384   4.621  1.00  0.00     0.295 C 
HETATM    3  O   UNL     1      40.754 -12.361   3.819  1.00  0.00    -0.264 OA
HETATM    4  H   UNL     1      43.186 -13.352   5.596  1.00  0.00     0.169 HD
ENDROOT
BRANCH   1   5
HETATM    5  C   UNL     1      42.669 -14.618   4.013  1.00  0.00     0.051 A 
HETATM    6  C   UNL     1      42.377 -15.874   4.580  1.00  0.00     0.061 A 
HETATM    7  C   UNL     1      42.560 -17.052   3.838  1.00  0.00     0.056 A 
HETATM    8  C   UNL     1      43.014 -17.002   2.520  1.00  0.00     0.069 A 
HETATM    9  C   UNL     1      43.294 -15.765   1.950  1.00  0.00     0.039 A 
HETATM   10  C   UNL     1      43.121 -14.586   2.689  1.00  0.00     0.033 A 
BRANCH   6  11
HETATM   11  C   UNL     1      41.823 -16.039   5.948  1.00  0.00     0.251 C 
HETATM   12  N   UNL     1      42.585 -16.745   6.839  1.00  0.00    -0.366 N 
HETATM   13  H   UNL     1      43.573 -16.889   6.671  1.00  0.00     0.159 HD
HETATM   14  H   UNL     1      42.286 -16.698   7.806  1.00  0.00     0.159 HD
HETATM   15  O   UNL     1      40.765 -15.528   6.288  1.00  0.00    -0.268 OA
ENDBRANCH   6  11
BRANCH   8  16
HETATM   16  O   UNL     1      43.131 -18.216   1.904  1.00  0.00    -0.351 OA
BRANCH  16  17
HETATM   17  C   UNL     1      43.765 -19.262   2.641  1.00  0.00     0.171 C 
HETATM   18  C   UNL     1      43.634 -20.547   1.844  1.00  0.00     0.034 C 
ENDBRANCH  16  17
ENDBRANCH   8  16
ENDBRANCH   1   5
BRANCH   2  19
HETATM   19  C   UNL     1      41.938 -11.269   5.562  1.00  0.00     0.239 A 
HETATM   20  N   UNL     1      42.565 -11.439   6.745  1.00  0.00    -0.140 NA
HETATM   21  N   UNL     1      42.658 -10.167   7.216  1.00  0.00    -0.225 N 
HETATM   22  C   UNL     1      41.997  -9.320   6.364  1.00  0.00     0.237 A 
HETATM   23  N   UNL     1      41.553  -9.972   5.318  1.00  0.00    -0.216 NA
BRANCH  21  24
HETATM   24  C   UNL     1      43.371  -9.849   8.401  1.00  0.00     0.059 A 
HETATM   25  C   UNL     1      42.767  -9.040   9.375  1.00  0.00     0.031 A 
HETATM   26  C   UNL     1      43.441  -8.752  10.564  1.00  0.00     0.002 A 
HETATM   27  C   UNL     1      44.720  -9.260  10.784  1.00  0.00     0.000 A 
HETATM   28  C   UNL     1      45.329 -10.057   9.817  1.00  0.00     0.002 A 
HETATM   29  C   UNL     1      44.660 -10.356   8.628  1.00  0.00     0.031 A 
ENDBRANCH  21  24
ENDBRANCH   2  19
TORSDOF 6
ENDMDL
MODEL 9
REMARK VINA RESULT:      -7.2      3.176      4.370
REMARK  6 active torsions:
REMARK  status: ('A' for Active; 'I' for Inactive)
REMARK    1  A    between atoms: C_2  and  O_3 
REMARK    2  A    between atoms: O_3  and  C_4 
REMARK    3  A    between atoms: C_6  and  C_7 
REMARK       I    between atoms: C_7  and  N_8 
REMARK    4  A    between atoms: C_10  and  N_11 
REMARK       I    between atoms: N_11  and  C_12 
REMARK    5  A    between atoms: C_12  and  C_13 
REMARK    6  A    between atoms: N_15  and  C_16 
ROOT
HETATM    1  N   UNL     1      41.360 -13.574   5.402  1.00  0.00    -0.319 N 
HETATM    2  C   UNL     1      42.745 -13.623   5.335  1.00  0.00     0.295 C 
HETATM    3  O   UNL     1      43.480 -12.652   5.182  1.00  0.00    -0.264 OA
HETATM    4  H   UNL     1      40.917 -14.451   5.677  1.00  0.00     0.169 HD
ENDROOT
BRANCH   1   5
HETATM    5  C   UNL     1      40.521 -12.457   5.182  1.00  0.00     0.051 A 
HETATM    6  C   UNL     1      39.893 -12.272   3.934  1.00  0.00     0.061 A 
HETATM    7  C   UNL     1      39.130 -11.120   3.684  1.00  0.00     0.056 A 
HETATM    8  C   UNL     1      38.960 -10.148   4.669  1.00  0.00     0.069 A 
HETATM    9  C   UNL     1      39.568 -10.330   5.908  1.00  0.00     0.039 A 
HETATM   10  C   UNL     1      40.339 -11.474   6.160  1.00  0.00     0.033 A 
BRANCH   6  11
HETATM   11  C   UNL     1      39.949 -13.273   2.839  1.00  0.00     0.251 C 
HETATM   12  N   UNL     1      38.787 -13.938   2.553  1.00  0.00    -0.366 N 
HETATM   13  H   UNL     1      37.895 -13.570   2.860  1.00  0.00     0.159 HD
HETATM   14  H   UNL     1      38.791 -14.480   1.698  1.00  0.00     0.159 HD
HETATM   15  O   UNL     1      40.963 -13.463   2.182  1.00  0.00    -0.268 OA
ENDBRANCH   6  11
BRANCH   8  16
HETATM   16  O   UNL     1      38.180  -9.087   4.305  1.00  0.00    -0.351 OA
BRANCH  16  17
HETATM   17  C   UNL     1      38.022  -8.038   5.261  1.00  0.00     0.171 C 
HETATM   18  C   UNL     1      38.489  -6.742   4.621  1.00  0.00     0.034 C 
ENDBRANCH  16  17
ENDBRANCH   8  16
ENDBRANCH   1   5
BRANCH   2  19
HETATM   19  C   UNL     1      43.278 -14.992   5.522  1.00  0.00     0.239 A 
HETATM   20  N   UNL     1      42.913 -16.032   4.743  1.00  0.00    -0.140 NA
HETATM   21  N   UNL     1      43.700 -17.040   5.207  1.00  0.00    -0.225 N 
HETATM   22  C   UNL     1      44.409 -16.597   6.294  1.00  0.00     0.237 A 
HETATM   23  N   UNL     1      44.180 -15.324   6.506  1.00  0.00    -0.216 NA
BRANCH  21  24
HETATM   24  C   UNL     1      43.743 -18.315   4.584  1.00  0.00     0.059 A 
HETATM   25  C   UNL     1      43.584 -18.410   3.194  1.00  0.00     0.031 A 
HETATM   26  C   UNL     1      43.664 -19.653   2.562  1.00  0.00     0.002 A 
HETATM   27  C   UNL     1      43.894 -20.805   3.312  1.00  0.00     0.000 A 
HETATM   28  C   UNL     1      44.043 -20.719   4.695  1.00  0.00     0.002 A 
HETATM   29  C   UNL     1      43.971 -19.478   5.334  1.00  0.00     0.031 A 
ENDBRANCH  21  24
ENDBRANCH   2  19
TORSDOF 6
ENDMDL
MODEL 10
REMARK VINA RESULT:      -7.2      4.974      7.028
REMARK  6 active torsions:
REMARK  status: ('A' for Active; 'I' for Inactive)
REMARK    1  A    between atoms: C_2  and  O_3 
REMARK    2  A    between atoms: O_3  and  C_4 
REMARK    3  A    between atoms: C_6  and  C_7 
REMARK       I    between atoms: C_7  and  N_8 
REMARK    4  A    between atoms: C_10  and  N_11 
REMARK       I    between atoms: N_11  and  C_12 
REMARK    5  A    between atoms: C_12  and  C_13 
REMARK    6  A    between atoms: N_15  and  C_16 
ROOT
HETATM    1  N   UNL     1      42.936  -9.426  10.788  1.00  0.00    -0.319 N 
HETATM    2  C   UNL     1      43.748 -10.537  10.614  1.00  0.00     0.295 C 
HETATM    3  O   UNL     1      44.094 -11.306  11.506  1.00  0.00    -0.264 OA
HETATM    4  H   UNL     1      42.631  -8.983   9.921  1.00  0.00     0.169 HD
ENDROOT
BRANCH   1   5
HETATM    5  C   UNL     1      42.460  -8.883  12.004  1.00  0.00     0.051 A 
HETATM    6  C   UNL     1      41.107  -9.030  12.369  1.00  0.00     0.061 A 
HETATM    7  C   UNL     1      40.611  -8.417  13.532  1.00  0.00     0.056 A 
HETATM    8  C   UNL     1      41.450  -7.672  14.359  1.00  0.00     0.069 A 
HETATM    9  C   UNL     1      42.790  -7.531  14.011  1.00  0.00     0.039 A 
HETATM   10  C   UNL     1      43.288  -8.132  12.846  1.00  0.00     0.033 A 
BRANCH   6  11
HETATM   11  C   UNL     1      40.143  -9.858  11.601  1.00  0.00     0.251 C 
HETATM   12  N   UNL     1      39.377 -10.735  12.320  1.00  0.00    -0.366 N 
HETATM   13  H   UNL     1      39.264 -10.621  13.320  1.00  0.00     0.159 HD
HETATM   14  H   UNL     1      38.607 -11.160  11.816  1.00  0.00     0.159 HD
HETATM   15  O   UNL     1      39.994  -9.733  10.394  1.00  0.00    -0.268 OA
ENDBRANCH   6  11
BRANCH   8  16
HETATM   16  O   UNL     1      40.849  -7.145  15.467  1.00  0.00    -0.351 OA
BRANCH  16  17
HETATM   17  C   UNL     1      41.553  -7.258  16.704  1.00  0.00     0.171 C 
HETATM   18  C   UNL     1      40.593  -7.804  17.746  1.00  0.00     0.034 C 
ENDBRANCH  16  17
ENDBRANCH   8  16
ENDBRANCH   1   5
BRANCH   2  19
HETATM   19  C   UNL     1      44.133 -10.749   9.200  1.00  0.00     0.239 A 
HETATM   20  N   UNL     1      43.231 -10.809   8.198  1.00  0.00    -0.140 NA
HETATM   21  N   UNL     1      44.020 -10.919   7.096  1.00  0.00    -0.225 N 
HETATM   22  C   UNL     1      45.330 -11.030   7.486  1.00  0.00     0.237 A 
HETATM   23  N   UNL     1      45.435 -10.912   8.787  1.00  0.00    -0.216 NA
BRANCH  21  24
HETATM   24  C   UNL     1      43.490 -10.887   5.779  1.00  0.00     0.059 A 
HETATM   25  C   UNL     1      44.127 -11.610   4.761  1.00  0.00     0.031 A 
HETATM   26  C   UNL     1      43.595 -11.621   3.469  1.00  0.00     0.002 A 
HETATM   27  C   UNL     1      42.432 -10.906   3.186  1.00  0.00     0.000 A 
HETATM   28  C   UNL     1      41.799 -10.178   4.191  1.00  0.00     0.002 A 
HETATM   29  C   UNL     1      42.322 -10.167   5.487  1.00  0.00     0.031 A 
ENDBRANCH  21  24
ENDBRANCH   2  19
TORSDOF 6
ENDMDL
