MODEL 1
REMARK VINA RESULT:      -7.7      0.000      0.000
REMARK  9 active torsions:
REMARK  status: ('A' for Active; 'I' for Inactive)
REMARK       I    between atoms: N_2  and  C_3 
REMARK    1  A    between atoms: C_3  and  C_4 
REMARK    2  A    between atoms: C_4  and  S_5 
REMARK    3  A    between atoms: S_5  and  C_6 
REMARK    4  A    between atoms: N_7  and  C_8 
REMARK    5  A    between atoms: C_8  and  C_9 
REMARK    6  A    between atoms: C_11  and  C_12 
REMARK    7  A    between atoms: C_12  and  O_13 
REMARK    8  A    between atoms: O_13  and  C_14 
REMARK    9  A    between atoms: C_15  and  C_16 
ROOT
HETATM    1  C   UNL     1      43.329 -13.310   6.665  1.00  0.00     0.192 A 
HETATM    2  N   UNL     1      42.228 -13.184   5.863  1.00  0.00    -0.306 N 
HETATM    3  C   UNL     1      41.475 -14.316   6.105  1.00  0.00     0.155 A 
HETATM    4  N   UNL     1      42.073 -15.030   7.042  1.00  0.00    -0.132 NA
HETATM    5  N   UNL     1      43.240 -14.400   7.386  1.00  0.00    -0.123 NA
ENDROOT
BRANCH   3   6
HETATM    6  C   UNL     1      40.206 -14.682   5.413  1.00  0.00     0.256 C 
BRANCH   6   7
HETATM    7  O   UNL     1      40.501 -15.835   4.619  1.00  0.00    -0.343 OA
BRANCH   7   8
HETATM    8  C   UNL     1      40.708 -15.497   3.305  1.00  0.00     0.080 A 
HETATM    9  C   UNL     1      41.794 -16.031   2.583  1.00  0.00     0.007 A 
HETATM   10  C   UNL     1      41.967 -15.571   1.259  1.00  0.00     0.015 A 
HETATM   11  C   UNL     1      41.105 -14.630   0.686  1.00  0.00     0.001 A 
HETATM   12  C   UNL     1      40.053 -14.109   1.430  1.00  0.00     0.003 A 
HETATM   13  C   UNL     1      39.861 -14.532   2.742  1.00  0.00     0.037 A 
BRANCH   9  14
HETATM   14  C   UNL     1      42.748 -17.023   3.135  1.00  0.00    -0.023 A 
HETATM   15  C   UNL     1      42.996 -18.238   2.466  1.00  0.00     0.012 A 
HETATM   16  C   UNL     1      43.927 -19.163   2.948  1.00  0.00     0.001 A 
HETATM   17  C   UNL     1      44.626 -18.898   4.121  1.00  0.00     0.000 A 
HETATM   18  C   UNL     1      44.392 -17.710   4.808  1.00  0.00     0.001 A 
HETATM   19  C   UNL     1      43.468 -16.782   4.317  1.00  0.00     0.012 A 
ENDBRANCH   9  14
ENDBRANCH   7   8
ENDBRANCH   6   7
ENDBRANCH   3   6
BRANCH   2  20
HETATM   20  C   UNL     1      41.854 -12.040   5.049  1.00  0.00     0.159 C 
BRANCH  20  21
HETATM   21  C   UNL     1      42.309 -12.057   3.618  1.00  0.00    -0.017 C 
HETATM   22  C   UNL     1      43.387 -12.659   3.097  1.00  0.00     0.008 C 
ENDBRANCH  20  21
ENDBRANCH   2  20
BRANCH   1  23
HETATM   23  S   UNL     1      44.651 -12.205   6.745  1.00  0.00    -0.081 SA
BRANCH  23  24
HETATM   24  C   UNL     1      43.901 -10.850   7.682  1.00  0.00     0.185 C 
BRANCH  24  25
HETATM   25  C   UNL     1      44.256 -10.748   9.157  1.00  0.00     0.226 C 
HETATM   26  N   UNL     1      43.241 -10.611  10.069  1.00  0.00    -0.365 N 
HETATM   27  C   UNL     1      43.506 -10.322  11.455  1.00  0.00     0.149 C 
HETATM   28  H   UNL     1      42.313 -10.377   9.723  1.00  0.00     0.161 HD
HETATM   29  O   UNL     1      45.443 -10.737   9.496  1.00  0.00    -0.273 OA
ENDBRANCH  24  25
ENDBRANCH  23  24
ENDBRANCH   1  23
TORSDOF 9
ENDMDL
MODEL 2
REMARK VINA RESULT:      -7.4      1.275      3.505
REMARK  9 active torsions:
REMARK  status: ('A' for Active; 'I' for Inactive)
REMARK       I    between atoms: N_2  and  C_3 
REMARK    1  A    between atoms: C_3  and  C_4 
REMARK    2  A    between atoms: C_4  and  S_5 
REMARK    3  A    between atoms: S_5  and  C_6 
REMARK    4  A    between atoms: N_7  and  C_8 
REMARK    5  A    between atoms: C_8  and  C_9 
REMARK    6  A    between atoms: C_11  and  C_12 
REMARK    7  A    between atoms: C_12  and  O_13 
REMARK    8  A    between atoms: O_13  and  C_14 
REMARK    9  A    between atoms: C_15  and  C_16 
ROOT
HETATM    1  C   UNL     1      43.085 -12.145   6.770  1.00  0.00     0.192 A 
HETATM    2  N   UNL     1      42.509 -13.076   5.950  1.00  0.00    -0.306 N 
HETATM    3  C   UNL     1      43.035 -14.287   6.356  1.00  0.00     0.155 A 
HETATM    4  N   UNL     1      43.822 -14.080   7.395  1.00  0.00    -0.132 NA
HETATM    5  N   UNL     1      43.858 -12.734   7.648  1.00  0.00    -0.123 NA
ENDROOT
BRANCH   3   6
HETATM    6  C   UNL     1      42.770 -15.608   5.717  1.00  0.00     0.256 C 
BRANCH   6   7
HETATM    7  O   UNL     1      43.559 -15.642   4.525  1.00  0.00    -0.343 OA
BRANCH   7   8
HETATM    8  C   UNL     1      43.595 -16.904   3.984  1.00  0.00     0.080 A 
HETATM    9  C   UNL     1      42.759 -17.253   2.905  1.00  0.00     0.007 A 
HETATM   10  C   UNL     1      42.815 -18.592   2.463  1.00  0.00     0.015 A 
HETATM   11  C   UNL     1      43.656 -19.533   3.064  1.00  0.00     0.001 A 
HETATM   12  C   UNL     1      44.456 -19.163   4.139  1.00  0.00     0.003 A 
HETATM   13  C   UNL     1      44.417 -17.853   4.608  1.00  0.00     0.037 A 
BRANCH   9  14
HETATM   14  C   UNL     1      41.839 -16.306   2.230  1.00  0.00    -0.023 A 
HETATM   15  C   UNL     1      40.522 -16.119   2.697  1.00  0.00     0.012 A 
HETATM   16  C   UNL     1      39.657 -15.196   2.101  1.00  0.00     0.001 A 
HETATM   17  C   UNL     1      40.088 -14.442   1.015  1.00  0.00     0.000 A 
HETATM   18  C   UNL     1      41.380 -14.614   0.526  1.00  0.00     0.001 A 
HETATM   19  C   UNL     1      42.246 -15.531   1.131  1.00  0.00     0.012 A 
ENDBRANCH   9  14
ENDBRANCH   7   8
ENDBRANCH   6   7
ENDBRANCH   3   6
BRANCH   2  20
HETATM   20  C   UNL     1      41.461 -12.860   4.968  1.00  0.00     0.159 C 
BRANCH  20  21
HETATM   21  C   UNL     1      41.905 -12.508   3.577  1.00  0.00    -0.017 C 
HETATM   22  C   UNL     1      43.150 -12.489   3.084  1.00  0.00     0.008 C 
ENDBRANCH  20  21
ENDBRANCH   2  20
BRANCH   1  23
HETATM   23  S   UNL     1      42.837 -10.439   6.692  1.00  0.00    -0.081 SA
BRANCH  23  24
HETATM   24  C   UNL     1      44.160  -9.857   7.782  1.00  0.00     0.185 C 
BRANCH  24  25
HETATM   25  C   UNL     1      43.781  -9.532   9.219  1.00  0.00     0.226 C 
HETATM   26  N   UNL     1      43.504 -10.568  10.074  1.00  0.00    -0.365 N 
HETATM   27  C   UNL     1      42.960 -10.336  11.387  1.00  0.00     0.149 C 
HETATM   28  H   UNL     1      43.359 -11.494   9.676  1.00  0.00     0.161 HD
HETATM   29  O   UNL     1      43.681  -8.353   9.568  1.00  0.00    -0.273 OA
ENDBRANCH  24  25
ENDBRANCH  23  24
ENDBRANCH   1  23
TORSDOF 9
ENDMDL
MODEL 3
REMARK VINA RESULT:      -7.4      3.911      7.012
REMARK  9 active torsions:
REMARK  status: ('A' for Active; 'I' for Inactive)
REMARK       I    between atoms: N_2  and  C_3 
REMARK    1  A    between atoms: C_3  and  C_4 
REMARK    2  A    between atoms: C_4  and  S_5 
REMARK    3  A    between atoms: S_5  and  C_6 
REMARK    4  A    between atoms: N_7  and  C_8 
REMARK    5  A    between atoms: C_8  and  C_9 
REMARK    6  A    between atoms: C_11  and  C_12 
REMARK    7  A    between atoms: C_12  and  O_13 
REMARK    8  A    between atoms: O_13  and  C_14 
REMARK    9  A    between atoms: C_15  and  C_16 
ROOT
HETATM    1  C   UNL     1      40.067 -13.292   0.844  1.00  0.00     0.192 A 
HETATM    2  N   UNL     1      40.510 -13.445   2.129  1.00  0.00    -0.306 N 
HETATM    3  C   UNL     1      40.478 -14.805   2.362  1.00  0.00     0.155 A 
HETATM    4  N   UNL     1      40.100 -15.416   1.254  1.00  0.00    -0.132 NA
HETATM    5  N   UNL     1      39.835 -14.463   0.305  1.00  0.00    -0.123 NA
ENDROOT
BRANCH   3   6
HETATM    6  C   UNL     1      40.802 -15.475   3.654  1.00  0.00     0.256 C 
BRANCH   6   7
HETATM    7  O   UNL     1      42.030 -16.178   3.444  1.00  0.00    -0.343 OA
BRANCH   7   8
HETATM    8  C   UNL     1      42.890 -16.011   4.501  1.00  0.00     0.080 A 
HETATM    9  C   UNL     1      43.694 -17.075   4.955  1.00  0.00     0.007 A 
HETATM   10  C   UNL     1      44.494 -16.829   6.093  1.00  0.00     0.015 A 
HETATM   11  C   UNL     1      44.490 -15.591   6.743  1.00  0.00     0.001 A 
HETATM   12  C   UNL     1      43.672 -14.566   6.282  1.00  0.00     0.003 A 
HETATM   13  C   UNL     1      42.863 -14.779   5.170  1.00  0.00     0.037 A 
BRANCH   9  14
HETATM   14  C   UNL     1      43.736 -18.412   4.316  1.00  0.00    -0.023 A 
HETATM   15  C   UNL     1      43.595 -18.553   2.921  1.00  0.00     0.012 A 
HETATM   16  C   UNL     1      43.679 -19.802   2.299  1.00  0.00     0.001 A 
HETATM   17  C   UNL     1      43.898 -20.945   3.061  1.00  0.00     0.000 A 
HETATM   18  C   UNL     1      44.030 -20.836   4.442  1.00  0.00     0.001 A 
HETATM   19  C   UNL     1      43.955 -19.584   5.061  1.00  0.00     0.012 A 
ENDBRANCH   9  14
ENDBRANCH   7   8
ENDBRANCH   6   7
ENDBRANCH   3   6
BRANCH   2  20
HETATM   20  C   UNL     1      41.043 -12.417   3.008  1.00  0.00     0.159 C 
BRANCH  20  21
HETATM   21  C   UNL     1      42.422 -11.912   2.692  1.00  0.00    -0.017 C 
HETATM   22  C   UNL     1      43.396 -11.572   3.546  1.00  0.00     0.008 C 
ENDBRANCH  20  21
ENDBRANCH   2  20
BRANCH   1  23
HETATM   23  S   UNL     1      39.850 -11.790   0.023  1.00  0.00    -0.081 SA
BRANCH  23  24
HETATM   24  C   UNL     1      38.154 -11.980  -0.581  1.00  0.00     0.185 C 
BRANCH  24  25
HETATM   25  C   UNL     1      37.975 -12.582  -1.966  1.00  0.00     0.226 C 
HETATM   26  N   UNL     1      37.967 -13.948  -2.092  1.00  0.00    -0.365 N 
HETATM   27  C   UNL     1      37.990 -14.586  -3.383  1.00  0.00     0.149 C 
HETATM   28  H   UNL     1      38.284 -14.505  -1.300  1.00  0.00     0.161 HD
HETATM   29  O   UNL     1      37.893 -11.837  -2.946  1.00  0.00    -0.273 OA
ENDBRANCH  24  25
ENDBRANCH  23  24
ENDBRANCH   1  23
TORSDOF 9
ENDMDL
MODEL 4
REMARK VINA RESULT:      -7.3      1.930      2.585
REMARK  9 active torsions:
REMARK  status: ('A' for Active; 'I' for Inactive)
REMARK       I    between atoms: N_2  and  C_3 
REMARK    1  A    between atoms: C_3  and  C_4 
REMARK    2  A    between atoms: C_4  and  S_5 
REMARK    3  A    between atoms: S_5  and  C_6 
REMARK    4  A    between atoms: N_7  and  C_8 
REMARK    5  A    between atoms: C_8  and  C_9 
REMARK    6  A    between atoms: C_11  and  C_12 
REMARK    7  A    between atoms: C_12  and  O_13 
REMARK    8  A    between atoms: O_13  and  C_14 
REMARK    9  A    between atoms: C_15  and  C_16 
ROOT
HETATM    1  C   UNL     1      44.267 -11.550   6.145  1.00  0.00     0.192 A 
HETATM    2  N   UNL     1      43.329 -12.136   5.341  1.00  0.00    -0.306 N 
HETATM    3  C   UNL     1      43.806 -11.976   4.055  1.00  0.00     0.155 A 
HETATM    4  N   UNL     1      44.986 -11.387   4.112  1.00  0.00    -0.132 NA
HETATM    5  N   UNL     1      45.270 -11.113   5.424  1.00  0.00    -0.123 NA
ENDROOT
BRANCH   3   6
HETATM    6  C   UNL     1      43.099 -12.386   2.808  1.00  0.00     0.256 C 
BRANCH   6   7
HETATM    7  O   UNL     1      43.217 -13.809   2.730  1.00  0.00    -0.343 OA
BRANCH   7   8
HETATM    8  C   UNL     1      42.102 -14.373   2.161  1.00  0.00     0.080 A 
HETATM    9  C   UNL     1      41.729 -15.699   2.459  1.00  0.00     0.007 A 
HETATM   10  C   UNL     1      40.609 -16.216   1.772  1.00  0.00     0.015 A 
HETATM   11  C   UNL     1      39.901 -15.454   0.837  1.00  0.00     0.001 A 
HETATM   12  C   UNL     1      40.304 -14.154   0.551  1.00  0.00     0.003 A 
HETATM   13  C   UNL     1      41.411 -13.618   1.203  1.00  0.00     0.037 A 
BRANCH   9  14
HETATM   14  C   UNL     1      42.443 -16.561   3.432  1.00  0.00    -0.023 A 
HETATM   15  C   UNL     1      43.394 -17.506   2.999  1.00  0.00     0.012 A 
HETATM   16  C   UNL     1      44.110 -18.293   3.906  1.00  0.00     0.001 A 
HETATM   17  C   UNL     1      43.882 -18.160   5.272  1.00  0.00     0.000 A 
HETATM   18  C   UNL     1      42.939 -17.243   5.726  1.00  0.00     0.001 A 
HETATM   19  C   UNL     1      42.232 -16.449   4.817  1.00  0.00     0.012 A 
ENDBRANCH   9  14
ENDBRANCH   7   8
ENDBRANCH   6   7
ENDBRANCH   3   6
BRANCH   2  20
HETATM   20  C   UNL     1      42.161 -12.895   5.755  1.00  0.00     0.159 C 
BRANCH  20  21
HETATM   21  C   UNL     1      40.822 -12.319   5.394  1.00  0.00    -0.017 C 
HETATM   22  C   UNL     1      39.845 -12.881   4.671  1.00  0.00     0.008 C 
ENDBRANCH  20  21
ENDBRANCH   2  20
BRANCH   1  23
HETATM   23  S   UNL     1      44.177 -11.403   7.862  1.00  0.00    -0.081 SA
BRANCH  23  24
HETATM   24  C   UNL     1      45.385 -10.087   8.152  1.00  0.00     0.185 C 
BRANCH  24  25
HETATM   25  C   UNL     1      44.866  -8.790   8.755  1.00  0.00     0.226 C 
HETATM   26  N   UNL     1      43.841  -8.854   9.664  1.00  0.00    -0.365 N 
HETATM   27  C   UNL     1      43.175  -7.666  10.133  1.00  0.00     0.149 C 
HETATM   28  H   UNL     1      43.329  -9.730   9.750  1.00  0.00     0.161 HD
HETATM   29  O   UNL     1      45.337  -7.714   8.378  1.00  0.00    -0.273 OA
ENDBRANCH  24  25
ENDBRANCH  23  24
ENDBRANCH   1  23
TORSDOF 9
ENDMDL
MODEL 5
REMARK VINA RESULT:      -7.2      2.323      4.101
REMARK  9 active torsions:
REMARK  status: ('A' for Active; 'I' for Inactive)
REMARK       I    between atoms: N_2  and  C_3 
REMARK    1  A    between atoms: C_3  and  C_4 
REMARK    2  A    between atoms: C_4  and  S_5 
REMARK    3  A    between atoms: S_5  and  C_6 
REMARK    4  A    between atoms: N_7  and  C_8 
REMARK    5  A    between atoms: C_8  and  C_9 
REMARK    6  A    between atoms: C_11  and  C_12 
REMARK    7  A    between atoms: C_12  and  O_13 
REMARK    8  A    between atoms: O_13  and  C_14 
REMARK    9  A    between atoms: C_15  and  C_16 
ROOT
HETATM    1  C   UNL     1      40.625 -12.709   5.963  1.00  0.00     0.192 A 
HETATM    2  N   UNL     1      41.839 -13.318   5.798  1.00  0.00    -0.306 N 
HETATM    3  C   UNL     1      41.621 -14.645   6.112  1.00  0.00     0.155 A 
HETATM    4  N   UNL     1      40.339 -14.812   6.382  1.00  0.00    -0.132 NA
HETATM    5  N   UNL     1      39.718 -13.593   6.295  1.00  0.00    -0.123 NA
ENDROOT
BRANCH   3   6
HETATM    6  C   UNL     1      42.662 -15.711   6.155  1.00  0.00     0.256 C 
BRANCH   6   7
HETATM    7  O   UNL     1      43.430 -15.570   4.958  1.00  0.00    -0.343 OA
BRANCH   7   8
HETATM    8  C   UNL     1      43.555 -16.767   4.298  1.00  0.00     0.080 A 
HETATM    9  C   UNL     1      42.805 -17.035   3.136  1.00  0.00     0.007 A 
HETATM   10  C   UNL     1      42.947 -18.320   2.567  1.00  0.00     0.015 A 
HETATM   11  C   UNL     1      43.789 -19.286   3.128  1.00  0.00     0.001 A 
HETATM   12  C   UNL     1      44.503 -18.998   4.286  1.00  0.00     0.003 A 
HETATM   13  C   UNL     1      44.377 -17.744   4.878  1.00  0.00     0.037 A 
BRANCH   9  14
HETATM   14  C   UNL     1      41.889 -16.059   2.498  1.00  0.00    -0.023 A 
HETATM   15  C   UNL     1      42.307 -15.287   1.396  1.00  0.00     0.012 A 
HETATM   16  C   UNL     1      41.441 -14.397   0.754  1.00  0.00     0.001 A 
HETATM   17  C   UNL     1      40.134 -14.251   1.208  1.00  0.00     0.000 A 
HETATM   18  C   UNL     1      39.698 -14.992   2.302  1.00  0.00     0.001 A 
HETATM   19  C   UNL     1      40.564 -15.890   2.935  1.00  0.00     0.012 A 
ENDBRANCH   9  14
ENDBRANCH   7   8
ENDBRANCH   6   7
ENDBRANCH   3   6
BRANCH   2  20
HETATM   20  C   UNL     1      43.056 -12.732   5.264  1.00  0.00     0.159 C 
BRANCH  20  21
HETATM   21  C   UNL     1      43.156 -12.640   3.768  1.00  0.00    -0.017 C 
HETATM   22  C   UNL     1      42.796 -11.623   2.974  1.00  0.00     0.008 C 
ENDBRANCH  20  21
ENDBRANCH   2  20
BRANCH   1  23
HETATM   23  S   UNL     1      40.304 -11.026   5.756  1.00  0.00    -0.081 SA
BRANCH  23  24
HETATM   24  C   UNL     1      39.064 -10.759   7.048  1.00  0.00     0.185 C 
BRANCH  24  25
HETATM   25  C   UNL     1      39.499  -9.968   8.272  1.00  0.00     0.226 C 
HETATM   26  N   UNL     1      40.832  -9.688   8.433  1.00  0.00    -0.365 N 
HETATM   27  C   UNL     1      41.339  -9.111   9.651  1.00  0.00     0.149 C 
HETATM   28  H   UNL     1      41.501 -10.187   7.850  1.00  0.00     0.161 HD
HETATM   29  O   UNL     1      38.658  -9.642   9.114  1.00  0.00    -0.273 OA
ENDBRANCH  24  25
ENDBRANCH  23  24
ENDBRANCH   1  23
TORSDOF 9
ENDMDL
MODEL 6
REMARK VINA RESULT:      -7.2      2.734      4.992
REMARK  9 active torsions:
REMARK  status: ('A' for Active; 'I' for Inactive)
REMARK       I    between atoms: N_2  and  C_3 
REMARK    1  A    between atoms: C_3  and  C_4 
REMARK    2  A    between atoms: C_4  and  S_5 
REMARK    3  A    between atoms: S_5  and  C_6 
REMARK    4  A    between atoms: N_7  and  C_8 
REMARK    5  A    between atoms: C_8  and  C_9 
REMARK    6  A    between atoms: C_11  and  C_12 
REMARK    7  A    between atoms: C_12  and  O_13 
REMARK    8  A    between atoms: O_13  and  C_14 
REMARK    9  A    between atoms: C_15  and  C_16 
ROOT
HETATM    1  C   UNL     1      40.493 -13.570   6.187  1.00  0.00     0.192 A 
HETATM    2  N   UNL     1      41.794 -13.945   5.991  1.00  0.00    -0.306 N 
HETATM    3  C   UNL     1      41.804 -15.315   6.164  1.00  0.00     0.155 A 
HETATM    4  N   UNL     1      40.567 -15.723   6.385  1.00  0.00    -0.132 NA
HETATM    5  N   UNL     1      39.748 -14.625   6.407  1.00  0.00    -0.123 NA
ENDROOT
BRANCH   3   6
HETATM    6  C   UNL     1      43.011 -16.189   6.125  1.00  0.00     0.256 C 
BRANCH   6   7
HETATM    7  O   UNL     1      43.596 -16.007   4.832  1.00  0.00    -0.343 OA
BRANCH   7   8
HETATM    8  C   UNL     1      43.603 -17.177   4.116  1.00  0.00     0.080 A 
HETATM    9  C   UNL     1      42.808 -17.325   2.962  1.00  0.00     0.007 A 
HETATM   10  C   UNL     1      42.827 -18.589   2.333  1.00  0.00     0.015 A 
HETATM   11  C   UNL     1      43.595 -19.648   2.827  1.00  0.00     0.001 A 
HETATM   12  C   UNL     1      44.356 -19.477   3.978  1.00  0.00     0.003 A 
HETATM   13  C   UNL     1      44.351 -18.247   4.629  1.00  0.00     0.037 A 
BRANCH   9  14
HETATM   14  C   UNL     1      41.965 -16.246   2.394  1.00  0.00    -0.023 A 
HETATM   15  C   UNL     1      40.649 -16.038   2.853  1.00  0.00     0.012 A 
HETATM   16  C   UNL     1      39.858 -14.995   2.360  1.00  0.00     0.001 A 
HETATM   17  C   UNL     1      40.363 -14.140   1.386  1.00  0.00     0.000 A 
HETATM   18  C   UNL     1      41.656 -14.330   0.907  1.00  0.00     0.001 A 
HETATM   19  C   UNL     1      42.449 -15.368   1.409  1.00  0.00     0.012 A 
ENDBRANCH   9  14
ENDBRANCH   7   8
ENDBRANCH   6   7
ENDBRANCH   3   6
BRANCH   2  20
HETATM   20  C   UNL     1      42.897 -13.110   5.548  1.00  0.00     0.159 C 
BRANCH  20  21
HETATM   21  C   UNL     1      43.022 -12.891   4.067  1.00  0.00    -0.017 C 
HETATM   22  C   UNL     1      43.079 -11.730   3.402  1.00  0.00     0.008 C 
ENDBRANCH  20  21
ENDBRANCH   2  20
BRANCH   1  23
HETATM   23  S   UNL     1      39.891 -11.954   6.144  1.00  0.00    -0.081 SA
BRANCH  23  24
HETATM   24  C   UNL     1      39.450 -11.805   4.395  1.00  0.00     0.185 C 
BRANCH  24  25
HETATM   25  C   UNL     1      39.294 -10.399   3.837  1.00  0.00     0.226 C 
HETATM   26  N   UNL     1      38.080 -10.031   3.317  1.00  0.00    -0.365 N 
HETATM   27  C   UNL     1      37.910  -8.790   2.606  1.00  0.00     0.149 C 
HETATM   28  H   UNL     1      37.395 -10.761   3.133  1.00  0.00     0.161 HD
HETATM   29  O   UNL     1      40.269  -9.643   3.817  1.00  0.00    -0.273 OA
ENDBRANCH  24  25
ENDBRANCH  23  24
ENDBRANCH   1  23
TORSDOF 9
ENDMDL
MODEL 7
REMARK VINA RESULT:      -7.2      2.916      5.127
REMARK  9 active torsions:
REMARK  status: ('A' for Active; 'I' for Inactive)
REMARK       I    between atoms: N_2  and  C_3 
REMARK    1  A    between atoms: C_3  and  C_4 
REMARK    2  A    between atoms: C_4  and  S_5 
REMARK    3  A    between atoms: S_5  and  C_6 
REMARK    4  A    between atoms: N_7  and  C_8 
REMARK    5  A    between atoms: C_8  and  C_9 
REMARK    6  A    between atoms: C_11  and  C_12 
REMARK    7  A    between atoms: C_12  and  O_13 
REMARK    8  A    between atoms: O_13  and  C_14 
REMARK    9  A    between atoms: C_15  and  C_16 
ROOT
HETATM    1  C   UNL     1      41.547 -13.384   2.699  1.00  0.00     0.192 A 
HETATM    2  N   UNL     1      41.154 -14.642   2.330  1.00  0.00    -0.306 N 
HETATM    3  C   UNL     1      42.171 -15.475   2.750  1.00  0.00     0.155 A 
HETATM    4  N   UNL     1      43.076 -14.752   3.385  1.00  0.00    -0.132 NA
HETATM    5  N   UNL     1      42.685 -13.440   3.345  1.00  0.00    -0.123 NA
ENDROOT
BRANCH   3   6
HETATM    6  C   UNL     1      42.246 -16.945   2.513  1.00  0.00     0.256 C 
BRANCH   6   7
HETATM    7  O   UNL     1      43.596 -17.327   2.790  1.00  0.00    -0.343 OA
BRANCH   7   8
HETATM    8  C   UNL     1      43.649 -18.508   3.488  1.00  0.00     0.080 A 
HETATM    9  C   UNL     1      43.619 -18.517   4.897  1.00  0.00     0.007 A 
HETATM   10  C   UNL     1      43.750 -19.773   5.529  1.00  0.00     0.015 A 
HETATM   11  C   UNL     1      43.905 -20.955   4.797  1.00  0.00     0.001 A 
HETATM   12  C   UNL     1      43.949 -20.911   3.408  1.00  0.00     0.003 A 
HETATM   13  C   UNL     1      43.834 -19.688   2.754  1.00  0.00     0.037 A 
BRANCH   9  14
HETATM   14  C   UNL     1      43.467 -17.300   5.730  1.00  0.00    -0.023 A 
HETATM   15  C   UNL     1      44.575 -16.482   6.026  1.00  0.00     0.012 A 
HETATM   16  C   UNL     1      44.440 -15.306   6.770  1.00  0.00     0.001 A 
HETATM   17  C   UNL     1      43.190 -14.925   7.247  1.00  0.00     0.000 A 
HETATM   18  C   UNL     1      42.080 -15.721   6.980  1.00  0.00     0.001 A 
HETATM   19  C   UNL     1      42.217 -16.891   6.225  1.00  0.00     0.012 A 
ENDBRANCH   9  14
ENDBRANCH   7   8
ENDBRANCH   6   7
ENDBRANCH   3   6
BRANCH   2  20
HETATM   20  C   UNL     1      39.878 -15.035   1.757  1.00  0.00     0.159 C 
BRANCH  20  21
HETATM   21  C   UNL     1      39.824 -15.168   0.262  1.00  0.00    -0.017 C 
HETATM   22  C   UNL     1      39.960 -14.206  -0.661  1.00  0.00     0.008 C 
ENDBRANCH  20  21
ENDBRANCH   2  20
BRANCH   1  23
HETATM   23  S   UNL     1      40.684 -11.924   2.386  1.00  0.00    -0.081 SA
BRANCH  23  24
HETATM   24  C   UNL     1      39.643 -11.824   3.864  1.00  0.00     0.185 C 
BRANCH  24  25
HETATM   25  C   UNL     1      40.353 -11.727   5.205  1.00  0.00     0.226 C 
HETATM   26  N   UNL     1      41.563 -11.085   5.262  1.00  0.00    -0.365 N 
HETATM   27  C   UNL     1      42.378 -11.115   6.449  1.00  0.00     0.149 C 
HETATM   28  H   UNL     1      42.040 -10.880   4.386  1.00  0.00     0.161 HD
HETATM   29  O   UNL     1      39.855 -12.267   6.196  1.00  0.00    -0.273 OA
ENDBRANCH  24  25
ENDBRANCH  23  24
ENDBRANCH   1  23
TORSDOF 9
ENDMDL
MODEL 8
REMARK VINA RESULT:      -7.1      2.479      4.841
REMARK  9 active torsions:
REMARK  status: ('A' for Active; 'I' for Inactive)
REMARK       I    between atoms: N_2  and  C_3 
REMARK    1  A    between atoms: C_3  and  C_4 
REMARK    2  A    between atoms: C_4  and  S_5 
REMARK    3  A    between atoms: S_5  and  C_6 
REMARK    4  A    between atoms: N_7  and  C_8 
REMARK    5  A    between atoms: C_8  and  C_9 
REMARK    6  A    between atoms: C_11  and  C_12 
REMARK    7  A    between atoms: C_12  and  O_13 
REMARK    8  A    between atoms: O_13  and  C_14 
REMARK    9  A    between atoms: C_15  and  C_16 
ROOT
HETATM    1  C   UNL     1      41.654 -11.977   5.926  1.00  0.00     0.192 A 
HETATM    2  N   UNL     1      42.675 -12.816   6.279  1.00  0.00    -0.306 N 
HETATM    3  C   UNL     1      42.443 -13.981   5.575  1.00  0.00     0.155 A 
HETATM    4  N   UNL     1      41.383 -13.807   4.806  1.00  0.00    -0.132 NA
HETATM    5  N   UNL     1      40.886 -12.551   5.035  1.00  0.00    -0.123 NA
ENDROOT
BRANCH   3   6
HETATM    6  C   UNL     1      43.245 -15.234   5.675  1.00  0.00     0.256 C 
BRANCH   6   7
HETATM    7  O   UNL     1      42.361 -16.304   5.330  1.00  0.00    -0.343 OA
BRANCH   7   8
HETATM    8  C   UNL     1      43.000 -17.257   4.577  1.00  0.00     0.080 A 
HETATM    9  C   UNL     1      42.866 -17.281   3.174  1.00  0.00     0.007 A 
HETATM   10  C   UNL     1      43.502 -18.341   2.491  1.00  0.00     0.015 A 
HETATM   11  C   UNL     1      44.229 -19.324   3.169  1.00  0.00     0.001 A 
HETATM   12  C   UNL     1      44.328 -19.284   4.555  1.00  0.00     0.003 A 
HETATM   13  C   UNL     1      43.704 -18.260   5.260  1.00  0.00     0.037 A 
BRANCH   9  14
HETATM   14  C   UNL     1      42.102 -16.274   2.398  1.00  0.00    -0.023 A 
HETATM   15  C   UNL     1      40.715 -16.415   2.199  1.00  0.00     0.012 A 
HETATM   16  C   UNL     1      39.972 -15.451   1.511  1.00  0.00     0.001 A 
HETATM   17  C   UNL     1      40.604 -14.325   0.994  1.00  0.00     0.000 A 
HETATM   18  C   UNL     1      41.977 -14.167   1.166  1.00  0.00     0.001 A 
HETATM   19  C   UNL     1      42.715 -15.128   1.865  1.00  0.00     0.012 A 
ENDBRANCH   9  14
ENDBRANCH   7   8
ENDBRANCH   6   7
ENDBRANCH   3   6
BRANCH   2  20
HETATM   20  C   UNL     1      43.835 -12.502   7.096  1.00  0.00     0.159 C 
BRANCH  20  21
HETATM   21  C   UNL     1      44.974 -11.807   6.406  1.00  0.00    -0.017 C 
HETATM   22  C   UNL     1      45.917 -11.024   6.947  1.00  0.00     0.008 C 
ENDBRANCH  20  21
ENDBRANCH   2  20
BRANCH   1  23
HETATM   23  S   UNL     1      41.399 -10.384   6.539  1.00  0.00    -0.081 SA
BRANCH  23  24
HETATM   24  C   UNL     1      42.024  -9.389   5.162  1.00  0.00     0.185 C 
BRANCH  24  25
HETATM   25  C   UNL     1      41.380  -9.608   3.802  1.00  0.00     0.226 C 
HETATM   26  N   UNL     1      42.071 -10.320   2.855  1.00  0.00    -0.365 N 
HETATM   27  C   UNL     1      41.611 -10.408   1.493  1.00  0.00     0.149 C 
HETATM   28  H   UNL     1      43.061 -10.498   3.016  1.00  0.00     0.161 HD
HETATM   29  O   UNL     1      40.281  -9.101   3.562  1.00  0.00    -0.273 OA
ENDBRANCH  24  25
ENDBRANCH  23  24
ENDBRANCH   1  23
TORSDOF 9
ENDMDL
MODEL 9
REMARK VINA RESULT:      -6.8     15.729     17.261
REMARK  9 active torsions:
REMARK  status: ('A' for Active; 'I' for Inactive)
REMARK       I    between atoms: N_2  and  C_3 
REMARK    1  A    between atoms: C_3  and  C_4 
REMARK    2  A    between atoms: C_4  and  S_5 
REMARK    3  A    between atoms: S_5  and  C_6 
REMARK    4  A    between atoms: N_7  and  C_8 
REMARK    5  A    between atoms: C_8  and  C_9 
REMARK    6  A    between atoms: C_11  and  C_12 
REMARK    7  A    between atoms: C_12  and  O_13 
REMARK    8  A    between atoms: O_13  and  C_14 
REMARK    9  A    between atoms: C_15  and  C_16 
ROOT
HETATM    1  C   UNL     1      48.171 -29.804   2.196  1.00  0.00     0.192 A 
HETATM    2  N   UNL     1      48.160 -29.636   0.838  1.00  0.00    -0.306 N 
HETATM    3  C   UNL     1      47.552 -28.413   0.631  1.00  0.00     0.155 A 
HETATM    4  N   UNL     1      47.283 -27.870   1.805  1.00  0.00    -0.132 NA
HETATM    5  N   UNL     1      47.665 -28.748   2.785  1.00  0.00    -0.123 NA
ENDROOT
BRANCH   3   6
HETATM    6  C   UNL     1      47.237 -27.811  -0.695  1.00  0.00     0.256 C 
BRANCH   6   7
HETATM    7  O   UNL     1      45.824 -27.592  -0.711  1.00  0.00    -0.343 OA
BRANCH   7   8
HETATM    8  C   UNL     1      45.216 -28.313  -1.708  1.00  0.00     0.080 A 
HETATM    9  C   UNL     1      44.337 -29.372  -1.403  1.00  0.00     0.007 A 
HETATM   10  C   UNL     1      43.815 -30.101  -2.494  1.00  0.00     0.015 A 
HETATM   11  C   UNL     1      44.152 -29.793  -3.815  1.00  0.00     0.001 A 
HETATM   12  C   UNL     1      45.036 -28.754  -4.084  1.00  0.00     0.003 A 
HETATM   13  C   UNL     1      45.578 -28.023  -3.031  1.00  0.00     0.037 A 
BRANCH   9  14
HETATM   14  C   UNL     1      43.948 -29.754  -0.024  1.00  0.00    -0.023 A 
HETATM   15  C   UNL     1      44.706 -30.688   0.709  1.00  0.00     0.012 A 
HETATM   16  C   UNL     1      44.380 -31.023   2.027  1.00  0.00     0.001 A 
HETATM   17  C   UNL     1      43.277 -30.438   2.640  1.00  0.00     0.000 A 
HETATM   18  C   UNL     1      42.504 -29.520   1.935  1.00  0.00     0.001 A 
HETATM   19  C   UNL     1      42.839 -29.179   0.620  1.00  0.00     0.012 A 
ENDBRANCH   9  14
ENDBRANCH   7   8
ENDBRANCH   6   7
ENDBRANCH   3   6
BRANCH   2  20
HETATM   20  C   UNL     1      48.785 -30.484  -0.161  1.00  0.00     0.159 C 
BRANCH  20  21
HETATM   21  C   UNL     1      47.870 -31.369  -0.959  1.00  0.00    -0.017 C 
HETATM   22  C   UNL     1      47.479 -31.224  -2.232  1.00  0.00     0.008 C 
ENDBRANCH  20  21
ENDBRANCH   2  20
BRANCH   1  23
HETATM   23  S   UNL     1      48.770 -31.186   3.038  1.00  0.00    -0.081 SA
BRANCH  23  24
HETATM   24  C   UNL     1      50.358 -30.555   3.634  1.00  0.00     0.185 C 
BRANCH  24  25
HETATM   25  C   UNL     1      51.125 -31.426   4.617  1.00  0.00     0.226 C 
HETATM   26  N   UNL     1      51.791 -30.819   5.651  1.00  0.00    -0.365 N 
HETATM   27  C   UNL     1      52.686 -31.556   6.506  1.00  0.00     0.149 C 
HETATM   28  H   UNL     1      51.923 -29.811   5.611  1.00  0.00     0.161 HD
HETATM   29  O   UNL     1      51.174 -32.646   4.436  1.00  0.00    -0.273 OA
ENDBRANCH  24  25
ENDBRANCH  23  24
ENDBRANCH   1  23
TORSDOF 9
ENDMDL
MODEL 10
REMARK VINA RESULT:      -6.8      1.798      2.299
REMARK  9 active torsions:
REMARK  status: ('A' for Active; 'I' for Inactive)
REMARK       I    between atoms: N_2  and  C_3 
REMARK    1  A    between atoms: C_3  and  C_4 
REMARK    2  A    between atoms: C_4  and  S_5 
REMARK    3  A    between atoms: S_5  and  C_6 
REMARK    4  A    between atoms: N_7  and  C_8 
REMARK    5  A    between atoms: C_8  and  C_9 
REMARK    6  A    between atoms: C_11  and  C_12 
REMARK    7  A    between atoms: C_12  and  O_13 
REMARK    8  A    between atoms: O_13  and  C_14 
REMARK    9  A    between atoms: C_15  and  C_16 
ROOT
HETATM    1  C   UNL     1      43.661 -10.817   7.261  1.00  0.00     0.192 A 
HETATM    2  N   UNL     1      43.138 -11.132   6.037  1.00  0.00    -0.306 N 
HETATM    3  C   UNL     1      43.455 -12.462   5.841  1.00  0.00     0.155 A 
HETATM    4  N   UNL     1      44.072 -12.913   6.918  1.00  0.00    -0.132 NA
HETATM    5  N   UNL     1      44.207 -11.876   7.804  1.00  0.00    -0.123 NA
ENDROOT
BRANCH   3   6
HETATM    6  C   UNL     1      43.164 -13.255   4.613  1.00  0.00     0.256 C 
BRANCH   6   7
HETATM    7  O   UNL     1      42.221 -14.259   4.998  1.00  0.00    -0.343 OA
BRANCH   7   8
HETATM    8  C   UNL     1      41.398 -14.600   3.954  1.00  0.00     0.080 A 
HETATM    9  C   UNL     1      41.549 -15.831   3.285  1.00  0.00     0.007 A 
HETATM   10  C   UNL     1      40.704 -16.064   2.178  1.00  0.00     0.015 A 
HETATM   11  C   UNL     1      39.760 -15.120   1.761  1.00  0.00     0.001 A 
HETATM   12  C   UNL     1      39.646 -13.907   2.430  1.00  0.00     0.003 A 
HETATM   13  C   UNL     1      40.472 -13.642   3.518  1.00  0.00     0.037 A 
BRANCH   9  14
HETATM   14  C   UNL     1      42.536 -16.868   3.672  1.00  0.00    -0.023 A 
HETATM   15  C   UNL     1      43.162 -17.671   2.698  1.00  0.00     0.012 A 
HETATM   16  C   UNL     1      44.130 -18.620   3.042  1.00  0.00     0.001 A 
HETATM   17  C   UNL     1      44.487 -18.796   4.375  1.00  0.00     0.000 A 
HETATM   18  C   UNL     1      43.875 -18.025   5.359  1.00  0.00     0.001 A 
HETATM   19  C   UNL     1      42.916 -17.068   5.010  1.00  0.00     0.012 A 
ENDBRANCH   9  14
ENDBRANCH   7   8
ENDBRANCH   6   7
ENDBRANCH   3   6
BRANCH   2  20
HETATM   20  C   UNL     1      42.300 -10.298   5.193  1.00  0.00     0.159 C 
BRANCH  20  21
HETATM   21  C   UNL     1      40.832 -10.280   5.511  1.00  0.00    -0.017 C 
HETATM   22  C   UNL     1      40.125 -11.176   6.214  1.00  0.00     0.008 C 
ENDBRANCH  20  21
ENDBRANCH   2  20
BRANCH   1  23
HETATM   23  S   UNL     1      43.613  -9.263   8.009  1.00  0.00    -0.081 SA
BRANCH  23  24
HETATM   24  C   UNL     1      42.120  -9.423   9.020  1.00  0.00     0.185 C 
BRANCH  24  25
HETATM   25  C   UNL     1      42.310  -9.511  10.527  1.00  0.00     0.226 C 
HETATM   26  N   UNL     1      41.307 -10.063  11.283  1.00  0.00    -0.365 N 
HETATM   27  C   UNL     1      41.333 -10.011  12.722  1.00  0.00     0.149 C 
HETATM   28  H   UNL     1      40.398 -10.204  10.846  1.00  0.00     0.161 HD
HETATM   29  O   UNL     1      43.329  -9.042  11.038  1.00  0.00    -0.273 OA
ENDBRANCH  24  25
ENDBRANCH  23  24
ENDBRANCH   1  23
TORSDOF 9
ENDMDL
