MODEL 1
REMARK VINA RESULT:      -9.3      0.000      0.000
REMARK  2 active torsions:
REMARK  status: ('A' for Active; 'I' for Inactive)
REMARK       I    between atoms: N_8  and  C_9 
REMARK    1  A    between atoms: C_9  and  C_10 
REMARK    2  A    between atoms: N_12  and  C_13 
ROOT
HETATM    1  C   UNL     1      41.485 -13.595   4.906  1.00  0.00     0.021 C 
HETATM    2  C   UNL     1      40.927 -15.005   5.072  1.00  0.00     0.087 C 
HETATM    3  C   UNL     1      41.680 -15.797   6.126  1.00  0.00     0.207 C 
HETATM    4  O   UNL     1      41.126 -16.269   7.114  1.00  0.00    -0.279 OA
HETATM    5  N   UNL     1      43.013 -16.019   5.816  1.00  0.00    -0.227 NA
HETATM    6  C   UNL     1      43.222 -17.189   5.040  1.00  0.00     0.042 A 
HETATM    7  C   UNL     1      42.929 -17.179   3.660  1.00  0.00     0.059 A 
HETATM    8  N   UNL     1      42.158 -16.096   3.088  1.00  0.00    -0.309 N 
HETATM    9  C   UNL     1      42.460 -15.627   1.781  1.00  0.00     0.298 C 
HETATM   10  O   UNL     1      43.432 -16.050   1.148  1.00  0.00    -0.264 OA
HETATM   11  C   UNL     1      40.865 -15.842   3.783  1.00  0.00     0.145 C 
HETATM   12  C   UNL     1      43.846 -18.277   5.650  1.00  0.00     0.026 A 
HETATM   13  C   UNL     1      44.210 -19.376   4.877  1.00  0.00     0.002 A 
HETATM   14  C   UNL     1      43.962 -19.374   3.504  1.00  0.00     0.002 A 
HETATM   15  C   UNL     1      43.326 -18.284   2.898  1.00  0.00     0.031 A 
HETATM   16  H   UNL     1      43.344 -15.241   5.254  1.00  0.00     0.136 HD
ENDROOT
BRANCH   9  17
HETATM   17  C   UNL     1      41.622 -14.544   1.190  1.00  0.00     0.239 A 
HETATM   18  N   UNL     1      40.665 -14.787   0.274  1.00  0.00    -0.140 NA
HETATM   19  N   UNL     1      40.206 -13.554  -0.041  1.00  0.00    -0.225 N 
HETATM   20  C   UNL     1      40.892 -12.619   0.688  1.00  0.00     0.237 A 
HETATM   21  N   UNL     1      41.784 -13.199   1.454  1.00  0.00    -0.216 NA
BRANCH  19  22
HETATM   22  C   UNL     1      39.173 -13.349  -0.993  1.00  0.00     0.059 A 
HETATM   23  C   UNL     1      38.933 -14.326  -1.971  1.00  0.00     0.031 A 
HETATM   24  C   UNL     1      37.925 -14.134  -2.919  1.00  0.00     0.002 A 
HETATM   25  C   UNL     1      37.153 -12.975  -2.896  1.00  0.00     0.000 A 
HETATM   26  C   UNL     1      37.385 -12.003  -1.925  1.00  0.00     0.002 A 
HETATM   27  C   UNL     1      38.392 -12.184  -0.975  1.00  0.00     0.031 A 
ENDBRANCH  19  22
ENDBRANCH   9  17
TORSDOF 2
ENDMDL
MODEL 2
REMARK VINA RESULT:      -8.7      4.605      8.274
REMARK  2 active torsions:
REMARK  status: ('A' for Active; 'I' for Inactive)
REMARK       I    between atoms: N_8  and  C_9 
REMARK    1  A    between atoms: C_9  and  C_10 
REMARK    2  A    between atoms: N_12  and  C_13 
ROOT
HETATM    1  C   UNL     1      40.730 -11.436   6.021  1.00  0.00     0.021 C 
HETATM    2  C   UNL     1      41.176 -11.714   4.590  1.00  0.00     0.087 C 
HETATM    3  C   UNL     1      40.210 -12.630   3.859  1.00  0.00     0.207 C 
HETATM    4  O   UNL     1      39.644 -12.297   2.823  1.00  0.00    -0.279 OA
HETATM    5  N   UNL     1      40.111 -13.898   4.411  1.00  0.00    -0.227 NA
HETATM    6  C   UNL     1      41.080 -14.807   3.907  1.00  0.00     0.042 A 
HETATM    7  C   UNL     1      42.412 -14.739   4.365  1.00  0.00     0.059 A 
HETATM    8  N   UNL     1      42.866 -13.587   5.114  1.00  0.00    -0.309 N 
HETATM    9  C   UNL     1      43.804 -13.755   6.169  1.00  0.00     0.298 C 
HETATM   10  O   UNL     1      44.173 -14.874   6.537  1.00  0.00    -0.264 OA
HETATM   11  C   UNL     1      42.597 -12.285   4.443  1.00  0.00     0.145 C 
HETATM   12  C   UNL     1      40.642 -15.834   3.072  1.00  0.00     0.026 A 
HETATM   13  C   UNL     1      41.534 -16.832   2.693  1.00  0.00     0.002 A 
HETATM   14  C   UNL     1      42.848 -16.805   3.160  1.00  0.00     0.002 A 
HETATM   15  C   UNL     1      43.286 -15.767   3.991  1.00  0.00     0.031 A 
HETATM   16  H   UNL     1      40.281 -13.825   5.410  1.00  0.00     0.136 HD
ENDROOT
BRANCH   9  17
HETATM   17  C   UNL     1      44.297 -12.550   6.897  1.00  0.00     0.239 A 
HETATM   18  N   UNL     1      43.651 -12.029   7.957  1.00  0.00    -0.140 NA
HETATM   19  N   UNL     1      44.378 -10.931   8.265  1.00  0.00    -0.225 N 
HETATM   20  C   UNL     1      45.428 -10.828   7.391  1.00  0.00     0.237 A 
HETATM   21  N   UNL     1      45.401 -11.811   6.524  1.00  0.00    -0.216 NA
BRANCH  19  22
HETATM   22  C   UNL     1      44.036 -10.070   9.340  1.00  0.00     0.059 A 
HETATM   23  C   UNL     1      43.859 -10.608  10.624  1.00  0.00     0.031 A 
HETATM   24  C   UNL     1      43.514  -9.775  11.691  1.00  0.00     0.002 A 
HETATM   25  C   UNL     1      43.347  -8.407  11.486  1.00  0.00     0.000 A 
HETATM   26  C   UNL     1      43.525  -7.867  10.213  1.00  0.00     0.002 A 
HETATM   27  C   UNL     1      43.867  -8.692   9.140  1.00  0.00     0.031 A 
ENDBRANCH  19  22
ENDBRANCH   9  17
TORSDOF 2
ENDMDL
MODEL 3
REMARK VINA RESULT:      -8.7      3.900      7.377
REMARK  2 active torsions:
REMARK  status: ('A' for Active; 'I' for Inactive)
REMARK       I    between atoms: N_8  and  C_9 
REMARK    1  A    between atoms: C_9  and  C_10 
REMARK    2  A    between atoms: N_12  and  C_13 
ROOT
HETATM    1  C   UNL     1      43.972 -13.809   6.860  1.00  0.00     0.021 C 
HETATM    2  C   UNL     1      44.609 -12.452   6.579  1.00  0.00     0.087 C 
HETATM    3  C   UNL     1      44.412 -11.481   7.730  1.00  0.00     0.207 C 
HETATM    4  O   UNL     1      45.355 -10.962   8.320  1.00  0.00    -0.279 OA
HETATM    5  N   UNL     1      43.086 -11.161   7.975  1.00  0.00    -0.227 NA
HETATM    6  C   UNL     1      42.619 -10.066   7.201  1.00  0.00     0.042 A 
HETATM    7  C   UNL     1      42.296 -10.255   5.841  1.00  0.00     0.059 A 
HETATM    8  N   UNL     1      42.701 -11.464   5.157  1.00  0.00    -0.309 N 
HETATM    9  C   UNL     1      41.851 -12.039   4.173  1.00  0.00     0.298 C 
HETATM   10  O   UNL     1      40.722 -11.592   3.950  1.00  0.00    -0.264 OA
HETATM   11  C   UNL     1      44.154 -11.769   5.278  1.00  0.00     0.145 C 
HETATM   12  C   UNL     1      42.363  -8.863   7.856  1.00  0.00     0.026 A 
HETATM   13  C   UNL     1      41.755  -7.822   7.160  1.00  0.00     0.002 A 
HETATM   14  C   UNL     1      41.394  -7.997   5.824  1.00  0.00     0.002 A 
HETATM   15  C   UNL     1      41.662  -9.204   5.167  1.00  0.00     0.031 A 
HETATM   16  H   UNL     1      42.513 -11.959   7.716  1.00  0.00     0.136 HD
ENDROOT
BRANCH   9  17
HETATM   17  C   UNL     1      42.308 -13.257   3.445  1.00  0.00     0.239 A 
HETATM   18  N   UNL     1      42.483 -14.444   4.056  1.00  0.00    -0.140 NA
HETATM   19  N   UNL     1      42.960 -15.241   3.073  1.00  0.00    -0.225 N 
HETATM   20  C   UNL     1      43.054 -14.518   1.914  1.00  0.00     0.237 A 
HETATM   21  N   UNL     1      42.666 -13.282   2.112  1.00  0.00    -0.216 NA
BRANCH  19  22
HETATM   22  C   UNL     1      43.291 -16.604   3.294  1.00  0.00     0.059 A 
HETATM   23  C   UNL     1      43.832 -16.990   4.530  1.00  0.00     0.031 A 
HETATM   24  C   UNL     1      44.169 -18.326   4.759  1.00  0.00     0.002 A 
HETATM   25  C   UNL     1      43.968 -19.281   3.765  1.00  0.00     0.000 A 
HETATM   26  C   UNL     1      43.428 -18.903   2.537  1.00  0.00     0.002 A 
HETATM   27  C   UNL     1      43.090 -17.569   2.297  1.00  0.00     0.031 A 
ENDBRANCH  19  22
ENDBRANCH   9  17
TORSDOF 2
ENDMDL
MODEL 4
REMARK VINA RESULT:      -8.6      3.569      7.079
REMARK  2 active torsions:
REMARK  status: ('A' for Active; 'I' for Inactive)
REMARK       I    between atoms: N_8  and  C_9 
REMARK    1  A    between atoms: C_9  and  C_10 
REMARK    2  A    between atoms: N_12  and  C_13 
ROOT
HETATM    1  C   UNL     1      43.509 -13.936   6.240  1.00  0.00     0.021 C 
HETATM    2  C   UNL     1      43.603 -12.539   5.635  1.00  0.00     0.087 C 
HETATM    3  C   UNL     1      43.010 -11.481   6.549  1.00  0.00     0.207 C 
HETATM    4  O   UNL     1      43.665 -10.530   6.964  1.00  0.00    -0.279 OA
HETATM    5  N   UNL     1      41.652 -11.634   6.778  1.00  0.00    -0.227 NA
HETATM    6  C   UNL     1      40.841 -10.996   5.803  1.00  0.00     0.042 A 
HETATM    7  C   UNL     1      40.668 -11.590   4.535  1.00  0.00     0.059 A 
HETATM    8  N   UNL     1      41.524 -12.680   4.119  1.00  0.00    -0.309 N 
HETATM    9  C   UNL     1      40.992 -13.735   3.329  1.00  0.00     0.298 C 
HETATM   10  O   UNL     1      39.788 -13.804   3.065  1.00  0.00    -0.264 OA
HETATM   11  C   UNL     1      42.979 -12.385   4.237  1.00  0.00     0.145 C 
HETATM   12  C   UNL     1      40.127  -9.862   6.186  1.00  0.00     0.026 A 
HETATM   13  C   UNL     1      39.202  -9.308   5.305  1.00  0.00     0.002 A 
HETATM   14  C   UNL     1      38.988  -9.898   4.059  1.00  0.00     0.002 A 
HETATM   15  C   UNL     1      39.715 -11.031   3.675  1.00  0.00     0.031 A 
HETATM   16  H   UNL     1      41.430 -12.625   6.730  1.00  0.00     0.136 HD
ENDROOT
BRANCH   9  17
HETATM   17  C   UNL     1      41.901 -14.823   2.869  1.00  0.00     0.239 A 
HETATM   18  N   UNL     1      41.936 -16.035   3.455  1.00  0.00    -0.140 NA
HETATM   19  N   UNL     1      42.922 -16.682   2.793  1.00  0.00    -0.225 N 
HETATM   20  C   UNL     1      43.443 -15.849   1.838  1.00  0.00     0.237 A 
HETATM   21  N   UNL     1      42.838 -14.686   1.865  1.00  0.00    -0.216 NA
BRANCH  19  22
HETATM   22  C   UNL     1      43.299 -18.015   3.104  1.00  0.00     0.059 A 
HETATM   23  C   UNL     1      43.093 -19.029   2.156  1.00  0.00     0.031 A 
HETATM   24  C   UNL     1      43.452 -20.346   2.451  1.00  0.00     0.002 A 
HETATM   25  C   UNL     1      44.018 -20.658   3.684  1.00  0.00     0.000 A 
HETATM   26  C   UNL     1      44.228 -19.655   4.628  1.00  0.00     0.002 A 
HETATM   27  C   UNL     1      43.870 -18.335   4.344  1.00  0.00     0.031 A 
ENDBRANCH  19  22
ENDBRANCH   9  17
TORSDOF 2
ENDMDL
MODEL 5
REMARK VINA RESULT:      -8.6      3.631      7.182
REMARK  2 active torsions:
REMARK  status: ('A' for Active; 'I' for Inactive)
REMARK       I    between atoms: N_8  and  C_9 
REMARK    1  A    between atoms: C_9  and  C_10 
REMARK    2  A    between atoms: N_12  and  C_13 
ROOT
HETATM    1  C   UNL     1      39.313 -12.534   3.847  1.00  0.00     0.021 C 
HETATM    2  C   UNL     1      39.420 -12.615   5.367  1.00  0.00     0.087 C 
HETATM    3  C   UNL     1      39.073 -11.295   6.034  1.00  0.00     0.207 C 
HETATM    4  O   UNL     1      38.165 -11.192   6.852  1.00  0.00    -0.279 OA
HETATM    5  N   UNL     1      39.935 -10.259   5.712  1.00  0.00    -0.227 NA
HETATM    6  C   UNL     1      41.071 -10.189   6.562  1.00  0.00     0.042 A 
HETATM    7  C   UNL     1      42.137 -11.097   6.386  1.00  0.00     0.059 A 
HETATM    8  N   UNL     1      41.966 -12.267   5.552  1.00  0.00    -0.309 N 
HETATM    9  C   UNL     1      43.051 -12.736   4.763  1.00  0.00     0.298 C 
HETATM   10  O   UNL     1      44.116 -12.116   4.689  1.00  0.00    -0.264 OA
HETATM   11  C   UNL     1      40.779 -13.093   5.905  1.00  0.00     0.145 C 
HETATM   12  C   UNL     1      41.153  -9.125   7.459  1.00  0.00     0.026 A 
HETATM   13  C   UNL     1      42.323  -8.937   8.190  1.00  0.00     0.002 A 
HETATM   14  C   UNL     1      43.403  -9.802   8.008  1.00  0.00     0.002 A 
HETATM   15  C   UNL     1      43.312 -10.874   7.113  1.00  0.00     0.031 A 
HETATM   16  H   UNL     1      40.290 -10.419   4.774  1.00  0.00     0.136 HD
ENDROOT
BRANCH   9  17
HETATM   17  C   UNL     1      42.871 -13.972   3.948  1.00  0.00     0.239 A 
HETATM   18  N   UNL     1      43.295 -15.181   4.362  1.00  0.00    -0.140 NA
HETATM   19  N   UNL     1      43.005 -15.995   3.321  1.00  0.00    -0.225 N 
HETATM   20  C   UNL     1      42.419 -15.258   2.325  1.00  0.00     0.237 A 
HETATM   21  N   UNL     1      42.330 -13.999   2.679  1.00  0.00    -0.216 NA
BRANCH  19  22
HETATM   22  C   UNL     1      43.298 -17.383   3.337  1.00  0.00     0.059 A 
HETATM   23  C   UNL     1      43.883 -17.951   4.479  1.00  0.00     0.031 A 
HETATM   24  C   UNL     1      44.184 -19.315   4.508  1.00  0.00     0.002 A 
HETATM   25  C   UNL     1      43.902 -20.117   3.404  1.00  0.00     0.000 A 
HETATM   26  C   UNL     1      43.319 -19.559   2.268  1.00  0.00     0.002 A 
HETATM   27  C   UNL     1      43.017 -18.196   2.229  1.00  0.00     0.031 A 
ENDBRANCH  19  22
ENDBRANCH   9  17
TORSDOF 2
ENDMDL
MODEL 6
REMARK VINA RESULT:      -8.3      3.612      7.239
REMARK  2 active torsions:
REMARK  status: ('A' for Active; 'I' for Inactive)
REMARK       I    between atoms: N_8  and  C_9 
REMARK    1  A    between atoms: C_9  and  C_10 
REMARK    2  A    between atoms: N_12  and  C_13 
ROOT
HETATM    1  C   UNL     1      40.307 -13.484   3.222  1.00  0.00     0.021 C 
HETATM    2  C   UNL     1      41.507 -13.910   2.382  1.00  0.00     0.087 C 
HETATM    3  C   UNL     1      41.232 -15.181   1.599  1.00  0.00     0.207 C 
HETATM    4  O   UNL     1      41.307 -15.228   0.375  1.00  0.00    -0.279 OA
HETATM    5  N   UNL     1      40.995 -16.291   2.394  1.00  0.00    -0.227 NA
HETATM    6  C   UNL     1      42.180 -16.982   2.763  1.00  0.00     0.042 A 
HETATM    7  C   UNL     1      43.009 -16.463   3.779  1.00  0.00     0.059 A 
HETATM    8  N   UNL     1      42.825 -15.105   4.246  1.00  0.00    -0.309 N 
HETATM    9  C   UNL     1      43.024 -14.797   5.619  1.00  0.00     0.298 C 
HETATM   10  O   UNL     1      43.256 -15.676   6.454  1.00  0.00    -0.264 OA
HETATM   11  C   UNL     1      42.823 -14.087   3.159  1.00  0.00     0.145 C 
HETATM   12  C   UNL     1      42.410 -18.235   2.196  1.00  0.00     0.026 A 
HETATM   13  C   UNL     1      43.474 -19.007   2.654  1.00  0.00     0.002 A 
HETATM   14  C   UNL     1      44.287 -18.529   3.682  1.00  0.00     0.002 A 
HETATM   15  C   UNL     1      44.058 -17.266   4.242  1.00  0.00     0.031 A 
HETATM   16  H   UNL     1      40.567 -15.977   3.260  1.00  0.00     0.136 HD
ENDROOT
BRANCH   9  17
HETATM   17  C   UNL     1      42.878 -13.384   6.071  1.00  0.00     0.239 A 
HETATM   18  N   UNL     1      43.904 -12.675   6.578  1.00  0.00    -0.140 NA
HETATM   19  N   UNL     1      43.339 -11.495   6.919  1.00  0.00    -0.225 N 
HETATM   20  C   UNL     1      42.005 -11.529   6.608  1.00  0.00     0.237 A 
HETATM   21  N   UNL     1      41.685 -12.689   6.089  1.00  0.00    -0.216 NA
BRANCH  19  22
HETATM   22  C   UNL     1      44.083 -10.438   7.507  1.00  0.00     0.059 A 
HETATM   23  C   UNL     1      45.485 -10.492   7.493  1.00  0.00     0.031 A 
HETATM   24  C   UNL     1      46.230  -9.463   8.074  1.00  0.00     0.002 A 
HETATM   25  C   UNL     1      45.586  -8.379   8.666  1.00  0.00     0.000 A 
HETATM   26  C   UNL     1      44.194  -8.319   8.680  1.00  0.00     0.002 A 
HETATM   27  C   UNL     1      43.439  -9.345   8.104  1.00  0.00     0.031 A 
ENDBRANCH  19  22
ENDBRANCH   9  17
TORSDOF 2
ENDMDL
MODEL 7
REMARK VINA RESULT:      -8.3      2.739      7.802
REMARK  2 active torsions:
REMARK  status: ('A' for Active; 'I' for Inactive)
REMARK       I    between atoms: N_8  and  C_9 
REMARK    1  A    between atoms: C_9  and  C_10 
REMARK    2  A    between atoms: N_12  and  C_13 
ROOT
HETATM    1  C   UNL     1      39.572 -11.615   3.008  1.00  0.00     0.021 C 
HETATM    2  C   UNL     1      40.737 -11.008   2.234  1.00  0.00     0.087 C 
HETATM    3  C   UNL     1      40.320  -9.777   1.448  1.00  0.00     0.207 C 
HETATM    4  O   UNL     1      40.839  -8.679   1.622  1.00  0.00    -0.279 OA
HETATM    5  N   UNL     1      39.383 -10.032   0.459  1.00  0.00    -0.227 NA
HETATM    6  C   UNL     1      39.963 -10.411  -0.780  1.00  0.00     0.042 A 
HETATM    7  C   UNL     1      40.463 -11.719  -0.951  1.00  0.00     0.059 A 
HETATM    8  N   UNL     1      40.653 -12.582   0.195  1.00  0.00    -0.309 N 
HETATM    9  C   UNL     1      40.405 -13.977   0.079  1.00  0.00     0.298 C 
HETATM   10  O   UNL     1      39.935 -14.468  -0.951  1.00  0.00    -0.264 OA
HETATM   11  C   UNL     1      41.467 -11.971   1.283  1.00  0.00     0.145 C 
HETATM   12  C   UNL     1      39.892  -9.508  -1.840  1.00  0.00     0.026 A 
HETATM   13  C   UNL     1      40.305  -9.909  -3.108  1.00  0.00     0.002 A 
HETATM   14  C   UNL     1      40.771 -11.208  -3.308  1.00  0.00     0.002 A 
HETATM   15  C   UNL     1      40.850 -12.109  -2.239  1.00  0.00     0.031 A 
HETATM   16  H   UNL     1      38.810 -10.817   0.757  1.00  0.00     0.136 HD
ENDROOT
BRANCH   9  17
HETATM   17  C   UNL     1      40.654 -14.855   1.257  1.00  0.00     0.239 A 
HETATM   18  N   UNL     1      41.807 -15.530   1.428  1.00  0.00    -0.140 NA
HETATM   19  N   UNL     1      41.595 -16.242   2.559  1.00  0.00    -0.225 N 
HETATM   20  C   UNL     1      40.337 -15.975   3.029  1.00  0.00     0.237 A 
HETATM   21  N   UNL     1      39.723 -15.126   2.240  1.00  0.00    -0.216 NA
BRANCH  19  22
HETATM   22  C   UNL     1      42.577 -17.111   3.104  1.00  0.00     0.059 A 
HETATM   23  C   UNL     1      43.105 -16.842   4.375  1.00  0.00     0.031 A 
HETATM   24  C   UNL     1      44.077 -17.684   4.922  1.00  0.00     0.002 A 
HETATM   25  C   UNL     1      44.523 -18.794   4.208  1.00  0.00     0.000 A 
HETATM   26  C   UNL     1      44.000 -19.067   2.946  1.00  0.00     0.002 A 
HETATM   27  C   UNL     1      43.030 -18.230   2.390  1.00  0.00     0.031 A 
ENDBRANCH  19  22
ENDBRANCH   9  17
TORSDOF 2
ENDMDL
MODEL 8
REMARK VINA RESULT:      -8.2      4.058      7.739
REMARK  2 active torsions:
REMARK  status: ('A' for Active; 'I' for Inactive)
REMARK       I    between atoms: N_8  and  C_9 
REMARK    1  A    between atoms: C_9  and  C_10 
REMARK    2  A    between atoms: N_12  and  C_13 
ROOT
HETATM    1  C   UNL     1      41.025 -13.661   3.510  1.00  0.00     0.021 C 
HETATM    2  C   UNL     1      40.228 -12.928   4.585  1.00  0.00     0.087 C 
HETATM    3  C   UNL     1      39.976 -11.476   4.218  1.00  0.00     0.207 C 
HETATM    4  O   UNL     1      38.846 -11.010   4.120  1.00  0.00    -0.279 OA
HETATM    5  N   UNL     1      41.131 -10.716   4.110  1.00  0.00    -0.227 NA
HETATM    6  C   UNL     1      41.549 -10.150   5.343  1.00  0.00     0.042 A 
HETATM    7  C   UNL     1      42.200 -10.956   6.301  1.00  0.00     0.059 A 
HETATM    8  N   UNL     1      42.190 -12.397   6.167  1.00  0.00    -0.309 N 
HETATM    9  C   UNL     1      43.332 -13.150   6.555  1.00  0.00     0.298 C 
HETATM   10  O   UNL     1      44.379 -12.603   6.913  1.00  0.00    -0.264 OA
HETATM   11  C   UNL     1      40.830 -12.979   5.999  1.00  0.00     0.145 C 
HETATM   12  C   UNL     1      41.423  -8.771   5.507  1.00  0.00     0.026 A 
HETATM   13  C   UNL     1      41.969  -8.165   6.634  1.00  0.00     0.002 A 
HETATM   14  C   UNL     1      42.648  -8.936   7.578  1.00  0.00     0.002 A 
HETATM   15  C   UNL     1      42.764 -10.322   7.414  1.00  0.00     0.031 A 
HETATM   16  H   UNL     1      41.885 -11.324   3.804  1.00  0.00     0.136 HD
ENDROOT
BRANCH   9  17
HETATM   17  C   UNL     1      43.285 -14.637   6.456  1.00  0.00     0.239 A 
HETATM   18  N   UNL     1      43.532 -15.295   5.308  1.00  0.00    -0.140 NA
HETATM   19  N   UNL     1      43.319 -16.591   5.632  1.00  0.00    -0.225 N 
HETATM   20  C   UNL     1      42.956 -16.671   6.950  1.00  0.00     0.237 A 
HETATM   21  N   UNL     1      42.916 -15.476   7.488  1.00  0.00    -0.216 NA
BRANCH  19  22
HETATM   22  C   UNL     1      43.466 -17.643   4.690  1.00  0.00     0.059 A 
HETATM   23  C   UNL     1      43.092 -17.431   3.355  1.00  0.00     0.031 A 
HETATM   24  C   UNL     1      43.225 -18.459   2.419  1.00  0.00     0.002 A 
HETATM   25  C   UNL     1      43.732 -19.697   2.805  1.00  0.00     0.000 A 
HETATM   26  C   UNL     1      44.108 -19.913   4.130  1.00  0.00     0.002 A 
HETATM   27  C   UNL     1      43.976 -18.892   5.074  1.00  0.00     0.031 A 
ENDBRANCH  19  22
ENDBRANCH   9  17
TORSDOF 2
ENDMDL
MODEL 9
REMARK VINA RESULT:      -8.1      1.877      3.233
REMARK  2 active torsions:
REMARK  status: ('A' for Active; 'I' for Inactive)
REMARK       I    between atoms: N_8  and  C_9 
REMARK    1  A    between atoms: C_9  and  C_10 
REMARK    2  A    between atoms: N_12  and  C_13 
ROOT
HETATM    1  C   UNL     1      40.734 -16.199   1.866  1.00  0.00     0.021 C 
HETATM    2  C   UNL     1      42.189 -16.094   2.314  1.00  0.00     0.087 C 
HETATM    3  C   UNL     1      42.455 -16.892   3.578  1.00  0.00     0.207 C 
HETATM    4  O   UNL     1      43.288 -17.792   3.624  1.00  0.00    -0.279 OA
HETATM    5  N   UNL     1      41.752 -16.444   4.684  1.00  0.00    -0.227 NA
HETATM    6  C   UNL     1      42.424 -15.418   5.400  1.00  0.00     0.042 A 
HETATM    7  C   UNL     1      42.429 -14.099   4.900  1.00  0.00     0.059 A 
HETATM    8  N   UNL     1      42.009 -13.835   3.540  1.00  0.00    -0.309 N 
HETATM    9  C   UNL     1      41.297 -12.642   3.239  1.00  0.00     0.298 C 
HETATM   10  O   UNL     1      40.935 -11.862   4.124  1.00  0.00    -0.264 OA
HETATM   11  C   UNL     1      42.711 -14.662   2.519  1.00  0.00     0.145 C 
HETATM   12  C   UNL     1      42.944 -15.728   6.656  1.00  0.00     0.026 A 
HETATM   13  C   UNL     1      43.465 -14.711   7.450  1.00  0.00     0.002 A 
HETATM   14  C   UNL     1      43.449 -13.393   6.990  1.00  0.00     0.002 A 
HETATM   15  C   UNL     1      42.935 -13.088   5.725  1.00  0.00     0.031 A 
HETATM   16  H   UNL     1      40.876 -16.041   4.364  1.00  0.00     0.136 HD
ENDROOT
BRANCH   9  17
HETATM   17  C   UNL     1      40.918 -12.365   1.824  1.00  0.00     0.239 A 
HETATM   18  N   UNL     1      40.046 -13.134   1.143  1.00  0.00    -0.140 NA
HETATM   19  N   UNL     1      40.039 -12.588  -0.095  1.00  0.00    -0.225 N 
HETATM   20  C   UNL     1      40.894 -11.518  -0.119  1.00  0.00     0.237 A 
HETATM   21  N   UNL     1      41.462 -11.358   1.052  1.00  0.00    -0.216 NA
BRANCH  19  22
HETATM   22  C   UNL     1      39.242 -13.106  -1.148  1.00  0.00     0.059 A 
HETATM   23  C   UNL     1      39.624 -14.301  -1.778  1.00  0.00     0.031 A 
HETATM   24  C   UNL     1      38.854 -14.820  -2.821  1.00  0.00     0.002 A 
HETATM   25  C   UNL     1      37.703 -14.156  -3.240  1.00  0.00     0.000 A 
HETATM   26  C   UNL     1      37.317 -12.971  -2.616  1.00  0.00     0.002 A 
HETATM   27  C   UNL     1      38.082 -12.442  -1.574  1.00  0.00     0.031 A 
ENDBRANCH  19  22
ENDBRANCH   9  17
TORSDOF 2
ENDMDL
MODEL 10
REMARK VINA RESULT:      -8.1      5.233      7.895
REMARK  2 active torsions:
REMARK  status: ('A' for Active; 'I' for Inactive)
REMARK       I    between atoms: N_8  and  C_9 
REMARK    1  A    between atoms: C_9  and  C_10 
REMARK    2  A    between atoms: N_12  and  C_13 
ROOT
HETATM    1  C   UNL     1      41.486  -8.571   5.165  1.00  0.00     0.021 C 
HETATM    2  C   UNL     1      40.917  -9.107   6.475  1.00  0.00     0.087 C 
HETATM    3  C   UNL     1      40.926  -8.057   7.572  1.00  0.00     0.207 C 
HETATM    4  O   UNL     1      39.903  -7.695   8.144  1.00  0.00    -0.279 OA
HETATM    5  N   UNL     1      42.195  -7.631   7.931  1.00  0.00    -0.227 NA
HETATM    6  C   UNL     1      42.795  -8.435   8.936  1.00  0.00     0.042 A 
HETATM    7  C   UNL     1      43.340  -9.691   8.598  1.00  0.00     0.059 A 
HETATM    8  N   UNL     1      43.045 -10.292   7.315  1.00  0.00    -0.309 N 
HETATM    9  C   UNL     1      44.043 -11.047   6.642  1.00  0.00     0.298 C 
HETATM   10  O   UNL     1      45.197 -11.127   7.073  1.00  0.00    -0.264 OA
HETATM   11  C   UNL     1      41.590 -10.382   7.011  1.00  0.00     0.145 C 
HETATM   12  C   UNL     1      42.948  -7.886  10.209  1.00  0.00     0.026 A 
HETATM   13  C   UNL     1      43.674  -8.583  11.170  1.00  0.00     0.002 A 
HETATM   14  C   UNL     1      44.251  -9.812  10.849  1.00  0.00     0.002 A 
HETATM   15  C   UNL     1      44.087 -10.364   9.573  1.00  0.00     0.031 A 
HETATM   16  H   UNL     1      42.797  -7.698   7.115  1.00  0.00     0.136 HD
ENDROOT
BRANCH   9  17
HETATM   17  C   UNL     1      43.704 -11.699   5.345  1.00  0.00     0.239 A 
HETATM   18  N   UNL     1      43.421 -13.012   5.245  1.00  0.00    -0.140 NA
HETATM   19  N   UNL     1      43.243 -13.200   3.918  1.00  0.00    -0.225 N 
HETATM   20  C   UNL     1      43.420 -12.008   3.267  1.00  0.00     0.237 A 
HETATM   21  N   UNL     1      43.716 -11.059   4.122  1.00  0.00    -0.216 NA
BRANCH  19  22
HETATM   22  C   UNL     1      42.928 -14.469   3.366  1.00  0.00     0.059 A 
HETATM   23  C   UNL     1      43.373 -14.790   2.075  1.00  0.00     0.031 A 
HETATM   24  C   UNL     1      43.064 -16.032   1.516  1.00  0.00     0.002 A 
HETATM   25  C   UNL     1      42.316 -16.959   2.239  1.00  0.00     0.000 A 
HETATM   26  C   UNL     1      41.873 -16.647   3.523  1.00  0.00     0.002 A 
HETATM   27  C   UNL     1      42.174 -15.406   4.089  1.00  0.00     0.031 A 
ENDBRANCH  19  22
ENDBRANCH   9  17
TORSDOF 2
ENDMDL
