MODEL 1
REMARK VINA RESULT:      -9.2      0.000      0.000
REMARK  5 active torsions:
REMARK  status: ('A' for Active; 'I' for Inactive)
REMARK    1  A    between atoms: C_4  and  C_5 
REMARK    2  A    between atoms: C_13  and  C_14 
REMARK       I    between atoms: C_14  and  N_15 
REMARK    3  A    between atoms: N_15  and  C_16 
REMARK    4  A    between atoms: C_17  and  N_18 
REMARK    5  A    between atoms: C_21  and  O_22 
ROOT
HETATM    1  C   UNL     1      42.223 -12.837   2.519  1.00  0.00     0.258 C 
HETATM    2  N   UNL     1      40.893 -12.850   2.172  1.00  0.00    -0.321 N 
HETATM    3  O   UNL     1      42.940 -11.853   2.668  1.00  0.00    -0.267 OA
HETATM    4  H   UNL     1      40.467 -13.687   1.784  1.00  0.00     0.169 HD
ENDROOT
BRANCH   2   5
HETATM    5  C   UNL     1      40.007 -11.748   2.263  1.00  0.00     0.056 A 
HETATM    6  C   UNL     1      39.408 -11.282   1.064  1.00  0.00     0.037 A 
HETATM    7  C   UNL     1      38.426 -10.280   1.168  1.00  0.00     0.026 A 
HETATM    8  C   UNL     1      38.063  -9.746   2.407  1.00  0.00     0.002 A 
HETATM    9  C   UNL     1      38.681 -10.194   3.569  1.00  0.00     0.002 A 
HETATM   10  C   UNL     1      39.652 -11.190   3.496  1.00  0.00     0.031 A 
BRANCH   6  11
HETATM   11  N   UNL     1      39.878 -11.779  -0.193  1.00  0.00    -0.281 NA
HETATM   12  C   UNL     1      39.636 -10.746  -1.230  1.00  0.00     0.098 C 
HETATM   13  C   UNL     1      40.315 -11.161  -2.537  1.00  0.00     0.046 C 
HETATM   14  C   UNL     1      39.857 -12.544  -2.991  1.00  0.00     0.120 C 
HETATM   15  C   UNL     1      40.010 -13.570  -1.871  1.00  0.00     0.046 C 
HETATM   16  C   UNL     1      39.327 -13.092  -0.591  1.00  0.00     0.098 C 
BRANCH  14  17
HETATM   17  O   UNL     1      38.490 -12.497  -3.402  1.00  0.00    -0.395 OA
HETATM   18  H   UNL     1      38.242 -13.389  -3.704  1.00  0.00     0.210 HD
ENDBRANCH  14  17
ENDBRANCH   6  11
ENDBRANCH   2   5
BRANCH   1  19
HETATM   19  C   UNL     1      42.823 -14.152   2.780  1.00  0.00     0.056 A 
HETATM   20  C   UNL     1      42.868 -14.712   4.050  1.00  0.00     0.047 A 
HETATM   21  C   UNL     1      42.506 -13.924   5.274  1.00  0.00     0.071 C 
HETATM   22  N   UNL     1      43.215 -16.015   4.248  1.00  0.00    -0.252 NA
HETATM   23  C   UNL     1      43.486 -16.804   3.171  1.00  0.00     0.067 A 
HETATM   24  C   UNL     1      43.486 -16.279   1.878  1.00  0.00     0.033 A 
HETATM   25  C   UNL     1      43.153 -14.940   1.681  1.00  0.00     0.021 A 
BRANCH  23  26
HETATM   26  C   UNL     1      43.683 -18.248   3.455  1.00  0.00    -0.007 A 
HETATM   27  C   UNL     1      44.019 -18.683   4.753  1.00  0.00     0.014 A 
HETATM   28  C   UNL     1      44.146 -20.041   5.066  1.00  0.00     0.001 A 
HETATM   29  C   UNL     1      43.943 -21.004   4.085  1.00  0.00     0.000 A 
HETATM   30  C   UNL     1      43.626 -20.607   2.790  1.00  0.00     0.001 A 
HETATM   31  C   UNL     1      43.504 -19.247   2.479  1.00  0.00     0.014 A 
ENDBRANCH  23  26
ENDBRANCH   1  19
TORSDOF 5
ENDMDL
MODEL 2
REMARK VINA RESULT:      -9.2      1.397      1.524
REMARK  5 active torsions:
REMARK  status: ('A' for Active; 'I' for Inactive)
REMARK    1  A    between atoms: C_4  and  C_5 
REMARK    2  A    between atoms: C_13  and  C_14 
REMARK       I    between atoms: C_14  and  N_15 
REMARK    3  A    between atoms: N_15  and  C_16 
REMARK    4  A    between atoms: C_17  and  N_18 
REMARK    5  A    between atoms: C_21  and  O_22 
ROOT
HETATM    1  C   UNL     1      41.287 -12.642   2.545  1.00  0.00     0.258 C 
HETATM    2  N   UNL     1      41.770 -11.709   1.660  1.00  0.00    -0.321 N 
HETATM    3  O   UNL     1      40.302 -12.536   3.268  1.00  0.00    -0.267 OA
HETATM    4  H   UNL     1      42.732 -11.753   1.335  1.00  0.00     0.169 HD
ENDROOT
BRANCH   2   5
HETATM    5  C   UNL     1      41.045 -10.603   1.149  1.00  0.00     0.056 A 
HETATM    6  C   UNL     1      40.257 -10.811  -0.012  1.00  0.00     0.037 A 
HETATM    7  C   UNL     1      39.431  -9.755  -0.440  1.00  0.00     0.026 A 
HETATM    8  C   UNL     1      39.399  -8.536   0.242  1.00  0.00     0.002 A 
HETATM    9  C   UNL     1      40.201  -8.341   1.361  1.00  0.00     0.002 A 
HETATM   10  C   UNL     1      41.023  -9.371   1.811  1.00  0.00     0.031 A 
BRANCH   6  11
HETATM   11  N   UNL     1      40.392 -12.034  -0.742  1.00  0.00    -0.281 NA
HETATM   12  C   UNL     1      40.749 -11.710  -2.145  1.00  0.00     0.098 C 
HETATM   13  C   UNL     1      41.105 -12.995  -2.895  1.00  0.00     0.046 C 
HETATM   14  C   UNL     1      39.977 -14.020  -2.815  1.00  0.00     0.120 C 
HETATM   15  C   UNL     1      39.548 -14.255  -1.368  1.00  0.00     0.046 C 
HETATM   16  C   UNL     1      39.223 -12.936  -0.670  1.00  0.00     0.098 C 
BRANCH  14  17
HETATM   17  O   UNL     1      38.852 -13.571  -3.571  1.00  0.00    -0.395 OA
HETATM   18  H   UNL     1      38.052 -13.942  -3.158  1.00  0.00     0.210 HD
ENDBRANCH  14  17
ENDBRANCH   6  11
ENDBRANCH   2   5
BRANCH   1  19
HETATM   19  C   UNL     1      42.015 -13.917   2.583  1.00  0.00     0.056 A 
HETATM   20  C   UNL     1      42.700 -14.351   3.711  1.00  0.00     0.047 A 
HETATM   21  C   UNL     1      42.925 -13.455   4.892  1.00  0.00     0.071 C 
HETATM   22  N   UNL     1      43.176 -15.624   3.817  1.00  0.00    -0.252 NA
HETATM   23  C   UNL     1      42.942 -16.508   2.807  1.00  0.00     0.067 A 
HETATM   24  C   UNL     1      42.288 -16.110   1.640  1.00  0.00     0.033 A 
HETATM   25  C   UNL     1      41.823 -14.802   1.527  1.00  0.00     0.021 A 
BRANCH  23  26
HETATM   26  C   UNL     1      43.337 -17.916   3.070  1.00  0.00    -0.007 A 
HETATM   27  C   UNL     1      43.911 -18.279   4.305  1.00  0.00     0.014 A 
HETATM   28  C   UNL     1      44.233 -19.607   4.608  1.00  0.00     0.001 A 
HETATM   29  C   UNL     1      43.991 -20.610   3.677  1.00  0.00     0.000 A 
HETATM   30  C   UNL     1      43.440 -20.284   2.442  1.00  0.00     0.001 A 
HETATM   31  C   UNL     1      43.123 -18.953   2.142  1.00  0.00     0.014 A 
ENDBRANCH  23  26
ENDBRANCH   1  19
TORSDOF 5
ENDMDL
MODEL 3
REMARK VINA RESULT:      -9.0      4.076      6.088
REMARK  5 active torsions:
REMARK  status: ('A' for Active; 'I' for Inactive)
REMARK    1  A    between atoms: C_4  and  C_5 
REMARK    2  A    between atoms: C_13  and  C_14 
REMARK       I    between atoms: C_14  and  N_15 
REMARK    3  A    between atoms: N_15  and  C_16 
REMARK    4  A    between atoms: C_17  and  N_18 
REMARK    5  A    between atoms: C_21  and  O_22 
ROOT
HETATM    1  C   UNL     1      40.860 -12.997   5.107  1.00  0.00     0.258 C 
HETATM    2  N   UNL     1      41.149 -12.272   6.238  1.00  0.00    -0.321 N 
HETATM    3  O   UNL     1      40.069 -12.699   4.218  1.00  0.00    -0.267 OA
HETATM    4  H   UNL     1      41.573 -12.719   7.046  1.00  0.00     0.169 HD
ENDROOT
BRANCH   2   5
HETATM    5  C   UNL     1      40.867 -10.896   6.430  1.00  0.00     0.056 A 
HETATM    6  C   UNL     1      41.940 -10.050   6.813  1.00  0.00     0.037 A 
HETATM    7  C   UNL     1      41.694  -8.666   6.871  1.00  0.00     0.026 A 
HETATM    8  C   UNL     1      40.432  -8.140   6.578  1.00  0.00     0.002 A 
HETATM    9  C   UNL     1      39.385  -8.987   6.233  1.00  0.00     0.002 A 
HETATM   10  C   UNL     1      39.602 -10.361   6.162  1.00  0.00     0.031 A 
BRANCH   6  11
HETATM   11  N   UNL     1      43.187 -10.633   7.204  1.00  0.00    -0.281 NA
HETATM   12  C   UNL     1      43.783  -9.799   8.277  1.00  0.00     0.098 C 
HETATM   13  C   UNL     1      45.007 -10.508   8.858  1.00  0.00     0.046 C 
HETATM   14  C   UNL     1      46.023 -10.852   7.772  1.00  0.00     0.120 C 
HETATM   15  C   UNL     1      45.364 -11.613   6.623  1.00  0.00     0.046 C 
HETATM   16  C   UNL     1      44.141 -10.865   6.098  1.00  0.00     0.098 C 
BRANCH  14  17
HETATM   17  O   UNL     1      46.620  -9.659   7.263  1.00  0.00    -0.395 OA
HETATM   18  H   UNL     1      47.250  -9.336   7.931  1.00  0.00     0.210 HD
ENDBRANCH  14  17
ENDBRANCH   6  11
ENDBRANCH   2   5
BRANCH   1  19
HETATM   19  C   UNL     1      41.624 -14.240   4.939  1.00  0.00     0.056 A 
HETATM   20  C   UNL     1      41.247 -15.435   5.538  1.00  0.00     0.047 A 
HETATM   21  C   UNL     1      40.160 -15.492   6.569  1.00  0.00     0.071 C 
HETATM   22  N   UNL     1      41.823 -16.622   5.197  1.00  0.00    -0.252 NA
HETATM   23  C   UNL     1      42.767 -16.647   4.215  1.00  0.00     0.067 A 
HETATM   24  C   UNL     1      43.203 -15.469   3.608  1.00  0.00     0.033 A 
HETATM   25  C   UNL     1      42.628 -14.254   3.975  1.00  0.00     0.021 A 
BRANCH  23  26
HETATM   26  C   UNL     1      43.219 -17.994   3.781  1.00  0.00    -0.007 A 
HETATM   27  C   UNL     1      43.831 -18.874   4.696  1.00  0.00     0.014 A 
HETATM   28  C   UNL     1      44.206 -20.172   4.334  1.00  0.00     0.001 A 
HETATM   29  C   UNL     1      43.983 -20.625   3.039  1.00  0.00     0.000 A 
HETATM   30  C   UNL     1      43.396 -19.776   2.106  1.00  0.00     0.001 A 
HETATM   31  C   UNL     1      43.024 -18.476   2.472  1.00  0.00     0.014 A 
ENDBRANCH  23  26
ENDBRANCH   1  19
TORSDOF 5
ENDMDL
MODEL 4
REMARK VINA RESULT:      -8.9      2.440      8.956
REMARK  5 active torsions:
REMARK  status: ('A' for Active; 'I' for Inactive)
REMARK    1  A    between atoms: C_4  and  C_5 
REMARK    2  A    between atoms: C_13  and  C_14 
REMARK       I    between atoms: C_14  and  N_15 
REMARK    3  A    between atoms: N_15  and  C_16 
REMARK    4  A    between atoms: C_17  and  N_18 
REMARK    5  A    between atoms: C_21  and  O_22 
ROOT
HETATM    1  C   UNL     1      42.477 -15.445   1.959  1.00  0.00     0.258 C 
HETATM    2  N   UNL     1      42.060 -16.476   2.765  1.00  0.00    -0.321 N 
HETATM    3  O   UNL     1      43.632 -15.159   1.659  1.00  0.00    -0.267 OA
HETATM    4  H   UNL     1      41.139 -16.459   3.194  1.00  0.00     0.169 HD
ENDROOT
BRANCH   2   5
HETATM    5  C   UNL     1      42.833 -17.611   3.118  1.00  0.00     0.056 A 
HETATM    6  C   UNL     1      43.257 -17.726   4.467  1.00  0.00     0.037 A 
HETATM    7  C   UNL     1      43.906 -18.914   4.850  1.00  0.00     0.026 A 
HETATM    8  C   UNL     1      44.142 -19.941   3.932  1.00  0.00     0.002 A 
HETATM    9  C   UNL     1      43.746 -19.798   2.607  1.00  0.00     0.002 A 
HETATM   10  C   UNL     1      43.095 -18.635   2.202  1.00  0.00     0.031 A 
BRANCH   6  11
HETATM   11  N   UNL     1      43.090 -16.615   5.352  1.00  0.00    -0.281 NA
HETATM   12  C   UNL     1      44.380 -16.357   6.037  1.00  0.00     0.098 C 
HETATM   13  C   UNL     1      44.290 -15.051   6.828  1.00  0.00     0.046 C 
HETATM   14  C   UNL     1      43.118 -15.068   7.806  1.00  0.00     0.120 C 
HETATM   15  C   UNL     1      41.817 -15.445   7.100  1.00  0.00     0.046 C 
HETATM   16  C   UNL     1      41.976 -16.746   6.316  1.00  0.00     0.098 C 
BRANCH  14  17
HETATM   17  O   UNL     1      43.369 -16.001   8.857  1.00  0.00    -0.395 OA
HETATM   18  H   UNL     1      43.154 -15.562   9.699  1.00  0.00     0.210 HD
ENDBRANCH  14  17
ENDBRANCH   6  11
ENDBRANCH   2   5
BRANCH   1  19
HETATM   19  C   UNL     1      41.407 -14.633   1.364  1.00  0.00     0.056 A 
HETATM   20  C   UNL     1      41.382 -13.248   1.457  1.00  0.00     0.047 A 
HETATM   21  C   UNL     1      42.324 -12.499   2.352  1.00  0.00     0.071 C 
HETATM   22  N   UNL     1      40.522 -12.494   0.716  1.00  0.00    -0.252 NA
HETATM   23  C   UNL     1      39.689 -13.109  -0.169  1.00  0.00     0.067 A 
HETATM   24  C   UNL     1      39.655 -14.500  -0.275  1.00  0.00     0.033 A 
HETATM   25  C   UNL     1      40.520 -15.269   0.500  1.00  0.00     0.021 A 
BRANCH  23  26
HETATM   26  C   UNL     1      38.910 -12.213  -1.061  1.00  0.00    -0.007 A 
HETATM   27  C   UNL     1      37.844 -12.719  -1.831  1.00  0.00     0.014 A 
HETATM   28  C   UNL     1      37.050 -11.888  -2.630  1.00  0.00     0.001 A 
HETATM   29  C   UNL     1      37.305 -10.523  -2.683  1.00  0.00     0.000 A 
HETATM   30  C   UNL     1      38.361  -9.994  -1.947  1.00  0.00     0.001 A 
HETATM   31  C   UNL     1      39.155 -10.829  -1.152  1.00  0.00     0.014 A 
ENDBRANCH  23  26
ENDBRANCH   1  19
TORSDOF 5
ENDMDL
MODEL 5
REMARK VINA RESULT:      -8.9      1.709      2.087
REMARK  5 active torsions:
REMARK  status: ('A' for Active; 'I' for Inactive)
REMARK    1  A    between atoms: C_4  and  C_5 
REMARK    2  A    between atoms: C_13  and  C_14 
REMARK       I    between atoms: C_14  and  N_15 
REMARK    3  A    between atoms: N_15  and  C_16 
REMARK    4  A    between atoms: C_17  and  N_18 
REMARK    5  A    between atoms: C_21  and  O_22 
ROOT
HETATM    1  C   UNL     1      42.186 -13.000   4.734  1.00  0.00     0.258 C 
HETATM    2  N   UNL     1      42.564 -11.982   3.892  1.00  0.00    -0.321 N 
HETATM    3  O   UNL     1      41.375 -12.939   5.652  1.00  0.00    -0.267 OA
HETATM    4  H   UNL     1      43.436 -12.035   3.373  1.00  0.00     0.169 HD
ENDROOT
BRANCH   2   5
HETATM    5  C   UNL     1      41.849 -10.775   3.685  1.00  0.00     0.056 A 
HETATM    6  C   UNL     1      40.886 -10.750   2.643  1.00  0.00     0.037 A 
HETATM    7  C   UNL     1      40.081  -9.602   2.523  1.00  0.00     0.026 A 
HETATM    8  C   UNL     1      40.234  -8.515   3.388  1.00  0.00     0.002 A 
HETATM    9  C   UNL     1      41.203  -8.546   4.384  1.00  0.00     0.002 A 
HETATM   10  C   UNL     1      42.010  -9.672   4.529  1.00  0.00     0.031 A 
BRANCH   6  11
HETATM   11  N   UNL     1      40.827 -11.838   1.715  1.00  0.00    -0.281 NA
HETATM   12  C   UNL     1      40.724 -11.283   0.343  1.00  0.00     0.098 C 
HETATM   13  C   UNL     1      40.871 -12.412  -0.679  1.00  0.00     0.046 C 
HETATM   14  C   UNL     1      39.855 -13.525  -0.435  1.00  0.00     0.120 C 
HETATM   15  C   UNL     1      39.901 -14.004   1.015  1.00  0.00     0.046 C 
HETATM   16  C   UNL     1      39.766 -12.832   1.985  1.00  0.00     0.098 C 
BRANCH  14  17
HETATM   17  O   UNL     1      38.538 -13.061  -0.734  1.00  0.00    -0.395 OA
HETATM   18  H   UNL     1      37.958 -13.324   0.003  1.00  0.00     0.210 HD
ENDBRANCH  14  17
ENDBRANCH   6  11
ENDBRANCH   2   5
BRANCH   1  19
HETATM   19  C   UNL     1      42.797 -14.307   4.461  1.00  0.00     0.056 A 
HETATM   20  C   UNL     1      43.254 -15.143   5.473  1.00  0.00     0.047 A 
HETATM   21  C   UNL     1      43.354 -14.679   6.895  1.00  0.00     0.071 C 
HETATM   22  N   UNL     1      43.605 -16.437   5.231  1.00  0.00    -0.252 NA
HETATM   23  C   UNL     1      43.470 -16.940   3.972  1.00  0.00     0.067 A 
HETATM   24  C   UNL     1      43.047 -16.131   2.917  1.00  0.00     0.033 A 
HETATM   25  C   UNL     1      42.710 -14.802   3.163  1.00  0.00     0.021 A 
BRANCH  23  26
HETATM   26  C   UNL     1      43.706 -18.399   3.826  1.00  0.00    -0.007 A 
HETATM   27  C   UNL     1      44.066 -19.182   4.941  1.00  0.00     0.014 A 
HETATM   28  C   UNL     1      44.230 -20.568   4.849  1.00  0.00     0.001 A 
HETATM   29  C   UNL     1      44.041 -21.211   3.631  1.00  0.00     0.000 A 
HETATM   30  C   UNL     1      43.702 -20.466   2.507  1.00  0.00     0.001 A 
HETATM   31  C   UNL     1      43.542 -19.078   2.603  1.00  0.00     0.014 A 
ENDBRANCH  23  26
ENDBRANCH   1  19
TORSDOF 5
ENDMDL
MODEL 6
REMARK VINA RESULT:      -8.9      3.937      6.246
REMARK  5 active torsions:
REMARK  status: ('A' for Active; 'I' for Inactive)
REMARK    1  A    between atoms: C_4  and  C_5 
REMARK    2  A    between atoms: C_13  and  C_14 
REMARK       I    between atoms: C_14  and  N_15 
REMARK    3  A    between atoms: N_15  and  C_16 
REMARK    4  A    between atoms: C_17  and  N_18 
REMARK    5  A    between atoms: C_21  and  O_22 
ROOT
HETATM    1  C   UNL     1      43.543 -12.610   5.766  1.00  0.00     0.258 C 
HETATM    2  N   UNL     1      43.544 -12.172   7.069  1.00  0.00    -0.321 N 
HETATM    3  O   UNL     1      43.711 -11.935   4.756  1.00  0.00    -0.267 OA
HETATM    4  H   UNL     1      43.108 -12.724   7.802  1.00  0.00     0.169 HD
ENDROOT
BRANCH   2   5
HETATM    5  C   UNL     1      44.080 -10.941   7.523  1.00  0.00     0.056 A 
HETATM    6  C   UNL     1      43.181  -9.861   7.717  1.00  0.00     0.037 A 
HETATM    7  C   UNL     1      43.688  -8.683   8.297  1.00  0.00     0.026 A 
HETATM    8  C   UNL     1      45.035  -8.571   8.654  1.00  0.00     0.002 A 
HETATM    9  C   UNL     1      45.907  -9.629   8.428  1.00  0.00     0.002 A 
HETATM   10  C   UNL     1      45.431 -10.809   7.862  1.00  0.00     0.031 A 
BRANCH   6  11
HETATM   11  N   UNL     1      41.835  -9.976   7.247  1.00  0.00    -0.281 NA
HETATM   12  C   UNL     1      41.731  -9.285   5.938  1.00  0.00     0.098 C 
HETATM   13  C   UNL     1      40.364  -9.569   5.314  1.00  0.00     0.046 C 
HETATM   14  C   UNL     1      39.227  -9.182   6.256  1.00  0.00     0.120 C 
HETATM   15  C   UNL     1      39.413  -9.815   7.634  1.00  0.00     0.046 C 
HETATM   16  C   UNL     1      40.800  -9.510   8.195  1.00  0.00     0.098 C 
BRANCH  14  17
HETATM   17  O   UNL     1      39.167  -7.763   6.396  1.00  0.00    -0.395 OA
HETATM   18  H   UNL     1      39.975  -7.393   5.998  1.00  0.00     0.210 HD
ENDBRANCH  14  17
ENDBRANCH   6  11
ENDBRANCH   2   5
BRANCH   1  19
HETATM   19  C   UNL     1      43.366 -14.057   5.586  1.00  0.00     0.056 A 
HETATM   20  C   UNL     1      42.665 -14.595   4.514  1.00  0.00     0.047 A 
HETATM   21  C   UNL     1      41.858 -13.736   3.587  1.00  0.00     0.071 C 
HETATM   22  N   UNL     1      42.699 -15.927   4.229  1.00  0.00    -0.252 NA
HETATM   23  C   UNL     1      43.471 -16.752   4.992  1.00  0.00     0.067 A 
HETATM   24  C   UNL     1      44.167 -16.264   6.098  1.00  0.00     0.033 A 
HETATM   25  C   UNL     1      44.112 -14.905   6.399  1.00  0.00     0.021 A 
BRANCH  23  26
HETATM   26  C   UNL     1      43.594 -18.153   4.514  1.00  0.00    -0.007 A 
HETATM   27  C   UNL     1      43.448 -18.459   3.146  1.00  0.00     0.014 A 
HETATM   28  C   UNL     1      43.624 -19.758   2.657  1.00  0.00     0.001 A 
HETATM   29  C   UNL     1      43.947 -20.792   3.529  1.00  0.00     0.000 A 
HETATM   30  C   UNL     1      44.082 -20.527   4.888  1.00  0.00     0.001 A 
HETATM   31  C   UNL     1      43.902 -19.226   5.373  1.00  0.00     0.014 A 
ENDBRANCH  23  26
ENDBRANCH   1  19
TORSDOF 5
ENDMDL
MODEL 7
REMARK VINA RESULT:      -8.5      4.394      8.497
REMARK  5 active torsions:
REMARK  status: ('A' for Active; 'I' for Inactive)
REMARK    1  A    between atoms: C_4  and  C_5 
REMARK    2  A    between atoms: C_13  and  C_14 
REMARK       I    between atoms: C_14  and  N_15 
REMARK    3  A    between atoms: N_15  and  C_16 
REMARK    4  A    between atoms: C_17  and  N_18 
REMARK    5  A    between atoms: C_21  and  O_22 
ROOT
HETATM    1  C   UNL     1      43.264 -12.540   4.322  1.00  0.00     0.258 C 
HETATM    2  N   UNL     1      42.341 -13.535   4.536  1.00  0.00    -0.321 N 
HETATM    3  O   UNL     1      43.864 -12.297   3.280  1.00  0.00    -0.267 OA
HETATM    4  H   UNL     1      42.126 -13.848   5.479  1.00  0.00     0.169 HD
ENDROOT
BRANCH   2   5
HETATM    5  C   UNL     1      41.643 -14.243   3.526  1.00  0.00     0.056 A 
HETATM    6  C   UNL     1      41.741 -15.659   3.526  1.00  0.00     0.037 A 
HETATM    7  C   UNL     1      40.942 -16.370   2.611  1.00  0.00     0.026 A 
HETATM    8  C   UNL     1      40.094 -15.707   1.720  1.00  0.00     0.002 A 
HETATM    9  C   UNL     1      40.033 -14.319   1.715  1.00  0.00     0.002 A 
HETATM   10  C   UNL     1      40.808 -13.589   2.614  1.00  0.00     0.031 A 
BRANCH   6  11
HETATM   11  N   UNL     1      42.694 -16.296   4.381  1.00  0.00    -0.281 NA
HETATM   12  C   UNL     1      43.269 -17.461   3.664  1.00  0.00     0.098 C 
HETATM   13  C   UNL     1      44.437 -18.034   4.468  1.00  0.00     0.046 C 
HETATM   14  C   UNL     1      44.015 -18.391   5.891  1.00  0.00     0.120 C 
HETATM   15  C   UNL     1      43.325 -17.212   6.573  1.00  0.00     0.046 C 
HETATM   16  C   UNL     1      42.181 -16.674   5.715  1.00  0.00     0.098 C 
BRANCH  14  17
HETATM   17  O   UNL     1      43.127 -19.509   5.873  1.00  0.00    -0.395 OA
HETATM   18  H   UNL     1      42.617 -19.468   5.045  1.00  0.00     0.210 HD
ENDBRANCH  14  17
ENDBRANCH   6  11
ENDBRANCH   2   5
BRANCH   1  19
HETATM   19  C   UNL     1      43.513 -11.650   5.464  1.00  0.00     0.056 A 
HETATM   20  C   UNL     1      42.721 -10.541   5.732  1.00  0.00     0.047 A 
HETATM   21  C   UNL     1      41.694 -10.050   4.757  1.00  0.00     0.071 C 
HETATM   22  N   UNL     1      42.815  -9.859   6.908  1.00  0.00    -0.252 NA
HETATM   23  C   UNL     1      43.680 -10.298   7.866  1.00  0.00     0.067 A 
HETATM   24  C   UNL     1      44.520 -11.387   7.630  1.00  0.00     0.033 A 
HETATM   25  C   UNL     1      44.437 -12.068   6.418  1.00  0.00     0.021 A 
BRANCH  23  26
HETATM   26  C   UNL     1      43.599  -9.611   9.180  1.00  0.00    -0.007 A 
HETATM   27  C   UNL     1      43.260  -8.245   9.254  1.00  0.00     0.014 A 
HETATM   28  C   UNL     1      43.111  -7.587  10.480  1.00  0.00     0.001 A 
HETATM   29  C   UNL     1      43.302  -8.280  11.669  1.00  0.00     0.000 A 
HETATM   30  C   UNL     1      43.655  -9.625  11.631  1.00  0.00     0.001 A 
HETATM   31  C   UNL     1      43.806 -10.279  10.402  1.00  0.00     0.014 A 
ENDBRANCH  23  26
ENDBRANCH   1  19
TORSDOF 5
ENDMDL
MODEL 8
REMARK VINA RESULT:      -8.4      1.756      2.837
REMARK  5 active torsions:
REMARK  status: ('A' for Active; 'I' for Inactive)
REMARK    1  A    between atoms: C_4  and  C_5 
REMARK    2  A    between atoms: C_13  and  C_14 
REMARK       I    between atoms: C_14  and  N_15 
REMARK    3  A    between atoms: N_15  and  C_16 
REMARK    4  A    between atoms: C_17  and  N_18 
REMARK    5  A    between atoms: C_21  and  O_22 
ROOT
HETATM    1  C   UNL     1      41.026 -11.125   2.218  1.00  0.00     0.258 C 
HETATM    2  N   UNL     1      41.492 -10.782   0.972  1.00  0.00    -0.321 N 
HETATM    3  O   UNL     1      40.247 -10.488   2.919  1.00  0.00    -0.267 OA
HETATM    4  H   UNL     1      42.341 -11.200   0.603  1.00  0.00     0.169 HD
ENDROOT
BRANCH   2   5
HETATM    5  C   UNL     1      40.907  -9.822   0.108  1.00  0.00     0.056 A 
HETATM    6  C   UNL     1      40.149 -10.300  -0.992  1.00  0.00     0.037 A 
HETATM    7  C   UNL     1      39.456  -9.354  -1.770  1.00  0.00     0.026 A 
HETATM    8  C   UNL     1      39.522  -7.988  -1.482  1.00  0.00     0.002 A 
HETATM    9  C   UNL     1      40.293  -7.536  -0.417  1.00  0.00     0.002 A 
HETATM   10  C   UNL     1      40.985  -8.451   0.373  1.00  0.00     0.031 A 
BRANCH   6  11
HETATM   11  N   UNL     1      40.187 -11.693  -1.318  1.00  0.00    -0.281 NA
HETATM   12  C   UNL     1      40.690 -11.841  -2.705  1.00  0.00     0.098 C 
HETATM   13  C   UNL     1      40.939 -13.320  -3.006  1.00  0.00     0.046 C 
HETATM   14  C   UNL     1      39.689 -14.160  -2.760  1.00  0.00     0.120 C 
HETATM   15  C   UNL     1      39.122 -13.907  -1.364  1.00  0.00     0.046 C 
HETATM   16  C   UNL     1      38.912 -12.415  -1.119  1.00  0.00     0.098 C 
BRANCH  14  17
HETATM   17  O   UNL     1      38.692 -13.852  -3.734  1.00  0.00    -0.395 OA
HETATM   18  H   UNL     1      39.040 -13.138  -4.297  1.00  0.00     0.210 HD
ENDBRANCH  14  17
ENDBRANCH   6  11
ENDBRANCH   2   5
BRANCH   1  19
HETATM   19  C   UNL     1      41.487 -12.421   2.732  1.00  0.00     0.056 A 
HETATM   20  C   UNL     1      40.657 -13.533   2.802  1.00  0.00     0.047 A 
HETATM   21  C   UNL     1      39.180 -13.433   2.563  1.00  0.00     0.071 C 
HETATM   22  N   UNL     1      41.146 -14.779   3.060  1.00  0.00    -0.252 NA
HETATM   23  C   UNL     1      42.489 -14.948   3.217  1.00  0.00     0.067 A 
HETATM   24  C   UNL     1      43.359 -13.858   3.187  1.00  0.00     0.033 A 
HETATM   25  C   UNL     1      42.853 -12.583   2.945  1.00  0.00     0.021 A 
BRANCH  23  26
HETATM   26  C   UNL     1      42.960 -16.353   3.320  1.00  0.00    -0.007 A 
HETATM   27  C   UNL     1      42.665 -17.284   2.304  1.00  0.00     0.014 A 
HETATM   28  C   UNL     1      43.150 -18.596   2.340  1.00  0.00     0.001 A 
HETATM   29  C   UNL     1      43.942 -19.015   3.402  1.00  0.00     0.000 A 
HETATM   30  C   UNL     1      44.238 -18.127   4.431  1.00  0.00     0.001 A 
HETATM   31  C   UNL     1      43.748 -16.815   4.392  1.00  0.00     0.014 A 
ENDBRANCH  23  26
ENDBRANCH   1  19
TORSDOF 5
ENDMDL
MODEL 9
REMARK VINA RESULT:      -8.2      2.453      4.650
REMARK  5 active torsions:
REMARK  status: ('A' for Active; 'I' for Inactive)
REMARK    1  A    between atoms: C_4  and  C_5 
REMARK    2  A    between atoms: C_13  and  C_14 
REMARK       I    between atoms: C_14  and  N_15 
REMARK    3  A    between atoms: N_15  and  C_16 
REMARK    4  A    between atoms: C_17  and  N_18 
REMARK    5  A    between atoms: C_21  and  O_22 
ROOT
HETATM    1  C   UNL     1      41.009 -13.066   2.618  1.00  0.00     0.258 C 
HETATM    2  N   UNL     1      41.702 -11.886   2.736  1.00  0.00    -0.321 N 
HETATM    3  O   UNL     1      39.829 -13.206   2.315  1.00  0.00    -0.267 OA
HETATM    4  H   UNL     1      42.565 -11.843   3.270  1.00  0.00     0.169 HD
ENDROOT
BRANCH   2   5
HETATM    5  C   UNL     1      41.301 -10.637   2.198  1.00  0.00     0.056 A 
HETATM    6  C   UNL     1      40.801  -9.661   3.099  1.00  0.00     0.037 A 
HETATM    7  C   UNL     1      40.530  -8.378   2.590  1.00  0.00     0.026 A 
HETATM    8  C   UNL     1      40.729  -8.075   1.240  1.00  0.00     0.002 A 
HETATM    9  C   UNL     1      41.192  -9.053   0.366  1.00  0.00     0.002 A 
HETATM   10  C   UNL     1      41.474 -10.331   0.844  1.00  0.00     0.031 A 
BRANCH   6  11
HETATM   11  N   UNL     1      40.513 -10.035   4.450  1.00  0.00    -0.281 NA
HETATM   12  C   UNL     1      39.043 -10.150   4.606  1.00  0.00     0.098 C 
HETATM   13  C   UNL     1      38.717 -10.750   5.975  1.00  0.00     0.046 C 
HETATM   14  C   UNL     1      39.350  -9.943   7.105  1.00  0.00     0.120 C 
HETATM   15  C   UNL     1      40.845  -9.741   6.867  1.00  0.00     0.046 C 
HETATM   16  C   UNL     1      41.106  -9.156   5.481  1.00  0.00     0.098 C 
BRANCH  14  17
HETATM   17  O   UNL     1      38.716  -8.668   7.213  1.00  0.00    -0.395 OA
HETATM   18  H   UNL     1      39.119  -8.081   6.550  1.00  0.00     0.210 HD
ENDBRANCH  14  17
ENDBRANCH   6  11
ENDBRANCH   2   5
BRANCH   1  19
HETATM   19  C   UNL     1      41.796 -14.287   2.836  1.00  0.00     0.056 A 
HETATM   20  C   UNL     1      41.764 -14.991   4.033  1.00  0.00     0.047 A 
HETATM   21  C   UNL     1      41.096 -14.438   5.257  1.00  0.00     0.071 C 
HETATM   22  N   UNL     1      42.311 -16.234   4.150  1.00  0.00    -0.252 NA
HETATM   23  C   UNL     1      42.871 -16.821   3.055  1.00  0.00     0.067 A 
HETATM   24  C   UNL     1      42.956 -16.141   1.840  1.00  0.00     0.033 A 
HETATM   25  C   UNL     1      42.416 -14.862   1.730  1.00  0.00     0.021 A 
BRANCH  23  26
HETATM   26  C   UNL     1      43.286 -18.238   3.218  1.00  0.00    -0.007 A 
HETATM   27  C   UNL     1      43.167 -19.147   2.147  1.00  0.00     0.014 A 
HETATM   28  C   UNL     1      43.610 -20.470   2.249  1.00  0.00     0.001 A 
HETATM   29  C   UNL     1      44.183 -20.923   3.431  1.00  0.00     0.000 A 
HETATM   30  C   UNL     1      44.301 -20.056   4.513  1.00  0.00     0.001 A 
HETATM   31  C   UNL     1      43.853 -18.733   4.408  1.00  0.00     0.014 A 
ENDBRANCH  23  26
ENDBRANCH   1  19
TORSDOF 5
ENDMDL
MODEL 10
REMARK VINA RESULT:      -8.2      5.217      7.706
REMARK  5 active torsions:
REMARK  status: ('A' for Active; 'I' for Inactive)
REMARK    1  A    between atoms: C_4  and  C_5 
REMARK    2  A    between atoms: C_13  and  C_14 
REMARK       I    between atoms: C_14  and  N_15 
REMARK    3  A    between atoms: N_15  and  C_16 
REMARK    4  A    between atoms: C_17  and  N_18 
REMARK    5  A    between atoms: C_21  and  O_22 
ROOT
HETATM    1  C   UNL     1      43.587 -10.744   7.456  1.00  0.00     0.258 C 
HETATM    2  N   UNL     1      42.630 -10.367   8.367  1.00  0.00    -0.321 N 
HETATM    3  O   UNL     1      44.690 -10.236   7.285  1.00  0.00    -0.267 OA
HETATM    4  H   UNL     1      41.659 -10.635   8.240  1.00  0.00     0.169 HD
ENDROOT
BRANCH   2   5
HETATM    5  C   UNL     1      42.855  -9.562   9.511  1.00  0.00     0.056 A 
HETATM    6  C   UNL     1      42.174  -8.319   9.588  1.00  0.00     0.037 A 
HETATM    7  C   UNL     1      42.288  -7.582  10.781  1.00  0.00     0.026 A 
HETATM    8  C   UNL     1      43.058  -8.046  11.850  1.00  0.00     0.002 A 
HETATM    9  C   UNL     1      43.742  -9.252  11.746  1.00  0.00     0.002 A 
HETATM   10  C   UNL     1      43.642 -10.006  10.579  1.00  0.00     0.031 A 
BRANCH   6  11
HETATM   11  N   UNL     1      41.479  -7.829   8.437  1.00  0.00    -0.281 NA
HETATM   12  C   UNL     1      42.327  -6.811   7.770  1.00  0.00     0.098 C 
HETATM   13  C   UNL     1      41.705  -6.423   6.428  1.00  0.00     0.046 C 
HETATM   14  C   UNL     1      40.265  -5.945   6.595  1.00  0.00     0.120 C 
HETATM   15  C   UNL     1      39.437  -6.958   7.382  1.00  0.00     0.046 C 
HETATM   16  C   UNL     1      40.117  -7.317   8.702  1.00  0.00     0.098 C 
BRANCH  14  17
HETATM   17  O   UNL     1      40.241  -4.690   7.274  1.00  0.00    -0.395 OA
HETATM   18  H   UNL     1      41.122  -4.285   7.178  1.00  0.00     0.210 HD
ENDBRANCH  14  17
ENDBRANCH   6  11
ENDBRANCH   2   5
BRANCH   1  19
HETATM   19  C   UNL     1      43.252 -11.916   6.635  1.00  0.00     0.056 A 
HETATM   20  C   UNL     1      42.777 -11.805   5.335  1.00  0.00     0.047 A 
HETATM   21  C   UNL     1      42.366 -10.485   4.755  1.00  0.00     0.071 C 
HETATM   22  N   UNL     1      42.687 -12.884   4.508  1.00  0.00    -0.252 NA
HETATM   23  C   UNL     1      43.111 -14.101   4.952  1.00  0.00     0.067 A 
HETATM   24  C   UNL     1      43.566 -14.269   6.261  1.00  0.00     0.033 A 
HETATM   25  C   UNL     1      43.635 -13.167   7.110  1.00  0.00     0.021 A 
BRANCH  23  26
HETATM   26  C   UNL     1      43.146 -15.187   3.940  1.00  0.00    -0.007 A 
HETATM   27  C   UNL     1      43.063 -16.538   4.336  1.00  0.00     0.014 A 
HETATM   28  C   UNL     1      43.026 -17.580   3.403  1.00  0.00     0.001 A 
HETATM   29  C   UNL     1      43.076 -17.298   2.043  1.00  0.00     0.000 A 
HETATM   30  C   UNL     1      43.175 -15.977   1.619  1.00  0.00     0.001 A 
HETATM   31  C   UNL     1      43.215 -14.937   2.556  1.00  0.00     0.014 A 
ENDBRANCH  23  26
ENDBRANCH   1  19
TORSDOF 5
ENDMDL
