MODEL 1
REMARK VINA RESULT:      -8.8      0.000      0.000
REMARK  4 active torsions:
REMARK  status: ('A' for Active; 'I' for Inactive)
REMARK    1  A    between atoms: C_2  and  C_3 
REMARK    2  A    between atoms: C_4  and  C_5 
REMARK       I    between atoms: C_5  and  N_6 
REMARK    3  A    between atoms: N_6  and  C_7 
REMARK    4  A    between atoms: C_14  and  C_15 
REMARK       I    between atoms: C_15  and  N_16 
ROOT
HETATM    1  C   UNL     1      44.229 -12.255   6.843  1.00  0.00     0.035 A 
HETATM    2  C   UNL     1      43.767 -11.883   8.113  1.00  0.00     0.046 A 
HETATM    3  C   UNL     1      44.455 -10.885   8.840  1.00  0.00     0.030 A 
HETATM    4  C   UNL     1      45.576 -10.294   8.272  1.00  0.00     0.063 A 
HETATM    5  N   UNL     1      46.019  -9.391   9.197  1.00  0.00    -0.277 N 
HETATM    6  H   UNL     1      46.824  -8.778   9.121  1.00  0.00     0.189 HD
HETATM    7  N   UNL     1      45.284  -9.336  10.318  1.00  0.00    -0.168 NA
HETATM    8  C   UNL     1      44.311 -10.253  10.113  1.00  0.00     0.156 A 
HETATM    9  C   UNL     1      46.060 -10.635   7.008  1.00  0.00     0.034 A 
HETATM   10  C   UNL     1      45.361 -11.625   6.308  1.00  0.00     0.032 A 
ENDROOT
BRANCH   1  11
HETATM   11  N   UNL     1      43.625 -13.251   6.046  1.00  0.00    -0.327 N 
HETATM   12  C   UNL     1      42.808 -13.075   4.949  1.00  0.00     0.227 C 
HETATM   13  O   UNL     1      42.466 -12.013   4.452  1.00  0.00    -0.273 OA
HETATM   14  H   UNL     1      43.782 -14.201   6.344  1.00  0.00     0.169 HD
BRANCH  12  15
HETATM   15  C   UNL     1      42.269 -14.325   4.330  1.00  0.00     0.087 A 
HETATM   16  C   UNL     1      43.105 -15.041   3.279  1.00  0.00     0.032 A 
HETATM   17  C   UNL     1      41.750 -14.473   2.925  1.00  0.00     0.025 A 
BRANCH  16  18
HETATM   18  C   UNL     1      43.306 -16.534   3.366  1.00  0.00    -0.053 A 
HETATM   19  C   UNL     1      42.957 -17.378   2.299  1.00  0.00     0.009 A 
HETATM   20  C   UNL     1      43.168 -18.759   2.363  1.00  0.00     0.024 A 
HETATM   21  C   UNL     1      43.741 -19.318   3.502  1.00  0.00     0.034 A 
HETATM   22  C   UNL     1      44.103 -18.507   4.572  1.00  0.00     0.024 A 
HETATM   23 CL   UNL     1      44.006 -21.015   3.583  1.00  0.00    -0.084 Cl
HETATM   24  C   UNL     1      43.890 -17.127   4.499  1.00  0.00     0.009 A 
ENDBRANCH  16  18
ENDBRANCH  12  15
ENDBRANCH   1  11
BRANCH   8  25
HETATM   25  C   UNL     1      43.276 -10.503  11.126  1.00  0.00     0.270 C 
HETATM   26  N   UNL     1      43.604 -11.479  12.029  1.00  0.00    -0.365 N 
HETATM   27  H   UNL     1      44.501 -11.941  11.938  1.00  0.00     0.159 HD
HETATM   28  H   UNL     1      42.957 -11.718  12.762  1.00  0.00     0.159 HD
HETATM   29  O   UNL     1      42.204  -9.912  11.194  1.00  0.00    -0.266 OA
ENDBRANCH   8  25
TORSDOF 4
ENDMDL
MODEL 2
REMARK VINA RESULT:      -8.4      6.399      9.242
REMARK  4 active torsions:
REMARK  status: ('A' for Active; 'I' for Inactive)
REMARK    1  A    between atoms: C_2  and  C_3 
REMARK    2  A    between atoms: C_4  and  C_5 
REMARK       I    between atoms: C_5  and  N_6 
REMARK    3  A    between atoms: N_6  and  C_7 
REMARK    4  A    between atoms: C_14  and  C_15 
REMARK       I    between atoms: C_15  and  N_16 
ROOT
HETATM    1  C   UNL     1      42.540 -15.750   2.137  1.00  0.00     0.035 A 
HETATM    2  C   UNL     1      42.841 -17.119   2.139  1.00  0.00     0.046 A 
HETATM    3  C   UNL     1      43.386 -17.711   3.301  1.00  0.00     0.030 A 
HETATM    4  C   UNL     1      43.607 -16.916   4.418  1.00  0.00     0.063 A 
HETATM    5  N   UNL     1      44.136 -17.753   5.360  1.00  0.00    -0.277 N 
HETATM    6  H   UNL     1      44.423 -17.513   6.303  1.00  0.00     0.189 HD
HETATM    7  N   UNL     1      44.275 -19.026   4.959  1.00  0.00    -0.168 NA
HETATM    8  C   UNL     1      43.814 -19.018   3.687  1.00  0.00     0.156 A 
HETATM    9  C   UNL     1      43.314 -15.552   4.454  1.00  0.00     0.034 A 
HETATM   10  C   UNL     1      42.774 -14.989   3.291  1.00  0.00     0.032 A 
ENDROOT
BRANCH   1  11
HETATM   11  N   UNL     1      42.011 -15.061   1.024  1.00  0.00    -0.327 N 
HETATM   12  C   UNL     1      40.697 -15.008   0.610  1.00  0.00     0.227 C 
HETATM   13  O   UNL     1      39.737 -15.541   1.145  1.00  0.00    -0.273 OA
HETATM   14  H   UNL     1      42.687 -14.587   0.446  1.00  0.00     0.169 HD
BRANCH  12  15
HETATM   15  C   UNL     1      40.439 -14.235  -0.645  1.00  0.00     0.087 A 
HETATM   16  C   UNL     1      39.726 -12.894  -0.545  1.00  0.00     0.032 A 
HETATM   17  C   UNL     1      39.105 -14.038  -1.313  1.00  0.00     0.025 A 
BRANCH  16  18
HETATM   18  C   UNL     1      40.275 -11.694  -1.276  1.00  0.00    -0.053 A 
HETATM   19  C   UNL     1      39.884 -11.406  -2.595  1.00  0.00     0.009 A 
HETATM   20  C   UNL     1      40.367 -10.279  -3.268  1.00  0.00     0.024 A 
HETATM   21  C   UNL     1      41.249  -9.416  -2.625  1.00  0.00     0.034 A 
HETATM   22  C   UNL     1      41.649  -9.671  -1.318  1.00  0.00     0.024 A 
HETATM   23 CL   UNL     1      41.841  -8.027  -3.447  1.00  0.00    -0.084 Cl
HETATM   24  C   UNL     1      41.160 -10.799  -0.651  1.00  0.00     0.009 A 
ENDBRANCH  16  18
ENDBRANCH  12  15
ENDBRANCH   1  11
BRANCH   8  25
HETATM   25  C   UNL     1      43.793 -20.245   2.879  1.00  0.00     0.270 C 
HETATM   26  N   UNL     1      44.030 -21.388   3.594  1.00  0.00    -0.365 N 
HETATM   27  H   UNL     1      44.194 -21.310   4.592  1.00  0.00     0.159 HD
HETATM   28  H   UNL     1      44.033 -22.279   3.125  1.00  0.00     0.159 HD
HETATM   29  O   UNL     1      43.586 -20.285   1.672  1.00  0.00    -0.266 OA
ENDBRANCH   8  25
TORSDOF 4
ENDMDL
MODEL 3
REMARK VINA RESULT:      -8.4      2.060      2.131
REMARK  4 active torsions:
REMARK  status: ('A' for Active; 'I' for Inactive)
REMARK    1  A    between atoms: C_2  and  C_3 
REMARK    2  A    between atoms: C_4  and  C_5 
REMARK       I    between atoms: C_5  and  N_6 
REMARK    3  A    between atoms: N_6  and  C_7 
REMARK    4  A    between atoms: C_14  and  C_15 
REMARK       I    between atoms: C_15  and  N_16 
ROOT
HETATM    1  C   UNL     1      43.935 -11.775   6.687  1.00  0.00     0.035 A 
HETATM    2  C   UNL     1      43.262 -10.640   7.159  1.00  0.00     0.046 A 
HETATM    3  C   UNL     1      44.000  -9.585   7.742  1.00  0.00     0.030 A 
HETATM    4  C   UNL     1      45.382  -9.700   7.828  1.00  0.00     0.063 A 
HETATM    5  N   UNL     1      45.805  -8.549   8.432  1.00  0.00    -0.277 N 
HETATM    6  H   UNL     1      46.759  -8.291   8.659  1.00  0.00     0.189 HD
HETATM    7  N   UNL     1      44.823  -7.690   8.744  1.00  0.00    -0.168 NA
HETATM    8  C   UNL     1      43.699  -8.315   8.321  1.00  0.00     0.156 A 
HETATM    9  C   UNL     1      46.085 -10.812   7.362  1.00  0.00     0.034 A 
HETATM   10  C   UNL     1      45.331 -11.843   6.789  1.00  0.00     0.032 A 
ENDROOT
BRANCH   1  11
HETATM   11  N   UNL     1      43.290 -12.889   6.106  1.00  0.00    -0.327 N 
HETATM   12  C   UNL     1      43.046 -14.118   6.681  1.00  0.00     0.227 C 
HETATM   13  O   UNL     1      43.335 -14.468   7.815  1.00  0.00    -0.273 OA
HETATM   14  H   UNL     1      43.013 -12.777   5.144  1.00  0.00     0.169 HD
BRANCH  12  15
HETATM   15  C   UNL     1      42.384 -15.130   5.800  1.00  0.00     0.087 A 
HETATM   16  C   UNL     1      42.892 -15.305   4.376  1.00  0.00     0.032 A 
HETATM   17  C   UNL     1      41.477 -14.841   4.635  1.00  0.00     0.025 A 
BRANCH  16  18
HETATM   18  C   UNL     1      43.153 -16.689   3.836  1.00  0.00    -0.053 A 
HETATM   19  C   UNL     1      42.520 -17.145   2.666  1.00  0.00     0.009 A 
HETATM   20  C   UNL     1      42.780 -18.416   2.145  1.00  0.00     0.024 A 
HETATM   21  C   UNL     1      43.688 -19.253   2.787  1.00  0.00     0.034 A 
HETATM   22  C   UNL     1      44.335 -18.828   3.942  1.00  0.00     0.024 A 
HETATM   23 CL   UNL     1      44.014 -20.815   2.145  1.00  0.00    -0.084 Cl
HETATM   24  C   UNL     1      44.071 -17.555   4.456  1.00  0.00     0.009 A 
ENDBRANCH  16  18
ENDBRANCH  12  15
ENDBRANCH   1  11
BRANCH   8  25
HETATM   25  C   UNL     1      42.378  -7.691   8.480  1.00  0.00     0.270 C 
HETATM   26  N   UNL     1      41.598  -8.275   9.441  1.00  0.00    -0.365 N 
HETATM   27  H   UNL     1      41.971  -9.065   9.955  1.00  0.00     0.159 HD
HETATM   28  H   UNL     1      40.675  -7.914   9.623  1.00  0.00     0.159 HD
HETATM   29  O   UNL     1      41.974  -6.732   7.833  1.00  0.00    -0.266 OA
ENDBRANCH   8  25
TORSDOF 4
ENDMDL
MODEL 4
REMARK VINA RESULT:      -8.2      4.187      9.041
REMARK  4 active torsions:
REMARK  status: ('A' for Active; 'I' for Inactive)
REMARK    1  A    between atoms: C_2  and  C_3 
REMARK    2  A    between atoms: C_4  and  C_5 
REMARK       I    between atoms: C_5  and  N_6 
REMARK    3  A    between atoms: N_6  and  C_7 
REMARK    4  A    between atoms: C_14  and  C_15 
REMARK       I    between atoms: C_15  and  N_16 
ROOT
HETATM    1  C   UNL     1      43.298 -13.063   6.414  1.00  0.00     0.035 A 
HETATM    2  C   UNL     1      43.470 -14.455   6.404  1.00  0.00     0.046 A 
HETATM    3  C   UNL     1      42.942 -15.214   5.335  1.00  0.00     0.030 A 
HETATM    4  C   UNL     1      42.265 -14.557   4.315  1.00  0.00     0.063 A 
HETATM    5  N   UNL     1      41.875 -15.538   3.448  1.00  0.00    -0.277 N 
HETATM    6  H   UNL     1      41.353 -15.423   2.586  1.00  0.00     0.189 HD
HETATM    7  N   UNL     1      42.240 -16.778   3.808  1.00  0.00    -0.168 NA
HETATM    8  C   UNL     1      42.904 -16.595   4.972  1.00  0.00     0.156 A 
HETATM    9  C   UNL     1      42.082 -13.174   4.290  1.00  0.00     0.034 A 
HETATM   10  C   UNL     1      42.614 -12.444   5.359  1.00  0.00     0.032 A 
ENDROOT
BRANCH   1  11
HETATM   11  N   UNL     1      43.771 -12.219   7.442  1.00  0.00    -0.327 N 
HETATM   12  C   UNL     1      44.899 -11.426   7.433  1.00  0.00     0.227 C 
HETATM   13  O   UNL     1      45.697 -11.298   6.517  1.00  0.00    -0.273 OA
HETATM   14  H   UNL     1      43.235 -12.234   8.296  1.00  0.00     0.169 HD
BRANCH  12  15
HETATM   15  C   UNL     1      45.177 -10.673   8.695  1.00  0.00     0.087 A 
HETATM   16  C   UNL     1      44.305  -9.473   9.038  1.00  0.00     0.032 A 
HETATM   17  C   UNL     1      45.788  -9.301   8.799  1.00  0.00     0.025 A 
BRANCH  16  18
HETATM   18  C   UNL     1      43.736  -9.330  10.428  1.00  0.00    -0.053 A 
HETATM   19  C   UNL     1      43.533  -8.065  11.003  1.00  0.00     0.009 A 
HETATM   20  C   UNL     1      42.978  -7.925  12.280  1.00  0.00     0.024 A 
HETATM   21  C   UNL     1      42.612  -9.058  13.001  1.00  0.00     0.034 A 
HETATM   22  C   UNL     1      42.796 -10.324  12.455  1.00  0.00     0.024 A 
HETATM   23 CL   UNL     1      41.926  -8.890  14.568  1.00  0.00    -0.084 Cl
HETATM   24  C   UNL     1      43.349 -10.455  11.178  1.00  0.00     0.009 A 
ENDBRANCH  16  18
ENDBRANCH  12  15
ENDBRANCH   1  11
BRANCH   8  25
HETATM   25  C   UNL     1      43.479 -17.732   5.705  1.00  0.00     0.270 C 
HETATM   26  N   UNL     1      44.298 -18.526   4.949  1.00  0.00    -0.365 N 
HETATM   27  H   UNL     1      44.446 -18.283   3.976  1.00  0.00     0.159 HD
HETATM   28  H   UNL     1      44.740 -19.329   5.367  1.00  0.00     0.159 HD
HETATM   29  O   UNL     1      43.270 -17.981   6.887  1.00  0.00    -0.266 OA
ENDBRANCH   8  25
TORSDOF 4
ENDMDL
MODEL 5
REMARK VINA RESULT:      -8.1      5.514      8.023
REMARK  4 active torsions:
REMARK  status: ('A' for Active; 'I' for Inactive)
REMARK    1  A    between atoms: C_2  and  C_3 
REMARK    2  A    between atoms: C_4  and  C_5 
REMARK       I    between atoms: C_5  and  N_6 
REMARK    3  A    between atoms: N_6  and  C_7 
REMARK    4  A    between atoms: C_14  and  C_15 
REMARK       I    between atoms: C_15  and  N_16 
ROOT
HETATM    1  C   UNL     1      42.584 -16.224   2.472  1.00  0.00     0.035 A 
HETATM    2  C   UNL     1      42.340 -16.022   3.838  1.00  0.00     0.046 A 
HETATM    3  C   UNL     1      42.835 -16.954   4.780  1.00  0.00     0.030 A 
HETATM    4  C   UNL     1      43.556 -18.049   4.323  1.00  0.00     0.063 A 
HETATM    5  N   UNL     1      43.888 -18.757   5.444  1.00  0.00    -0.277 N 
HETATM    6  H   UNL     1      44.417 -19.622   5.490  1.00  0.00     0.189 HD
HETATM    7  N   UNL     1      43.451 -18.219   6.593  1.00  0.00    -0.168 NA
HETATM    8  C   UNL     1      42.799 -17.101   6.200  1.00  0.00     0.156 A 
HETATM    9  C   UNL     1      43.824 -18.278   2.973  1.00  0.00     0.034 A 
HETATM   10  C   UNL     1      43.324 -17.341   2.061  1.00  0.00     0.032 A 
ENDROOT
BRANCH   1  11
HETATM   11  N   UNL     1      42.119 -15.365   1.454  1.00  0.00    -0.327 N 
HETATM   12  C   UNL     1      40.827 -15.220   0.995  1.00  0.00     0.227 C 
HETATM   13  O   UNL     1      39.835 -15.807   1.400  1.00  0.00    -0.273 OA
HETATM   14  H   UNL     1      42.829 -14.824   0.985  1.00  0.00     0.169 HD
BRANCH  12  15
HETATM   15  C   UNL     1      40.641 -14.262  -0.139  1.00  0.00     0.087 A 
HETATM   16  C   UNL     1      40.011 -12.906   0.145  1.00  0.00     0.032 A 
HETATM   17  C   UNL     1      39.334 -13.887  -0.785  1.00  0.00     0.025 A 
BRANCH  16  18
HETATM   18  C   UNL     1      40.647 -11.652  -0.403  1.00  0.00    -0.053 A 
HETATM   19  C   UNL     1      40.700 -11.409  -1.786  1.00  0.00     0.009 A 
HETATM   20  C   UNL     1      41.262 -10.235  -2.298  1.00  0.00     0.024 A 
HETATM   21  C   UNL     1      41.776  -9.279  -1.427  1.00  0.00     0.034 A 
HETATM   22  C   UNL     1      41.732  -9.488  -0.053  1.00  0.00     0.024 A 
HETATM   23 CL   UNL     1      42.463  -7.832  -2.053  1.00  0.00    -0.084 Cl
HETATM   24  C   UNL     1      41.167 -10.664   0.451  1.00  0.00     0.009 A 
ENDBRANCH  16  18
ENDBRANCH  12  15
ENDBRANCH   1  11
BRANCH   8  25
HETATM   25  C   UNL     1      42.163 -16.209   7.179  1.00  0.00     0.270 C 
HETATM   26  N   UNL     1      42.997 -15.795   8.181  1.00  0.00    -0.365 N 
HETATM   27  H   UNL     1      43.958 -16.119   8.177  1.00  0.00     0.159 HD
HETATM   28  H   UNL     1      42.650 -15.179   8.898  1.00  0.00     0.159 HD
HETATM   29  O   UNL     1      40.993 -15.844   7.137  1.00  0.00    -0.266 OA
ENDBRANCH   8  25
TORSDOF 4
ENDMDL
MODEL 6
REMARK VINA RESULT:      -8.1      4.233      9.031
REMARK  4 active torsions:
REMARK  status: ('A' for Active; 'I' for Inactive)
REMARK    1  A    between atoms: C_2  and  C_3 
REMARK    2  A    between atoms: C_4  and  C_5 
REMARK       I    between atoms: C_5  and  N_6 
REMARK    3  A    between atoms: N_6  and  C_7 
REMARK    4  A    between atoms: C_14  and  C_15 
REMARK       I    between atoms: C_15  and  N_16 
ROOT
HETATM    1  C   UNL     1      43.303 -13.645   6.410  1.00  0.00     0.035 A 
HETATM    2  C   UNL     1      42.340 -13.391   5.423  1.00  0.00     0.046 A 
HETATM    3  C   UNL     1      41.964 -14.424   4.534  1.00  0.00     0.030 A 
HETATM    4  C   UNL     1      42.561 -15.671   4.665  1.00  0.00     0.063 A 
HETATM    5  N   UNL     1      42.009 -16.442   3.680  1.00  0.00    -0.277 N 
HETATM    6  H   UNL     1      42.213 -17.415   3.476  1.00  0.00     0.189 HD
HETATM    7  N   UNL     1      41.103 -15.810   2.920  1.00  0.00    -0.168 NA
HETATM    8  C   UNL     1      41.061 -14.560   3.436  1.00  0.00     0.156 A 
HETATM    9  C   UNL     1      43.516 -15.962   5.640  1.00  0.00     0.034 A 
HETATM   10  C   UNL     1      43.871 -14.923   6.508  1.00  0.00     0.032 A 
ENDROOT
BRANCH   1  11
HETATM   11  N   UNL     1      43.758 -12.679   7.333  1.00  0.00    -0.327 N 
HETATM   12  C   UNL     1      44.679 -11.675   7.119  1.00  0.00     0.227 C 
HETATM   13  O   UNL     1      45.266 -11.427   6.076  1.00  0.00    -0.273 OA
HETATM   14  H   UNL     1      43.391 -12.764   8.267  1.00  0.00     0.169 HD
BRANCH  12  15
HETATM   15  C   UNL     1      45.007 -10.827   8.307  1.00  0.00     0.087 A 
HETATM   16  C   UNL     1      44.112  -9.637   8.625  1.00  0.00     0.032 A 
HETATM   17  C   UNL     1      45.569  -9.431   8.278  1.00  0.00     0.025 A 
BRANCH  16  18
HETATM   18  C   UNL     1      43.627  -9.418  10.037  1.00  0.00    -0.053 A 
HETATM   19  C   UNL     1      43.467 -10.494  10.926  1.00  0.00     0.009 A 
HETATM   20  C   UNL     1      43.046 -10.294  12.244  1.00  0.00     0.024 A 
HETATM   21  C   UNL     1      42.783  -9.004  12.696  1.00  0.00     0.034 A 
HETATM   22  C   UNL     1      42.938  -7.918  11.842  1.00  0.00     0.024 A 
HETATM   23 CL   UNL     1      42.270  -8.753  14.318  1.00  0.00    -0.084 Cl
HETATM   24  C   UNL     1      43.362  -8.127  10.525  1.00  0.00     0.009 A 
ENDBRANCH  16  18
ENDBRANCH  12  15
ENDBRANCH   1  11
BRANCH   8  25
HETATM   25  C   UNL     1      40.170 -13.536   2.874  1.00  0.00     0.270 C 
HETATM   26  N   UNL     1      38.858 -13.919   2.798  1.00  0.00    -0.365 N 
HETATM   27  H   UNL     1      38.604 -14.845   3.122  1.00  0.00     0.159 HD
HETATM   28  H   UNL     1      38.172 -13.281   2.427  1.00  0.00     0.159 HD
HETATM   29  O   UNL     1      40.528 -12.425   2.498  1.00  0.00    -0.266 OA
ENDBRANCH   8  25
TORSDOF 4
ENDMDL
MODEL 7
REMARK VINA RESULT:      -7.8      6.409      8.880
REMARK  4 active torsions:
REMARK  status: ('A' for Active; 'I' for Inactive)
REMARK    1  A    between atoms: C_2  and  C_3 
REMARK    2  A    between atoms: C_4  and  C_5 
REMARK       I    between atoms: C_5  and  N_6 
REMARK    3  A    between atoms: N_6  and  C_7 
REMARK    4  A    between atoms: C_14  and  C_15 
REMARK       I    between atoms: C_15  and  N_16 
ROOT
HETATM    1  C   UNL     1      39.770 -12.713   0.918  1.00  0.00     0.035 A 
HETATM    2  C   UNL     1      39.369 -12.225  -0.334  1.00  0.00     0.046 A 
HETATM    3  C   UNL     1      38.248 -11.368  -0.421  1.00  0.00     0.030 A 
HETATM    4  C   UNL     1      37.571 -11.029   0.744  1.00  0.00     0.063 A 
HETATM    5  N   UNL     1      36.550 -10.212   0.346  1.00  0.00    -0.277 N 
HETATM    6  H   UNL     1      35.849  -9.775   0.934  1.00  0.00     0.189 HD
HETATM    7  N   UNL     1      36.503  -9.983  -0.976  1.00  0.00    -0.168 NA
HETATM    8  C   UNL     1      37.548 -10.690  -1.465  1.00  0.00     0.156 A 
HETATM    9  C   UNL     1      37.946 -11.491   2.006  1.00  0.00     0.034 A 
HETATM   10  C   UNL     1      39.060 -12.337   2.066  1.00  0.00     0.032 A 
ENDROOT
BRANCH   1  11
HETATM   11  N   UNL     1      40.863 -13.586   1.109  1.00  0.00    -0.327 N 
HETATM   12  C   UNL     1      40.851 -14.965   1.118  1.00  0.00     0.227 C 
HETATM   13  O   UNL     1      39.884 -15.691   0.946  1.00  0.00    -0.273 OA
HETATM   14  H   UNL     1      41.746 -13.140   1.300  1.00  0.00     0.169 HD
BRANCH  12  15
HETATM   15  C   UNL     1      42.163 -15.627   1.398  1.00  0.00     0.087 A 
HETATM   16  C   UNL     1      42.674 -15.661   2.831  1.00  0.00     0.032 A 
HETATM   17  C   UNL     1      43.452 -14.937   1.756  1.00  0.00     0.025 A 
BRANCH  16  18
HETATM   18  C   UNL     1      43.198 -16.951   3.412  1.00  0.00    -0.053 A 
HETATM   19  C   UNL     1      43.481 -17.069   4.783  1.00  0.00     0.009 A 
HETATM   20  C   UNL     1      43.938 -18.271   5.332  1.00  0.00     0.024 A 
HETATM   21  C   UNL     1      44.115 -19.381   4.512  1.00  0.00     0.034 A 
HETATM   22  C   UNL     1      43.837 -19.297   3.152  1.00  0.00     0.024 A 
HETATM   23 CL   UNL     1      44.673 -20.862   5.184  1.00  0.00    -0.084 Cl
HETATM   24  C   UNL     1      43.378 -18.092   2.611  1.00  0.00     0.009 A 
ENDBRANCH  16  18
ENDBRANCH  12  15
ENDBRANCH   1  11
BRANCH   8  25
HETATM   25  C   UNL     1      37.850 -10.702  -2.903  1.00  0.00     0.270 C 
HETATM   26  N   UNL     1      36.779 -10.402  -3.700  1.00  0.00    -0.365 N 
HETATM   27  H   UNL     1      35.888 -10.199  -3.260  1.00  0.00     0.159 HD
HETATM   28  H   UNL     1      36.890 -10.383  -4.701  1.00  0.00     0.159 HD
HETATM   29  O   UNL     1      38.949 -10.951  -3.386  1.00  0.00    -0.266 OA
ENDBRANCH   8  25
TORSDOF 4
ENDMDL
MODEL 8
REMARK VINA RESULT:      -7.8      4.337      9.319
REMARK  4 active torsions:
REMARK  status: ('A' for Active; 'I' for Inactive)
REMARK    1  A    between atoms: C_2  and  C_3 
REMARK    2  A    between atoms: C_4  and  C_5 
REMARK       I    between atoms: C_5  and  N_6 
REMARK    3  A    between atoms: N_6  and  C_7 
REMARK    4  A    between atoms: C_14  and  C_15 
REMARK       I    between atoms: C_15  and  N_16 
ROOT
HETATM    1  C   UNL     1      41.625 -12.913   5.354  1.00  0.00     0.035 A 
HETATM    2  C   UNL     1      42.011 -13.957   4.502  1.00  0.00     0.046 A 
HETATM    3  C   UNL     1      41.131 -14.384   3.481  1.00  0.00     0.030 A 
HETATM    4  C   UNL     1      39.902 -13.750   3.346  1.00  0.00     0.063 A 
HETATM    5  N   UNL     1      39.285 -14.374   2.299  1.00  0.00    -0.277 N 
HETATM    6  H   UNL     1      38.367 -14.173   1.919  1.00  0.00     0.189 HD
HETATM    7  N   UNL     1      40.004 -15.357   1.734  1.00  0.00    -0.168 NA
HETATM    8  C   UNL     1      41.150 -15.374   2.452  1.00  0.00     0.156 A 
HETATM    9  C   UNL     1      39.489 -12.703   4.171  1.00  0.00     0.034 A 
HETATM   10  C   UNL     1      40.378 -12.299   5.175  1.00  0.00     0.032 A 
ENDROOT
BRANCH   1  11
HETATM   11  N   UNL     1      42.422 -12.426   6.413  1.00  0.00    -0.327 N 
HETATM   12  C   UNL     1      43.674 -11.855   6.335  1.00  0.00     0.227 C 
HETATM   13  O   UNL     1      44.325 -11.649   5.322  1.00  0.00    -0.273 OA
HETATM   14  H   UNL     1      42.038 -12.551   7.337  1.00  0.00     0.169 HD
BRANCH  12  15
HETATM   15  C   UNL     1      44.302 -11.478   7.640  1.00  0.00     0.087 A 
HETATM   16  C   UNL     1      44.333 -10.009   8.039  1.00  0.00     0.032 A 
HETATM   17  C   UNL     1      45.619 -10.774   7.826  1.00  0.00     0.025 A 
BRANCH  16  18
HETATM   18  C   UNL     1      43.913  -9.598   9.428  1.00  0.00    -0.053 A 
HETATM   19  C   UNL     1      43.881 -10.527  10.483  1.00  0.00     0.009 A 
HETATM   20  C   UNL     1      43.521 -10.146  11.779  1.00  0.00     0.024 A 
HETATM   21  C   UNL     1      43.190  -8.820  12.042  1.00  0.00     0.034 A 
HETATM   22  C   UNL     1      43.217  -7.877  11.021  1.00  0.00     0.024 A 
HETATM   23 CL   UNL     1      42.751  -8.347  13.636  1.00  0.00    -0.084 Cl
HETATM   24  C   UNL     1      43.581  -8.265   9.727  1.00  0.00     0.009 A 
ENDBRANCH  16  18
ENDBRANCH  12  15
ENDBRANCH   1  11
BRANCH   8  25
HETATM   25  C   UNL     1      42.225 -16.327   2.144  1.00  0.00     0.270 C 
HETATM   26  N   UNL     1      43.161 -15.848   1.268  1.00  0.00    -0.365 N 
HETATM   27  H   UNL     1      43.052 -14.906   0.909  1.00  0.00     0.159 HD
HETATM   28  H   UNL     1      43.938 -16.430   0.999  1.00  0.00     0.159 HD
HETATM   29  O   UNL     1      42.313 -17.459   2.608  1.00  0.00    -0.266 OA
ENDBRANCH   8  25
TORSDOF 4
ENDMDL
MODEL 9
REMARK VINA RESULT:      -7.7      2.718      3.417
REMARK  4 active torsions:
REMARK  status: ('A' for Active; 'I' for Inactive)
REMARK    1  A    between atoms: C_2  and  C_3 
REMARK    2  A    between atoms: C_4  and  C_5 
REMARK       I    between atoms: C_5  and  N_6 
REMARK    3  A    between atoms: N_6  and  C_7 
REMARK    4  A    between atoms: C_14  and  C_15 
REMARK       I    between atoms: C_15  and  N_16 
ROOT
HETATM    1  C   UNL     1      44.098 -12.099   6.807  1.00  0.00     0.035 A 
HETATM    2  C   UNL     1      43.423 -11.470   7.862  1.00  0.00     0.046 A 
HETATM    3  C   UNL     1      44.102 -10.515   8.654  1.00  0.00     0.030 A 
HETATM    4  C   UNL     1      45.428 -10.223   8.361  1.00  0.00     0.063 A 
HETATM    5  N   UNL     1      45.806  -9.289   9.284  1.00  0.00    -0.277 N 
HETATM    6  H   UNL     1      46.715  -8.847   9.373  1.00  0.00     0.189 HD
HETATM    7  N   UNL     1      44.844  -8.942  10.152  1.00  0.00    -0.168 NA
HETATM    8  C   UNL     1      43.782  -9.691   9.775  1.00  0.00     0.156 A 
HETATM    9  C   UNL     1      46.129 -10.824   7.314  1.00  0.00     0.034 A 
HETATM   10  C   UNL     1      45.434 -11.765   6.545  1.00  0.00     0.032 A 
ENDROOT
BRANCH   1  11
HETATM   11  N   UNL     1      43.516 -13.076   5.971  1.00  0.00    -0.327 N 
HETATM   12  C   UNL     1      43.101 -14.345   6.317  1.00  0.00     0.227 C 
HETATM   13  O   UNL     1      43.150 -14.856   7.425  1.00  0.00    -0.273 OA
HETATM   14  H   UNL     1      43.434 -12.823   4.999  1.00  0.00     0.169 HD
BRANCH  12  15
HETATM   15  C   UNL     1      42.565 -15.183   5.200  1.00  0.00     0.087 A 
HETATM   16  C   UNL     1      41.097 -15.045   4.822  1.00  0.00     0.032 A 
HETATM   17  C   UNL     1      41.638 -16.361   5.334  1.00  0.00     0.025 A 
BRANCH  16  18
HETATM   18  C   UNL     1      40.704 -14.896   3.373  1.00  0.00    -0.053 A 
HETATM   19  C   UNL     1      40.742 -13.644   2.735  1.00  0.00     0.009 A 
HETATM   20  C   UNL     1      40.407 -13.504   1.385  1.00  0.00     0.024 A 
HETATM   21  C   UNL     1      40.034 -14.623   0.647  1.00  0.00     0.034 A 
HETATM   22  C   UNL     1      39.993 -15.876   1.248  1.00  0.00     0.024 A 
HETATM   23 CL   UNL     1      39.627 -14.455  -1.016  1.00  0.00    -0.084 Cl
HETATM   24  C   UNL     1      40.331 -16.008   2.599  1.00  0.00     0.009 A 
ENDBRANCH  16  18
ENDBRANCH  12  15
ENDBRANCH   1  11
BRANCH   8  25
HETATM   25  C   UNL     1      42.499  -9.602  10.486  1.00  0.00     0.270 C 
HETATM   26  N   UNL     1      42.372 -10.491  11.520  1.00  0.00    -0.365 N 
HETATM   27  H   UNL     1      43.142 -11.121  11.714  1.00  0.00     0.159 HD
HETATM   28  H   UNL     1      41.527 -10.503  12.067  1.00  0.00     0.159 HD
HETATM   29  O   UNL     1      41.598  -8.818  10.212  1.00  0.00    -0.266 OA
ENDBRANCH   8  25
TORSDOF 4
ENDMDL
MODEL 10
REMARK VINA RESULT:      -7.6      3.121      4.086
REMARK  4 active torsions:
REMARK  status: ('A' for Active; 'I' for Inactive)
REMARK    1  A    between atoms: C_2  and  C_3 
REMARK    2  A    between atoms: C_4  and  C_5 
REMARK       I    between atoms: C_5  and  N_6 
REMARK    3  A    between atoms: N_6  and  C_7 
REMARK    4  A    between atoms: C_14  and  C_15 
REMARK       I    between atoms: C_15  and  N_16 
ROOT
HETATM    1  C   UNL     1      44.182 -11.681   6.253  1.00  0.00     0.035 A 
HETATM    2  C   UNL     1      43.324 -11.065   7.175  1.00  0.00     0.046 A 
HETATM    3  C   UNL     1      43.867 -10.267   8.207  1.00  0.00     0.030 A 
HETATM    4  C   UNL     1      45.245 -10.111   8.278  1.00  0.00     0.063 A 
HETATM    5  N   UNL     1      45.463  -9.307   9.362  1.00  0.00    -0.277 N 
HETATM    6  H   UNL     1      46.357  -8.984   9.717  1.00  0.00     0.189 HD
HETATM    7  N   UNL     1      44.350  -8.921  10.003  1.00  0.00    -0.168 NA
HETATM    8  C   UNL     1      43.352  -9.505   9.299  1.00  0.00     0.156 A 
HETATM    9  C   UNL     1      46.128 -10.702   7.374  1.00  0.00     0.034 A 
HETATM   10  C   UNL     1      45.566 -11.487   6.361  1.00  0.00     0.032 A 
ENDROOT
BRANCH   1  11
HETATM   11  N   UNL     1      43.741 -12.510   5.199  1.00  0.00    -0.327 N 
HETATM   12  C   UNL     1      43.554 -12.168   3.876  1.00  0.00     0.227 C 
HETATM   13  O   UNL     1      43.752 -11.076   3.366  1.00  0.00    -0.273 OA
HETATM   14  H   UNL     1      43.498 -13.453   5.461  1.00  0.00     0.169 HD
BRANCH  12  15
HETATM   15  C   UNL     1      43.026 -13.252   2.991  1.00  0.00     0.087 A 
HETATM   16  C   UNL     1      41.525 -13.328   2.744  1.00  0.00     0.032 A 
HETATM   17  C   UNL     1      42.249 -14.464   3.430  1.00  0.00     0.025 A 
BRANCH  16  18
HETATM   18  C   UNL     1      41.003 -13.497   1.339  1.00  0.00    -0.053 A 
HETATM   19  C   UNL     1      40.360 -14.681   0.939  1.00  0.00     0.009 A 
HETATM   20  C   UNL     1      39.847 -14.831  -0.353  1.00  0.00     0.024 A 
HETATM   21  C   UNL     1      39.966 -13.790  -1.269  1.00  0.00     0.034 A 
HETATM   22  C   UNL     1      40.591 -12.603  -0.901  1.00  0.00     0.024 A 
HETATM   23 CL   UNL     1      39.332 -13.970  -2.857  1.00  0.00    -0.084 Cl
HETATM   24  C   UNL     1      41.100 -12.460   0.394  1.00  0.00     0.009 A 
ENDBRANCH  16  18
ENDBRANCH  12  15
ENDBRANCH   1  11
BRANCH   8  25
HETATM   25  C   UNL     1      41.945  -9.324   9.683  1.00  0.00     0.270 C 
HETATM   26  N   UNL     1      41.577 -10.026  10.799  1.00  0.00    -0.365 N 
HETATM   27  H   UNL     1      42.273 -10.598  11.264  1.00  0.00     0.159 HD
HETATM   28  H   UNL     1      40.632  -9.963  11.140  1.00  0.00     0.159 HD
HETATM   29  O   UNL     1      41.141  -8.617   9.087  1.00  0.00    -0.266 OA
ENDBRANCH   8  25
TORSDOF 4
ENDMDL
