MODEL 1
REMARK VINA RESULT:      -9.8      0.000      0.000
REMARK  2 active torsions:
REMARK  status: ('A' for Active; 'I' for Inactive)
REMARK    1  A    between atoms: N_4  and  C_5 
REMARK    2  A    between atoms: C_15  and  C_16 
REMARK       I    between atoms: C_16  and  N_17 
ROOT
HETATM    1  C   UNL     1      41.488 -13.852   0.804  1.00  0.00     0.073 C 
HETATM    2  C   UNL     1      41.955 -14.641   1.969  1.00  0.00     0.069 C 
HETATM    3  N   UNL     1      42.057 -15.977   1.890  1.00  0.00    -0.170 NA
HETATM    4  N   UNL     1      42.571 -16.369   3.096  1.00  0.00    -0.216 N 
HETATM    5  C   UNL     1      42.556 -15.305   3.981  1.00  0.00     0.145 C 
HETATM    6  C   UNL     1      42.273 -14.172   3.258  1.00  0.00     0.087 C 
HETATM    7  N   UNL     1      42.743 -15.285   5.323  1.00  0.00    -0.349 N 
HETATM    8  C   UNL     1      42.612 -14.071   5.974  1.00  0.00     0.111 C 
HETATM    9  C   UNL     1      42.377 -12.887   5.362  1.00  0.00     0.099 C 
HETATM   10  C   UNL     1      42.287 -12.855   3.865  1.00  0.00     0.205 C 
HETATM   11  O   UNL     1      42.238 -11.822   3.209  1.00  0.00    -0.286 OA
HETATM   12  H   UNL     1      42.761 -16.122   5.906  1.00  0.00     0.167 HD
ENDROOT
BRANCH   9  13
HETATM   13  C   UNL     1      42.333 -11.700   6.252  1.00  0.00     0.264 C 
HETATM   14  N   UNL     1      43.515 -11.186   6.759  1.00  0.00    -0.309 N 
HETATM   15  C   UNL     1      44.909 -11.698   6.613  1.00  0.00     0.093 C 
HETATM   16  C   UNL     1      43.598  -9.966   7.483  1.00  0.00     0.044 A 
HETATM   17  C   UNL     1      45.454 -11.469   5.200  1.00  0.00     0.033 C 
HETATM   18  C   UNL     1      45.762 -10.947   7.659  1.00  0.00     0.066 C 
HETATM   19  C   UNL     1      44.892  -9.775   7.971  1.00  0.00    -0.029 A 
HETATM   20  C   UNL     1      45.236  -8.650   8.706  1.00  0.00     0.009 A 
HETATM   21  C   UNL     1      44.257  -7.684   8.934  1.00  0.00     0.001 A 
HETATM   22  C   UNL     1      42.958  -7.863   8.440  1.00  0.00     0.002 A 
HETATM   23  C   UNL     1      42.620  -9.012   7.716  1.00  0.00     0.030 A 
HETATM   24  O   UNL     1      41.224 -11.186   6.429  1.00  0.00    -0.267 OA
ENDBRANCH   9  13
BRANCH   4  25
HETATM   25  C   UNL     1      43.060 -17.694   3.270  1.00  0.00     0.060 A 
HETATM   26  C   UNL     1      43.729 -18.078   4.439  1.00  0.00     0.031 A 
HETATM   27  C   UNL     1      44.236 -19.376   4.564  1.00  0.00     0.002 A 
HETATM   28  C   UNL     1      44.082 -20.292   3.526  1.00  0.00     0.000 A 
HETATM   29  C   UNL     1      43.432 -19.912   2.354  1.00  0.00     0.002 A 
HETATM   30  C   UNL     1      42.931 -18.616   2.220  1.00  0.00     0.031 A 
ENDBRANCH   4  25
TORSDOF 2
ENDMDL
MODEL 2
REMARK VINA RESULT:      -9.7      1.820      8.488
REMARK  2 active torsions:
REMARK  status: ('A' for Active; 'I' for Inactive)
REMARK    1  A    between atoms: N_4  and  C_5 
REMARK    2  A    between atoms: C_15  and  C_16 
REMARK       I    between atoms: C_16  and  N_17 
ROOT
HETATM    1  C   UNL     1      39.502 -11.740   5.231  1.00  0.00     0.073 C 
HETATM    2  C   UNL     1      40.863 -11.690   5.819  1.00  0.00     0.069 C 
HETATM    3  N   UNL     1      41.416 -10.516   6.158  1.00  0.00    -0.170 NA
HETATM    4  N   UNL     1      42.621 -10.836   6.721  1.00  0.00    -0.216 N 
HETATM    5  C   UNL     1      42.898 -12.176   6.508  1.00  0.00     0.145 C 
HETATM    6  C   UNL     1      41.749 -12.763   6.035  1.00  0.00     0.087 C 
HETATM    7  N   UNL     1      44.053 -12.864   6.674  1.00  0.00    -0.349 N 
HETATM    8  C   UNL     1      44.062 -14.202   6.322  1.00  0.00     0.111 C 
HETATM    9  C   UNL     1      42.984 -14.894   5.886  1.00  0.00     0.099 C 
HETATM   10  C   UNL     1      41.661 -14.192   5.807  1.00  0.00     0.205 C 
HETATM   11  O   UNL     1      40.601 -14.763   5.582  1.00  0.00    -0.286 OA
HETATM   12  H   UNL     1      44.958 -12.423   6.835  1.00  0.00     0.167 HD
ENDROOT
BRANCH   9  13
HETATM   13  C   UNL     1      43.208 -16.337   5.621  1.00  0.00     0.264 C 
HETATM   14  N   UNL     1      42.989 -16.836   4.348  1.00  0.00    -0.309 N 
HETATM   15  C   UNL     1      42.462 -16.141   3.137  1.00  0.00     0.093 C 
HETATM   16  C   UNL     1      43.327 -18.158   3.950  1.00  0.00     0.044 A 
HETATM   17  C   UNL     1      43.489 -15.173   2.544  1.00  0.00     0.033 C 
HETATM   18  C   UNL     1      42.101 -17.248   2.121  1.00  0.00     0.066 C 
HETATM   19  C   UNL     1      42.873 -18.409   2.654  1.00  0.00    -0.029 A 
HETATM   20  C   UNL     1      43.086 -19.629   2.029  1.00  0.00     0.009 A 
HETATM   21  C   UNL     1      43.793 -20.611   2.721  1.00  0.00     0.001 A 
HETATM   22  C   UNL     1      44.260 -20.366   4.019  1.00  0.00     0.002 A 
HETATM   23  C   UNL     1      44.021 -19.136   4.643  1.00  0.00     0.030 A 
HETATM   24  O   UNL     1      43.661 -17.005   6.556  1.00  0.00    -0.267 OA
ENDBRANCH   9  13
BRANCH   4  25
HETATM   25  C   UNL     1      43.361  -9.854   7.437  1.00  0.00     0.060 A 
HETATM   26  C   UNL     1      44.695 -10.071   7.808  1.00  0.00     0.031 A 
HETATM   27  C   UNL     1      45.384  -9.104   8.548  1.00  0.00     0.002 A 
HETATM   28  C   UNL     1      44.748  -7.923   8.923  1.00  0.00     0.000 A 
HETATM   29  C   UNL     1      43.418  -7.707   8.571  1.00  0.00     0.002 A 
HETATM   30  C   UNL     1      42.722  -8.671   7.840  1.00  0.00     0.031 A 
ENDBRANCH   4  25
TORSDOF 2
ENDMDL
MODEL 3
REMARK VINA RESULT:      -9.6      2.170      8.651
REMARK  2 active torsions:
REMARK  status: ('A' for Active; 'I' for Inactive)
REMARK    1  A    between atoms: N_4  and  C_5 
REMARK    2  A    between atoms: C_15  and  C_16 
REMARK       I    between atoms: C_16  and  N_17 
ROOT
HETATM    1  C   UNL     1      45.619  -9.729   8.125  1.00  0.00     0.073 C 
HETATM    2  C   UNL     1      44.154  -9.839   7.924  1.00  0.00     0.069 C 
HETATM    3  N   UNL     1      43.306  -9.157   8.709  1.00  0.00    -0.170 NA
HETATM    4  N   UNL     1      42.060  -9.431   8.214  1.00  0.00    -0.216 N 
HETATM    5  C   UNL     1      42.137 -10.456   7.288  1.00  0.00     0.145 C 
HETATM    6  C   UNL     1      43.467 -10.656   7.006  1.00  0.00     0.087 C 
HETATM    7  N   UNL     1      41.154 -11.201   6.729  1.00  0.00    -0.349 N 
HETATM    8  C   UNL     1      41.526 -12.216   5.865  1.00  0.00     0.111 C 
HETATM    9  C   UNL     1      42.798 -12.478   5.482  1.00  0.00     0.099 C 
HETATM   10  C   UNL     1      43.899 -11.593   5.987  1.00  0.00     0.205 C 
HETATM   11  O   UNL     1      45.052 -11.644   5.579  1.00  0.00    -0.286 OA
HETATM   12  H   UNL     1      40.189 -11.207   7.059  1.00  0.00     0.167 HD
ENDROOT
BRANCH   9  13
HETATM   13  C   UNL     1      42.961 -13.578   4.499  1.00  0.00     0.264 C 
HETATM   14  N   UNL     1      43.350 -14.832   4.941  1.00  0.00    -0.309 N 
HETATM   15  C   UNL     1      43.728 -15.275   6.315  1.00  0.00     0.093 C 
HETATM   16  C   UNL     1      43.379 -15.986   4.113  1.00  0.00     0.044 A 
HETATM   17  C   UNL     1      42.510 -15.364   7.239  1.00  0.00     0.033 C 
HETATM   18  C   UNL     1      44.400 -16.657   6.158  1.00  0.00     0.066 C 
HETATM   19  C   UNL     1      43.932 -17.067   4.801  1.00  0.00    -0.029 A 
HETATM   20  C   UNL     1      44.063 -18.317   4.213  1.00  0.00     0.009 A 
HETATM   21  C   UNL     1      43.605 -18.484   2.907  1.00  0.00     0.001 A 
HETATM   22  C   UNL     1      43.041 -17.407   2.211  1.00  0.00     0.002 A 
HETATM   23  C   UNL     1      42.932 -16.147   2.811  1.00  0.00     0.030 A 
HETATM   24  O   UNL     1      42.659 -13.321   3.330  1.00  0.00    -0.267 OA
ENDBRANCH   9  13
BRANCH   4  25
HETATM   25  C   UNL     1      40.937  -8.665   8.636  1.00  0.00     0.060 A 
HETATM   26  C   UNL     1      40.245  -8.972   9.816  1.00  0.00     0.031 A 
HETATM   27  C   UNL     1      39.120  -8.228  10.184  1.00  0.00     0.002 A 
HETATM   28  C   UNL     1      38.678  -7.180   9.379  1.00  0.00     0.000 A 
HETATM   29  C   UNL     1      39.351  -6.879   8.198  1.00  0.00     0.002 A 
HETATM   30  C   UNL     1      40.470  -7.623   7.820  1.00  0.00     0.031 A 
ENDBRANCH   4  25
TORSDOF 2
ENDMDL
MODEL 4
REMARK VINA RESULT:      -9.5      1.719      8.372
REMARK  2 active torsions:
REMARK  status: ('A' for Active; 'I' for Inactive)
REMARK    1  A    between atoms: N_4  and  C_5 
REMARK    2  A    between atoms: C_15  and  C_16 
REMARK       I    between atoms: C_16  and  N_17 
ROOT
HETATM    1  C   UNL     1      38.427 -11.064   6.234  1.00  0.00     0.073 C 
HETATM    2  C   UNL     1      39.884 -10.826   6.373  1.00  0.00     0.069 C 
HETATM    3  N   UNL     1      40.339  -9.687   6.917  1.00  0.00    -0.170 NA
HETATM    4  N   UNL     1      41.700  -9.826   6.953  1.00  0.00    -0.216 N 
HETATM    5  C   UNL     1      42.079 -10.937   6.220  1.00  0.00     0.145 C 
HETATM    6  C   UNL     1      40.939 -11.649   5.935  1.00  0.00     0.087 C 
HETATM    7  N   UNL     1      43.305 -11.321   5.791  1.00  0.00    -0.349 N 
HETATM    8  C   UNL     1      43.387 -12.462   5.013  1.00  0.00     0.111 C 
HETATM    9  C   UNL     1      42.341 -13.264   4.704  1.00  0.00     0.099 C 
HETATM   10  C   UNL     1      40.990 -12.934   5.266  1.00  0.00     0.205 C 
HETATM   11  O   UNL     1      40.019 -13.676   5.181  1.00  0.00    -0.286 OA
HETATM   12  H   UNL     1      44.129 -10.722   5.820  1.00  0.00     0.167 HD
ENDROOT
BRANCH   9  13
HETATM   13  C   UNL     1      42.669 -14.471   3.905  1.00  0.00     0.264 C 
HETATM   14  N   UNL     1      43.159 -15.598   4.545  1.00  0.00    -0.309 N 
HETATM   15  C   UNL     1      43.505 -15.794   5.983  1.00  0.00     0.093 C 
HETATM   16  C   UNL     1      43.350 -16.850   3.901  1.00  0.00     0.044 A 
HETATM   17  C   UNL     1      42.254 -15.879   6.862  1.00  0.00     0.033 C 
HETATM   18  C   UNL     1      44.322 -17.102   6.061  1.00  0.00     0.066 C 
HETATM   19  C   UNL     1      43.972 -17.753   4.764  1.00  0.00    -0.029 A 
HETATM   20  C   UNL     1      44.262 -19.053   4.376  1.00  0.00     0.009 A 
HETATM   21  C   UNL     1      43.895 -19.457   3.093  1.00  0.00     0.001 A 
HETATM   22  C   UNL     1      43.263 -18.560   2.222  1.00  0.00     0.002 A 
HETATM   23  C   UNL     1      42.994 -17.246   2.622  1.00  0.00     0.030 A 
HETATM   24  O   UNL     1      42.406 -14.421   2.699  1.00  0.00    -0.267 OA
ENDBRANCH   9  13
BRANCH   4  25
HETATM   25  C   UNL     1      42.493  -8.919   7.712  1.00  0.00     0.060 A 
HETATM   26  C   UNL     1      43.591  -9.360   8.462  1.00  0.00     0.031 A 
HETATM   27  C   UNL     1      44.326  -8.452   9.231  1.00  0.00     0.002 A 
HETATM   28  C   UNL     1      43.969  -7.105   9.258  1.00  0.00     0.000 A 
HETATM   29  C   UNL     1      42.870  -6.662   8.527  1.00  0.00     0.002 A 
HETATM   30  C   UNL     1      42.127  -7.565   7.764  1.00  0.00     0.031 A 
ENDBRANCH   4  25
TORSDOF 2
ENDMDL
MODEL 5
REMARK VINA RESULT:      -9.5      2.383      8.564
REMARK  2 active torsions:
REMARK  status: ('A' for Active; 'I' for Inactive)
REMARK    1  A    between atoms: N_4  and  C_5 
REMARK    2  A    between atoms: C_15  and  C_16 
REMARK       I    between atoms: C_16  and  N_17 
ROOT
HETATM    1  C   UNL     1      39.205  -8.371   6.459  1.00  0.00     0.073 C 
HETATM    2  C   UNL     1      40.307  -8.933   7.277  1.00  0.00     0.069 C 
HETATM    3  N   UNL     1      40.626  -8.383   8.458  1.00  0.00    -0.170 NA
HETATM    4  N   UNL     1      41.620  -9.176   8.965  1.00  0.00    -0.216 N 
HETATM    5  C   UNL     1      42.061 -10.056   7.993  1.00  0.00     0.145 C 
HETATM    6  C   UNL     1      41.170  -9.996   6.949  1.00  0.00     0.087 C 
HETATM    7  N   UNL     1      43.161 -10.846   7.967  1.00  0.00    -0.349 N 
HETATM    8  C   UNL     1      43.392 -11.592   6.825  1.00  0.00     0.111 C 
HETATM    9  C   UNL     1      42.564 -11.644   5.755  1.00  0.00     0.099 C 
HETATM   10  C   UNL     1      41.277 -10.877   5.802  1.00  0.00     0.205 C 
HETATM   11  O   UNL     1      40.391 -10.983   4.963  1.00  0.00    -0.286 OA
HETATM   12  H   UNL     1      43.931 -10.768   8.631  1.00  0.00     0.167 HD
ENDROOT
BRANCH   9  13
HETATM   13  C   UNL     1      42.981 -12.558   4.663  1.00  0.00     0.264 C 
HETATM   14  N   UNL     1      42.703 -13.912   4.765  1.00  0.00    -0.309 N 
HETATM   15  C   UNL     1      42.080 -14.667   5.892  1.00  0.00     0.093 C 
HETATM   16  C   UNL     1      42.912 -14.842   3.712  1.00  0.00     0.044 A 
HETATM   17  C   UNL     1      40.580 -14.383   6.006  1.00  0.00     0.033 C 
HETATM   18  C   UNL     1      42.337 -16.163   5.608  1.00  0.00     0.066 C 
HETATM   19  C   UNL     1      42.661 -16.143   4.152  1.00  0.00    -0.029 A 
HETATM   20  C   UNL     1      42.785 -17.236   3.306  1.00  0.00     0.009 A 
HETATM   21  C   UNL     1      43.150 -17.008   1.980  1.00  0.00     0.001 A 
HETATM   22  C   UNL     1      43.396 -15.705   1.528  1.00  0.00     0.002 A 
HETATM   23  C   UNL     1      43.285 -14.614   2.396  1.00  0.00     0.030 A 
HETATM   24  O   UNL     1      43.496 -12.032   3.671  1.00  0.00    -0.267 OA
ENDBRANCH   9  13
BRANCH   4  25
HETATM   25  C   UNL     1      42.015  -9.046  10.326  1.00  0.00     0.060 A 
HETATM   26  C   UNL     1      43.211  -8.408  10.682  1.00  0.00     0.031 A 
HETATM   27  C   UNL     1      43.594  -8.332  12.025  1.00  0.00     0.002 A 
HETATM   28  C   UNL     1      42.792  -8.893  13.016  1.00  0.00     0.000 A 
HETATM   29  C   UNL     1      41.609  -9.542  12.669  1.00  0.00     0.002 A 
HETATM   30  C   UNL     1      41.225  -9.628  11.329  1.00  0.00     0.031 A 
ENDBRANCH   4  25
TORSDOF 2
ENDMDL
MODEL 6
REMARK VINA RESULT:      -9.5      2.230      8.782
REMARK  2 active torsions:
REMARK  status: ('A' for Active; 'I' for Inactive)
REMARK    1  A    between atoms: N_4  and  C_5 
REMARK    2  A    between atoms: C_15  and  C_16 
REMARK       I    between atoms: C_16  and  N_17 
ROOT
HETATM    1  C   UNL     1      47.007 -10.626   7.462  1.00  0.00     0.073 C 
HETATM    2  C   UNL     1      45.647 -10.256   7.922  1.00  0.00     0.069 C 
HETATM    3  N   UNL     1      45.463  -9.707   9.133  1.00  0.00    -0.170 NA
HETATM    4  N   UNL     1      44.124  -9.434   9.203  1.00  0.00    -0.216 N 
HETATM    5  C   UNL     1      43.467 -10.030   8.141  1.00  0.00     0.145 C 
HETATM    6  C   UNL     1      44.424 -10.464   7.256  1.00  0.00     0.087 C 
HETATM    7  N   UNL     1      42.142 -10.225   7.935  1.00  0.00    -0.349 N 
HETATM    8  C   UNL     1      41.761 -10.913   6.796  1.00  0.00     0.111 C 
HETATM    9  C   UNL     1      42.610 -11.348   5.836  1.00  0.00     0.099 C 
HETATM   10  C   UNL     1      44.072 -11.042   5.974  1.00  0.00     0.205 C 
HETATM   11  O   UNL     1      44.895 -11.248   5.091  1.00  0.00    -0.286 OA
HETATM   12  H   UNL     1      41.430 -10.091   8.653  1.00  0.00     0.167 HD
ENDROOT
BRANCH   9  13
HETATM   13  C   UNL     1      41.977 -12.013   4.670  1.00  0.00     0.264 C 
HETATM   14  N   UNL     1      42.142 -13.377   4.493  1.00  0.00    -0.309 N 
HETATM   15  C   UNL     1      42.960 -14.341   5.284  1.00  0.00     0.093 C 
HETATM   16  C   UNL     1      41.451 -14.133   3.508  1.00  0.00     0.044 A 
HETATM   17  C   UNL     1      42.336 -14.628   6.652  1.00  0.00     0.033 C 
HETATM   18  C   UNL     1      43.052 -15.632   4.440  1.00  0.00     0.066 C 
HETATM   19  C   UNL     1      41.917 -15.449   3.487  1.00  0.00    -0.029 A 
HETATM   20  C   UNL     1      41.394 -16.395   2.617  1.00  0.00     0.009 A 
HETATM   21  C   UNL     1      40.362 -16.009   1.764  1.00  0.00     0.001 A 
HETATM   22  C   UNL     1      39.882 -14.693   1.783  1.00  0.00     0.002 A 
HETATM   23  C   UNL     1      40.432 -13.745   2.653  1.00  0.00     0.030 A 
HETATM   24  O   UNL     1      41.261 -11.305   3.954  1.00  0.00    -0.267 OA
ENDBRANCH   9  13
BRANCH   4  25
HETATM   25  C   UNL     1      43.616  -8.605  10.242  1.00  0.00     0.060 A 
HETATM   26  C   UNL     1      43.676  -8.997  11.586  1.00  0.00     0.031 A 
HETATM   27  C   UNL     1      43.131  -8.179  12.581  1.00  0.00     0.002 A 
HETATM   28  C   UNL     1      42.521  -6.973  12.242  1.00  0.00     0.000 A 
HETATM   29  C   UNL     1      42.444  -6.584  10.907  1.00  0.00     0.002 A 
HETATM   30  C   UNL     1      42.979  -7.399   9.908  1.00  0.00     0.031 A 
ENDBRANCH   4  25
TORSDOF 2
ENDMDL
MODEL 7
REMARK VINA RESULT:      -9.5      3.498      5.584
REMARK  2 active torsions:
REMARK  status: ('A' for Active; 'I' for Inactive)
REMARK    1  A    between atoms: N_4  and  C_5 
REMARK    2  A    between atoms: C_15  and  C_16 
REMARK       I    between atoms: C_16  and  N_17 
ROOT
HETATM    1  C   UNL     1      43.040 -14.945   7.487  1.00  0.00     0.073 C 
HETATM    2  C   UNL     1      43.162 -15.546   6.137  1.00  0.00     0.069 C 
HETATM    3  N   UNL     1      43.637 -16.792   5.987  1.00  0.00    -0.170 NA
HETATM    4  N   UNL     1      43.552 -17.049   4.646  1.00  0.00    -0.216 N 
HETATM    5  C   UNL     1      43.250 -15.884   3.962  1.00  0.00     0.145 C 
HETATM    6  C   UNL     1      42.890 -14.942   4.895  1.00  0.00     0.087 C 
HETATM    7  N   UNL     1      43.298 -15.615   2.635  1.00  0.00    -0.349 N 
HETATM    8  C   UNL     1      42.996 -14.328   2.227  1.00  0.00     0.111 C 
HETATM    9  C   UNL     1      42.589 -13.332   3.049  1.00  0.00     0.099 C 
HETATM   10  C   UNL     1      42.407 -13.631   4.508  1.00  0.00     0.205 C 
HETATM   11  O   UNL     1      41.894 -12.852   5.302  1.00  0.00    -0.286 OA
HETATM   12  H   UNL     1      43.741 -16.225   1.949  1.00  0.00     0.167 HD
ENDROOT
BRANCH   9  13
HETATM   13  C   UNL     1      42.261 -12.045   2.387  1.00  0.00     0.264 C 
HETATM   14  N   UNL     1      41.081 -11.931   1.669  1.00  0.00    -0.309 N 
HETATM   15  C   UNL     1      40.053 -12.970   1.367  1.00  0.00     0.093 C 
HETATM   16  C   UNL     1      40.598 -10.705   1.137  1.00  0.00     0.044 A 
HETATM   17  C   UNL     1      39.227 -13.328   2.605  1.00  0.00     0.033 C 
HETATM   18  C   UNL     1      39.155 -12.384   0.256  1.00  0.00     0.066 C 
HETATM   19  C   UNL     1      39.460 -10.926   0.359  1.00  0.00    -0.029 A 
HETATM   20  C   UNL     1      38.790  -9.885  -0.266  1.00  0.00     0.009 A 
HETATM   21  C   UNL     1      39.266  -8.587  -0.084  1.00  0.00     0.001 A 
HETATM   22  C   UNL     1      40.403  -8.355   0.702  1.00  0.00     0.002 A 
HETATM   23  C   UNL     1      41.080  -9.418   1.311  1.00  0.00     0.030 A 
HETATM   24  O   UNL     1      43.042 -11.109   2.586  1.00  0.00    -0.267 OA
ENDBRANCH   9  13
BRANCH   4  25
HETATM   25  C   UNL     1      43.721 -18.375   4.158  1.00  0.00     0.060 A 
HETATM   26  C   UNL     1      43.569 -18.679   2.799  1.00  0.00     0.031 A 
HETATM   27  C   UNL     1      43.701 -19.999   2.355  1.00  0.00     0.002 A 
HETATM   28  C   UNL     1      43.980 -21.019   3.262  1.00  0.00     0.000 A 
HETATM   29  C   UNL     1      44.117 -20.728   4.617  1.00  0.00     0.002 A 
HETATM   30  C   UNL     1      43.979 -19.413   5.067  1.00  0.00     0.031 A 
ENDBRANCH   4  25
TORSDOF 2
ENDMDL
MODEL 8
REMARK VINA RESULT:      -9.2      1.826      8.481
REMARK  2 active torsions:
REMARK  status: ('A' for Active; 'I' for Inactive)
REMARK    1  A    between atoms: N_4  and  C_5 
REMARK    2  A    between atoms: C_15  and  C_16 
REMARK       I    between atoms: C_16  and  N_17 
ROOT
HETATM    1  C   UNL     1      38.974 -11.045   4.918  1.00  0.00     0.073 C 
HETATM    2  C   UNL     1      40.221 -10.951   5.714  1.00  0.00     0.069 C 
HETATM    3  N   UNL     1      40.656  -9.762   6.160  1.00  0.00    -0.170 NA
HETATM    4  N   UNL     1      41.773 -10.044   6.899  1.00  0.00    -0.216 N 
HETATM    5  C   UNL     1      42.145 -11.363   6.705  1.00  0.00     0.145 C 
HETATM    6  C   UNL     1      41.115 -11.987   6.045  1.00  0.00     0.087 C 
HETATM    7  N   UNL     1      43.292 -12.002   7.037  1.00  0.00    -0.349 N 
HETATM    8  C   UNL     1      43.422 -13.328   6.663  1.00  0.00     0.111 C 
HETATM    9  C   UNL     1      42.460 -14.056   6.049  1.00  0.00     0.099 C 
HETATM   10  C   UNL     1      41.133 -13.412   5.777  1.00  0.00     0.205 C 
HETATM   11  O   UNL     1      40.150 -14.024   5.375  1.00  0.00    -0.286 OA
HETATM   12  H   UNL     1      44.138 -11.525   7.347  1.00  0.00     0.167 HD
ENDROOT
BRANCH   9  13
HETATM   13  C   UNL     1      42.794 -15.479   5.793  1.00  0.00     0.264 C 
HETATM   14  N   UNL     1      42.717 -15.974   4.501  1.00  0.00    -0.309 N 
HETATM   15  C   UNL     1      42.255 -15.295   3.254  1.00  0.00     0.093 C 
HETATM   16  C   UNL     1      43.167 -17.268   4.124  1.00  0.00     0.044 A 
HETATM   17  C   UNL     1      43.269 -14.260   2.762  1.00  0.00     0.033 C 
HETATM   18  C   UNL     1      42.051 -16.408   2.203  1.00  0.00     0.066 C 
HETATM   19  C   UNL     1      42.843 -17.528   2.791  1.00  0.00    -0.029 A 
HETATM   20  C   UNL     1      43.183 -18.725   2.178  1.00  0.00     0.009 A 
HETATM   21  C   UNL     1      43.886 -19.672   2.921  1.00  0.00     0.001 A 
HETATM   22  C   UNL     1      44.223 -19.416   4.257  1.00  0.00     0.002 A 
HETATM   23  C   UNL     1      43.857 -18.212   4.868  1.00  0.00     0.030 A 
HETATM   24  O   UNL     1      43.203 -16.131   6.759  1.00  0.00    -0.267 OA
ENDBRANCH   9  13
BRANCH   4  25
HETATM   25  C   UNL     1      42.343  -9.049   7.743  1.00  0.00     0.060 A 
HETATM   26  C   UNL     1      42.242  -7.686   7.436  1.00  0.00     0.031 A 
HETATM   27  C   UNL     1      42.848  -6.734   8.263  1.00  0.00     0.002 A 
HETATM   28  C   UNL     1      43.558  -7.136   9.393  1.00  0.00     0.000 A 
HETATM   29  C   UNL     1      43.675  -8.490   9.695  1.00  0.00     0.002 A 
HETATM   30  C   UNL     1      43.079  -9.446   8.870  1.00  0.00     0.031 A 
ENDBRANCH   4  25
TORSDOF 2
ENDMDL
MODEL 9
REMARK VINA RESULT:      -8.7      1.688      2.319
REMARK  2 active torsions:
REMARK  status: ('A' for Active; 'I' for Inactive)
REMARK    1  A    between atoms: N_4  and  C_5 
REMARK    2  A    between atoms: C_15  and  C_16 
REMARK       I    between atoms: C_16  and  N_17 
ROOT
HETATM    1  C   UNL     1      40.109 -14.478   0.596  1.00  0.00     0.073 C 
HETATM    2  C   UNL     1      40.761 -15.074   1.787  1.00  0.00     0.069 C 
HETATM    3  N   UNL     1      41.269 -16.315   1.735  1.00  0.00    -0.170 NA
HETATM    4  N   UNL     1      41.844 -16.519   2.960  1.00  0.00    -0.216 N 
HETATM    5  C   UNL     1      41.479 -15.501   3.825  1.00  0.00     0.145 C 
HETATM    6  C   UNL     1      40.884 -14.517   3.074  1.00  0.00     0.087 C 
HETATM    7  N   UNL     1      41.613 -15.412   5.170  1.00  0.00    -0.349 N 
HETATM    8  C   UNL     1      41.098 -14.290   5.795  1.00  0.00     0.111 C 
HETATM    9  C   UNL     1      40.530 -13.241   5.156  1.00  0.00     0.099 C 
HETATM   10  C   UNL     1      40.476 -13.254   3.657  1.00  0.00     0.205 C 
HETATM   11  O   UNL     1      40.132 -12.292   2.981  1.00  0.00    -0.286 OA
HETATM   12  H   UNL     1      41.870 -16.196   5.768  1.00  0.00     0.167 HD
ENDROOT
BRANCH   9  13
HETATM   13  C   UNL     1      40.098 -12.115   6.022  1.00  0.00     0.264 C 
HETATM   14  N   UNL     1      41.031 -11.175   6.429  1.00  0.00    -0.309 N 
HETATM   15  C   UNL     1      42.504 -11.138   6.190  1.00  0.00     0.093 C 
HETATM   16  C   UNL     1      40.696  -9.980   7.120  1.00  0.00     0.044 A 
HETATM   17  C   UNL     1      42.835 -10.790   4.737  1.00  0.00     0.033 C 
HETATM   18  C   UNL     1      43.076 -10.076   7.155  1.00  0.00     0.066 C 
HETATM   19  C   UNL     1      41.851  -9.299   7.507  1.00  0.00    -0.029 A 
HETATM   20  C   UNL     1      41.793  -8.094   8.191  1.00  0.00     0.009 A 
HETATM   21  C   UNL     1      40.540  -7.551   8.472  1.00  0.00     0.001 A 
HETATM   22  C   UNL     1      39.375  -8.224   8.079  1.00  0.00     0.002 A 
HETATM   23  C   UNL     1      39.448  -9.448   7.406  1.00  0.00     0.030 A 
HETATM   24  O   UNL     1      38.891 -12.043   6.270  1.00  0.00    -0.267 OA
ENDBRANCH   9  13
BRANCH   4  25
HETATM   25  C   UNL     1      42.710 -17.628   3.170  1.00  0.00     0.060 A 
HETATM   26  C   UNL     1      42.753 -18.702   2.271  1.00  0.00     0.031 A 
HETATM   27  C   UNL     1      43.584 -19.798   2.525  1.00  0.00     0.002 A 
HETATM   28  C   UNL     1      44.372 -19.830   3.674  1.00  0.00     0.000 A 
HETATM   29  C   UNL     1      44.323 -18.773   4.580  1.00  0.00     0.002 A 
HETATM   30  C   UNL     1      43.490 -17.679   4.336  1.00  0.00     0.031 A 
ENDBRANCH   4  25
TORSDOF 2
ENDMDL
MODEL 10
REMARK VINA RESULT:      -8.7      4.038      7.237
REMARK  2 active torsions:
REMARK  status: ('A' for Active; 'I' for Inactive)
REMARK    1  A    between atoms: N_4  and  C_5 
REMARK    2  A    between atoms: C_15  and  C_16 
REMARK       I    between atoms: C_16  and  N_17 
ROOT
HETATM    1  C   UNL     1      39.975 -13.068   5.272  1.00  0.00     0.073 C 
HETATM    2  C   UNL     1      40.587 -13.901   4.209  1.00  0.00     0.069 C 
HETATM    3  N   UNL     1      41.548 -14.789   4.508  1.00  0.00    -0.170 NA
HETATM    4  N   UNL     1      41.833 -15.420   3.328  1.00  0.00    -0.216 N 
HETATM    5  C   UNL     1      41.220 -14.756   2.280  1.00  0.00     0.145 C 
HETATM    6  C   UNL     1      40.336 -13.856   2.824  1.00  0.00     0.087 C 
HETATM    7  N   UNL     1      41.407 -14.876   0.944  1.00  0.00    -0.349 N 
HETATM    8  C   UNL     1      40.691 -14.032   0.114  1.00  0.00     0.111 C 
HETATM    9  C   UNL     1      39.764 -13.139   0.534  1.00  0.00     0.099 C 
HETATM   10  C   UNL     1      39.445 -13.066   1.997  1.00  0.00     0.205 C 
HETATM   11  O   UNL     1      38.517 -12.413   2.459  1.00  0.00    -0.286 OA
HETATM   12  H   UNL     1      42.182 -15.388   0.524  1.00  0.00     0.167 HD
ENDROOT
BRANCH   9  13
HETATM   13  C   UNL     1      39.074 -12.376  -0.536  1.00  0.00     0.264 C 
HETATM   14  N   UNL     1      39.265 -11.007  -0.627  1.00  0.00    -0.309 N 
HETATM   15  C   UNL     1      40.038 -10.098   0.270  1.00  0.00     0.093 C 
HETATM   16  C   UNL     1      38.783 -10.213  -1.702  1.00  0.00     0.044 A 
HETATM   17  C   UNL     1      41.548 -10.287   0.105  1.00  0.00     0.033 C 
HETATM   18  C   UNL     1      39.619  -8.659  -0.102  1.00  0.00     0.066 C 
HETATM   19  C   UNL     1      39.018  -8.860  -1.453  1.00  0.00    -0.029 A 
HETATM   20  C   UNL     1      38.648  -7.876  -2.359  1.00  0.00     0.009 A 
HETATM   21  C   UNL     1      38.049  -8.270  -3.555  1.00  0.00     0.001 A 
HETATM   22  C   UNL     1      37.817  -9.627  -3.817  1.00  0.00     0.002 A 
HETATM   23  C   UNL     1      38.178 -10.606  -2.885  1.00  0.00     0.030 A 
HETATM   24  O   UNL     1      38.416 -13.037  -1.346  1.00  0.00    -0.267 OA
ENDBRANCH   9  13
BRANCH   4  25
HETATM   25  C   UNL     1      42.618 -16.607   3.322  1.00  0.00     0.060 A 
HETATM   26  C   UNL     1      42.447 -17.591   2.340  1.00  0.00     0.031 A 
HETATM   27  C   UNL     1      43.205 -18.766   2.383  1.00  0.00     0.002 A 
HETATM   28  C   UNL     1      44.130 -18.966   3.405  1.00  0.00     0.000 A 
HETATM   29  C   UNL     1      44.295 -18.000   4.394  1.00  0.00     0.002 A 
HETATM   30  C   UNL     1      43.536 -16.828   4.361  1.00  0.00     0.031 A 
ENDBRANCH   4  25
TORSDOF 2
ENDMDL
