MODEL 1
REMARK VINA RESULT:      -8.1      0.000      0.000
REMARK  6 active torsions:
REMARK  status: ('A' for Active; 'I' for Inactive)
REMARK    1  A    between atoms: C_2  and  N_3 
REMARK    2  A    between atoms: C_2  and  C_25 
REMARK    3  A    between atoms: C_7  and  N_8 
REMARK       I    between atoms: N_8  and  C_9 
REMARK       I    between atoms: C_9  and  N_10 
REMARK    4  A    between atoms: N_10  and  C_11 
REMARK    5  A    between atoms: C_11  and  C_12 
REMARK    6  A    between atoms: C_20  and  O_21 
ROOT
HETATM    1  N   UNL     1      41.464 -13.442   5.390  1.00  0.00    -0.293 N 
HETATM    2  C   UNL     1      41.067 -14.314   6.433  1.00  0.00     0.322 C 
HETATM    3  N   UNL     1      42.098 -14.772   7.191  1.00  0.00    -0.337 N 
HETATM    4  O   UNL     1      39.904 -14.587   6.669  1.00  0.00    -0.247 OA
HETATM    5  H   UNL     1      42.418 -13.116   5.387  1.00  0.00     0.172 HD
HETATM    6  H   UNL     1      41.756 -15.430   7.882  1.00  0.00     0.164 HD
ENDROOT
BRANCH   3   7
HETATM    7  C   UNL     1      43.457 -14.979   6.754  1.00  0.00     0.181 C 
BRANCH   7   8
HETATM    8  C   UNL     1      43.593 -16.312   6.114  1.00  0.00     0.028 A 
HETATM    9  N   UNL     1      43.493 -17.494   6.814  1.00  0.00    -0.357 N 
HETATM   10  H   UNL     1      43.326 -17.572   7.808  1.00  0.00     0.166 HD
HETATM   11  C   UNL     1      43.647 -18.567   5.968  1.00  0.00     0.043 A 
HETATM   12  C   UNL     1      43.808 -18.060   4.681  1.00  0.00    -0.005 A 
HETATM   13  C   UNL     1      43.638 -19.939   6.238  1.00  0.00     0.033 A 
HETATM   14  C   UNL     1      43.775 -16.643   4.785  1.00  0.00     0.040 A 
HETATM   15  C   UNL     1      43.946 -18.960   3.610  1.00  0.00     0.050 A 
HETATM   16  C   UNL     1      43.908 -20.341   3.851  1.00  0.00     0.069 A 
HETATM   17  C   UNL     1      43.772 -20.817   5.154  1.00  0.00     0.039 A 
BRANCH  16  18
HETATM   18  O   UNL     1      44.026 -21.115   2.728  1.00  0.00    -0.356 OA
HETATM   19  C   UNL     1      43.531 -20.557   1.515  1.00  0.00     0.210 C 
ENDBRANCH  16  18
ENDBRANCH   7   8
ENDBRANCH   3   7
BRANCH   1  20
HETATM   20  C   UNL     1      40.600 -12.950   4.417  1.00  0.00     0.129 A 
HETATM   21  N   UNL     1      40.270 -13.556   3.220  1.00  0.00    -0.249 N 
HETATM   22  N   UNL     1      39.383 -12.843   2.494  1.00  0.00    -0.183 NA
HETATM   23  C   UNL     1      39.148 -11.764   3.239  1.00  0.00     0.142 A 
HETATM   24  C   UNL     1      39.874 -11.779   4.442  1.00  0.00     0.071 A 
BRANCH  21  25
HETATM   25  C   UNL     1      40.766 -14.812   2.649  1.00  0.00     0.111 C 
HETATM   26  C   UNL     1      39.593 -15.755   2.357  1.00  0.00     0.035 C 
BRANCH  25  27
HETATM   27  C   UNL     1      41.718 -14.596   1.441  1.00  0.00     0.002 C 
HETATM   28  C   UNL     1      42.831 -15.652   1.397  1.00  0.00     0.011 C 
HETATM   29  C   UNL     1      40.963 -14.620   0.107  1.00  0.00     0.011 C 
ENDBRANCH  25  27
ENDBRANCH  21  25
ENDBRANCH   1  20
TORSDOF 6
ENDMDL
MODEL 2
REMARK VINA RESULT:      -7.8      4.421      6.620
REMARK  6 active torsions:
REMARK  status: ('A' for Active; 'I' for Inactive)
REMARK    1  A    between atoms: C_2  and  N_3 
REMARK    2  A    between atoms: C_2  and  C_25 
REMARK    3  A    between atoms: C_7  and  N_8 
REMARK       I    between atoms: N_8  and  C_9 
REMARK       I    between atoms: C_9  and  N_10 
REMARK    4  A    between atoms: N_10  and  C_11 
REMARK    5  A    between atoms: C_11  and  C_12 
REMARK    6  A    between atoms: C_20  and  O_21 
ROOT
HETATM    1  N   UNL     1      43.865 -11.859   7.882  1.00  0.00    -0.293 N 
HETATM    2  C   UNL     1      43.058 -11.986   6.724  1.00  0.00     0.322 C 
HETATM    3  N   UNL     1      42.407 -13.176   6.635  1.00  0.00    -0.337 N 
HETATM    4  O   UNL     1      42.914 -11.095   5.908  1.00  0.00    -0.247 OA
HETATM    5  H   UNL     1      43.775 -12.562   8.598  1.00  0.00     0.172 HD
HETATM    6  H   UNL     1      41.892 -13.227   5.764  1.00  0.00     0.164 HD
ENDROOT
BRANCH   3   7
HETATM    7  C   UNL     1      42.854 -14.440   7.169  1.00  0.00     0.181 C 
BRANCH   7   8
HETATM    8  C   UNL     1      42.994 -15.437   6.078  1.00  0.00     0.028 A 
HETATM    9  N   UNL     1      42.884 -15.112   4.745  1.00  0.00    -0.357 N 
HETATM   10  H   UNL     1      42.696 -14.186   4.383  1.00  0.00     0.166 HD
HETATM   11  C   UNL     1      43.071 -16.226   3.961  1.00  0.00     0.043 A 
HETATM   12  C   UNL     1      43.352 -17.290   4.815  1.00  0.00    -0.005 A 
HETATM   13  C   UNL     1      43.032 -16.370   2.571  1.00  0.00     0.033 A 
HETATM   14  C   UNL     1      43.298 -16.783   6.142  1.00  0.00     0.040 A 
HETATM   15  C   UNL     1      43.626 -18.551   4.259  1.00  0.00     0.050 A 
HETATM   16  C   UNL     1      43.624 -18.715   2.866  1.00  0.00     0.069 A 
HETATM   17  C   UNL     1      43.313 -17.635   2.039  1.00  0.00     0.039 A 
BRANCH  16  18
HETATM   18  O   UNL     1      43.931 -19.980   2.444  1.00  0.00    -0.356 OA
HETATM   19  C   UNL     1      43.955 -20.995   3.442  1.00  0.00     0.210 C 
ENDBRANCH  16  18
ENDBRANCH   7   8
ENDBRANCH   3   7
BRANCH   1  20
HETATM   20  C   UNL     1      44.715 -10.784   8.120  1.00  0.00     0.129 A 
HETATM   21  N   UNL     1      44.634  -9.880   9.162  1.00  0.00    -0.249 N 
HETATM   22  N   UNL     1      45.621  -8.958   9.138  1.00  0.00    -0.183 NA
HETATM   23  C   UNL     1      46.337  -9.278   8.062  1.00  0.00     0.142 A 
HETATM   24  C   UNL     1      45.823 -10.401   7.395  1.00  0.00     0.071 A 
BRANCH  21  25
HETATM   25  C   UNL     1      43.635  -9.783  10.230  1.00  0.00     0.111 C 
HETATM   26  C   UNL     1      43.891 -10.860  11.289  1.00  0.00     0.035 C 
BRANCH  25  27
HETATM   27  C   UNL     1      43.502  -8.347  10.809  1.00  0.00     0.002 C 
HETATM   28  C   UNL     1      42.301  -7.601  10.215  1.00  0.00     0.011 C 
HETATM   29  C   UNL     1      43.369  -8.359  12.337  1.00  0.00     0.011 C 
ENDBRANCH  25  27
ENDBRANCH  21  25
ENDBRANCH   1  20
TORSDOF 6
ENDMDL
MODEL 3
REMARK VINA RESULT:      -7.6      1.510      2.394
REMARK  6 active torsions:
REMARK  status: ('A' for Active; 'I' for Inactive)
REMARK    1  A    between atoms: C_2  and  N_3 
REMARK    2  A    between atoms: C_2  and  C_25 
REMARK    3  A    between atoms: C_7  and  N_8 
REMARK       I    between atoms: N_8  and  C_9 
REMARK       I    between atoms: C_9  and  N_10 
REMARK    4  A    between atoms: N_10  and  C_11 
REMARK    5  A    between atoms: C_11  and  C_12 
REMARK    6  A    between atoms: C_20  and  O_21 
ROOT
HETATM    1  N   UNL     1      40.807 -11.910   4.626  1.00  0.00    -0.293 N 
HETATM    2  C   UNL     1      40.554 -12.745   5.742  1.00  0.00     0.322 C 
HETATM    3  N   UNL     1      41.673 -13.114   6.420  1.00  0.00    -0.337 N 
HETATM    4  O   UNL     1      39.434 -13.063   6.099  1.00  0.00    -0.247 OA
HETATM    5  H   UNL     1      41.737 -11.539   4.518  1.00  0.00     0.172 HD
HETATM    6  H   UNL     1      41.432 -13.751   7.170  1.00  0.00     0.164 HD
ENDROOT
BRANCH   3   7
HETATM    7  C   UNL     1      42.995 -13.276   5.866  1.00  0.00     0.181 C 
BRANCH   7   8
HETATM    8  C   UNL     1      43.153 -14.641   5.304  1.00  0.00     0.028 A 
HETATM    9  N   UNL     1      42.960 -14.932   3.972  1.00  0.00    -0.357 N 
HETATM   10  H   UNL     1      42.694 -14.263   3.261  1.00  0.00     0.166 HD
HETATM   11  C   UNL     1      43.186 -16.267   3.733  1.00  0.00     0.043 A 
HETATM   12  C   UNL     1      43.577 -16.842   4.940  1.00  0.00    -0.005 A 
HETATM   13  C   UNL     1      43.094 -17.001   2.547  1.00  0.00     0.033 A 
HETATM   14  C   UNL     1      43.550 -15.812   5.920  1.00  0.00     0.040 A 
HETATM   15  C   UNL     1      43.911 -18.208   4.963  1.00  0.00     0.050 A 
HETATM   16  C   UNL     1      43.857 -18.959   3.780  1.00  0.00     0.069 A 
HETATM   17  C   UNL     1      43.436 -18.359   2.594  1.00  0.00     0.039 A 
BRANCH  16  18
HETATM   18  O   UNL     1      44.229 -20.268   3.924  1.00  0.00    -0.356 OA
HETATM   19  C   UNL     1      44.032 -20.848   5.209  1.00  0.00     0.210 C 
ENDBRANCH  16  18
ENDBRANCH   7   8
ENDBRANCH   3   7
BRANCH   1  20
HETATM   20  C   UNL     1      39.832 -11.512   3.718  1.00  0.00     0.129 A 
HETATM   21  N   UNL     1      39.518 -12.123   2.519  1.00  0.00    -0.249 N 
HETATM   22  N   UNL     1      38.505 -11.515   1.866  1.00  0.00    -0.183 NA
HETATM   23  C   UNL     1      38.172 -10.499   2.659  1.00  0.00     0.142 A 
HETATM   24  C   UNL     1      38.960 -10.450   3.821  1.00  0.00     0.071 A 
BRANCH  21  25
HETATM   25  C   UNL     1      40.142 -13.285   1.879  1.00  0.00     0.111 C 
HETATM   26  C   UNL     1      39.725 -14.570   2.602  1.00  0.00     0.035 C 
BRANCH  25  27
HETATM   27  C   UNL     1      39.919 -13.325   0.342  1.00  0.00     0.002 C 
HETATM   28  C   UNL     1      40.970 -12.494  -0.407  1.00  0.00     0.011 C 
HETATM   29  C   UNL     1      39.945 -14.758  -0.201  1.00  0.00     0.011 C 
ENDBRANCH  25  27
ENDBRANCH  21  25
ENDBRANCH   1  20
TORSDOF 6
ENDMDL
MODEL 4
REMARK VINA RESULT:      -7.5      2.623      3.786
REMARK  6 active torsions:
REMARK  status: ('A' for Active; 'I' for Inactive)
REMARK    1  A    between atoms: C_2  and  N_3 
REMARK    2  A    between atoms: C_2  and  C_25 
REMARK    3  A    between atoms: C_7  and  N_8 
REMARK       I    between atoms: N_8  and  C_9 
REMARK       I    between atoms: C_9  and  N_10 
REMARK    4  A    between atoms: N_10  and  C_11 
REMARK    5  A    between atoms: C_11  and  C_12 
REMARK    6  A    between atoms: C_20  and  O_21 
ROOT
HETATM    1  N   UNL     1      40.642 -12.323   2.133  1.00  0.00    -0.293 N 
HETATM    2  C   UNL     1      41.860 -11.602   2.157  1.00  0.00     0.322 C 
HETATM    3  N   UNL     1      42.759 -12.067   3.065  1.00  0.00    -0.337 N 
HETATM    4  O   UNL     1      42.108 -10.683   1.398  1.00  0.00    -0.247 OA
HETATM    5  H   UNL     1      40.595 -13.185   2.654  1.00  0.00     0.172 HD
HETATM    6  H   UNL     1      43.584 -11.479   3.071  1.00  0.00     0.164 HD
ENDROOT
BRANCH   3   7
HETATM    7  C   UNL     1      42.454 -12.724   4.312  1.00  0.00     0.181 C 
BRANCH   7   8
HETATM    8  C   UNL     1      42.794 -14.167   4.229  1.00  0.00     0.028 A 
HETATM    9  N   UNL     1      42.836 -14.861   3.040  1.00  0.00    -0.357 N 
HETATM   10  H   UNL     1      42.640 -14.470   2.128  1.00  0.00     0.166 HD
HETATM   11  C   UNL     1      43.191 -16.171   3.260  1.00  0.00     0.043 A 
HETATM   12  C   UNL     1      43.426 -16.311   4.626  1.00  0.00    -0.005 A 
HETATM   13  C   UNL     1      43.340 -17.230   2.360  1.00  0.00     0.033 A 
HETATM   14  C   UNL     1      43.171 -15.048   5.224  1.00  0.00     0.040 A 
HETATM   15  C   UNL     1      43.847 -17.560   5.116  1.00  0.00     0.050 A 
HETATM   16  C   UNL     1      44.034 -18.630   4.229  1.00  0.00     0.069 A 
HETATM   17  C   UNL     1      43.766 -18.464   2.871  1.00  0.00     0.039 A 
BRANCH  16  18
HETATM   18  O   UNL     1      44.470 -19.785   4.820  1.00  0.00    -0.356 OA
HETATM   19  C   UNL     1      43.959 -21.004   4.290  1.00  0.00     0.210 C 
ENDBRANCH  16  18
ENDBRANCH   7   8
ENDBRANCH   3   7
BRANCH   1  20
HETATM   20  C   UNL     1      39.536 -11.954   1.376  1.00  0.00     0.129 A 
HETATM   21  N   UNL     1      39.234 -12.370   0.093  1.00  0.00    -0.249 N 
HETATM   22  N   UNL     1      38.074 -11.855  -0.370  1.00  0.00    -0.183 NA
HETATM   23  C   UNL     1      37.635 -11.096   0.632  1.00  0.00     0.142 A 
HETATM   24  C   UNL     1      38.500 -11.121   1.738  1.00  0.00     0.071 A 
BRANCH  21  25
HETATM   25  C   UNL     1      39.999 -13.243  -0.802  1.00  0.00     0.111 C 
HETATM   26  C   UNL     1      39.838 -14.706  -0.374  1.00  0.00     0.035 C 
BRANCH  25  27
HETATM   27  C   UNL     1      39.695 -12.989  -2.304  1.00  0.00     0.002 C 
HETATM   28  C   UNL     1      40.948 -12.549  -3.072  1.00  0.00     0.011 C 
HETATM   29  C   UNL     1      39.108 -14.231  -2.986  1.00  0.00     0.011 C 
ENDBRANCH  25  27
ENDBRANCH  21  25
ENDBRANCH   1  20
TORSDOF 6
ENDMDL
MODEL 5
REMARK VINA RESULT:      -7.4      3.464      7.074
REMARK  6 active torsions:
REMARK  status: ('A' for Active; 'I' for Inactive)
REMARK    1  A    between atoms: C_2  and  N_3 
REMARK    2  A    between atoms: C_2  and  C_25 
REMARK    3  A    between atoms: C_7  and  N_8 
REMARK       I    between atoms: N_8  and  C_9 
REMARK       I    between atoms: C_9  and  N_10 
REMARK    4  A    between atoms: N_10  and  C_11 
REMARK    5  A    between atoms: C_11  and  C_12 
REMARK    6  A    between atoms: C_20  and  O_21 
ROOT
HETATM    1  N   UNL     1      42.320 -12.197   4.443  1.00  0.00    -0.293 N 
HETATM    2  C   UNL     1      43.131 -11.289   3.719  1.00  0.00     0.322 C 
HETATM    3  N   UNL     1      42.454 -10.221   3.221  1.00  0.00    -0.337 N 
HETATM    4  O   UNL     1      44.335 -11.420   3.597  1.00  0.00    -0.247 OA
HETATM    5  H   UNL     1      41.377 -11.916   4.661  1.00  0.00     0.172 HD
HETATM    6  H   UNL     1      43.075  -9.640   2.671  1.00  0.00     0.164 HD
ENDROOT
BRANCH   3   7
HETATM    7  C   UNL     1      41.065 -10.195   2.828  1.00  0.00     0.181 C 
BRANCH   7   8
HETATM    8  C   UNL     1      40.888 -10.883   1.524  1.00  0.00     0.028 A 
HETATM    9  N   UNL     1      41.327 -10.356   0.330  1.00  0.00    -0.357 N 
HETATM   10  H   UNL     1      41.798  -9.467   0.223  1.00  0.00     0.166 HD
HETATM   11  C   UNL     1      41.042 -11.211  -0.707  1.00  0.00     0.043 A 
HETATM   12  C   UNL     1      40.440 -12.341  -0.158  1.00  0.00    -0.005 A 
HETATM   13  C   UNL     1      41.285 -11.082  -2.078  1.00  0.00     0.033 A 
HETATM   14  C   UNL     1      40.346 -12.123   1.243  1.00  0.00     0.040 A 
HETATM   15  C   UNL     1      40.081 -13.400  -1.011  1.00  0.00     0.050 A 
HETATM   16  C   UNL     1      40.343 -13.308  -2.385  1.00  0.00     0.069 A 
HETATM   17  C   UNL     1      40.923 -12.152  -2.907  1.00  0.00     0.039 A 
BRANCH  16  18
HETATM   18  O   UNL     1      39.973 -14.410  -3.106  1.00  0.00    -0.356 OA
HETATM   19  C   UNL     1      38.701 -14.973  -2.802  1.00  0.00     0.210 C 
ENDBRANCH  16  18
ENDBRANCH   7   8
ENDBRANCH   3   7
BRANCH   1  20
HETATM   20  C   UNL     1      42.770 -13.418   4.935  1.00  0.00     0.129 A 
HETATM   21  N   UNL     1      42.792 -14.625   4.263  1.00  0.00    -0.249 N 
HETATM   22  N   UNL     1      43.311 -15.630   5.000  1.00  0.00    -0.183 NA
HETATM   23  C   UNL     1      43.620 -15.055   6.161  1.00  0.00     0.142 A 
HETATM   24  C   UNL     1      43.308 -13.685   6.176  1.00  0.00     0.071 A 
BRANCH  21  25
HETATM   25  C   UNL     1      42.314 -14.944   2.914  1.00  0.00     0.111 C 
HETATM   26  C   UNL     1      43.489 -14.962   1.931  1.00  0.00     0.035 C 
BRANCH  25  27
HETATM   27  C   UNL     1      41.432 -16.222   2.869  1.00  0.00     0.002 C 
HETATM   28  C   UNL     1      40.133 -15.991   2.086  1.00  0.00     0.011 C 
HETATM   29  C   UNL     1      42.179 -17.408   2.246  1.00  0.00     0.011 C 
ENDBRANCH  25  27
ENDBRANCH  21  25
ENDBRANCH   1  20
TORSDOF 6
ENDMDL
MODEL 6
REMARK VINA RESULT:      -7.4     13.740     16.192
REMARK  6 active torsions:
REMARK  status: ('A' for Active; 'I' for Inactive)
REMARK    1  A    between atoms: C_2  and  N_3 
REMARK    2  A    between atoms: C_2  and  C_25 
REMARK    3  A    between atoms: C_7  and  N_8 
REMARK       I    between atoms: N_8  and  C_9 
REMARK       I    between atoms: C_9  and  N_10 
REMARK    4  A    between atoms: N_10  and  C_11 
REMARK    5  A    between atoms: C_11  and  C_12 
REMARK    6  A    between atoms: C_20  and  O_21 
ROOT
HETATM    1  N   UNL     1      47.460 -29.797   2.677  1.00  0.00    -0.293 N 
HETATM    2  C   UNL     1      47.007 -28.503   2.320  1.00  0.00     0.322 C 
HETATM    3  N   UNL     1      45.663 -28.421   2.135  1.00  0.00    -0.337 N 
HETATM    4  O   UNL     1      47.742 -27.536   2.239  1.00  0.00    -0.247 OA
HETATM    5  H   UNL     1      46.768 -30.490   2.912  1.00  0.00     0.172 HD
HETATM    6  H   UNL     1      45.409 -27.489   1.830  1.00  0.00     0.164 HD
ENDROOT
BRANCH   3   7
HETATM    7  C   UNL     1      44.794 -29.482   1.684  1.00  0.00     0.181 C 
BRANCH   7   8
HETATM    8  C   UNL     1      44.676 -29.454   0.205  1.00  0.00     0.028 A 
HETATM    9  N   UNL     1      45.090 -28.388  -0.562  1.00  0.00    -0.357 N 
HETATM   10  H   UNL     1      45.502 -27.536  -0.204  1.00  0.00     0.166 HD
HETATM   11  C   UNL     1      44.872 -28.641  -1.896  1.00  0.00     0.043 A 
HETATM   12  C   UNL     1      44.342 -29.926  -1.991  1.00  0.00    -0.005 A 
HETATM   13  C   UNL     1      45.119 -27.846  -3.019  1.00  0.00     0.033 A 
HETATM   14  C   UNL     1      44.221 -30.425  -0.666  1.00  0.00     0.040 A 
HETATM   15  C   UNL     1      44.063 -30.451  -3.265  1.00  0.00     0.050 A 
HETATM   16  C   UNL     1      44.332 -29.685  -4.409  1.00  0.00     0.069 A 
HETATM   17  C   UNL     1      44.838 -28.392  -4.278  1.00  0.00     0.039 A 
BRANCH  16  18
HETATM   18  O   UNL     1      44.043 -30.313  -5.591  1.00  0.00    -0.356 OA
HETATM   19  C   UNL     1      44.209 -31.726  -5.618  1.00  0.00     0.210 C 
ENDBRANCH  16  18
ENDBRANCH   7   8
ENDBRANCH   3   7
BRANCH   1  20
HETATM   20  C   UNL     1      48.802 -30.144   2.796  1.00  0.00     0.129 A 
HETATM   21  N   UNL     1      49.623 -30.630   1.797  1.00  0.00    -0.249 N 
HETATM   22  N   UNL     1      50.888 -30.853   2.215  1.00  0.00    -0.183 NA
HETATM   23  C   UNL     1      50.869 -30.507   3.501  1.00  0.00     0.142 A 
HETATM   24  C   UNL     1      49.604 -30.059   3.914  1.00  0.00     0.071 A 
BRANCH  21  25
HETATM   25  C   UNL     1      49.299 -30.950   0.403  1.00  0.00     0.111 C 
HETATM   26  C   UNL     1      47.850 -31.439   0.300  1.00  0.00     0.035 C 
BRANCH  25  27
HETATM   27  C   UNL     1      49.648 -29.799  -0.581  1.00  0.00     0.002 C 
HETATM   28  C   UNL     1      50.431 -30.309  -1.798  1.00  0.00     0.011 C 
HETATM   29  C   UNL     1      48.393 -29.069  -1.073  1.00  0.00     0.011 C 
ENDBRANCH  25  27
ENDBRANCH  21  25
ENDBRANCH   1  20
TORSDOF 6
ENDMDL
MODEL 7
REMARK VINA RESULT:      -7.4      4.459      6.469
REMARK  6 active torsions:
REMARK  status: ('A' for Active; 'I' for Inactive)
REMARK    1  A    between atoms: C_2  and  N_3 
REMARK    2  A    between atoms: C_2  and  C_25 
REMARK    3  A    between atoms: C_7  and  N_8 
REMARK       I    between atoms: N_8  and  C_9 
REMARK       I    between atoms: C_9  and  N_10 
REMARK    4  A    between atoms: N_10  and  C_11 
REMARK    5  A    between atoms: C_11  and  C_12 
REMARK    6  A    between atoms: C_20  and  O_21 
ROOT
HETATM    1  N   UNL     1      43.151 -10.969   7.353  1.00  0.00    -0.293 N 
HETATM    2  C   UNL     1      44.439 -11.475   7.050  1.00  0.00     0.322 C 
HETATM    3  N   UNL     1      44.444 -12.780   6.671  1.00  0.00    -0.337 N 
HETATM    4  O   UNL     1      45.447 -10.792   7.071  1.00  0.00    -0.247 OA
HETATM    5  H   UNL     1      42.355 -11.542   7.122  1.00  0.00     0.172 HD
HETATM    6  H   UNL     1      45.395 -13.096   6.521  1.00  0.00     0.164 HD
ENDROOT
BRANCH   3   7
HETATM    7  C   UNL     1      43.509 -13.797   7.089  1.00  0.00     0.181 C 
BRANCH   7   8
HETATM    8  C   UNL     1      43.506 -14.921   6.119  1.00  0.00     0.028 A 
HETATM    9  N   UNL     1      42.950 -14.827   4.863  1.00  0.00    -0.357 N 
HETATM   10  H   UNL     1      42.495 -14.007   4.485  1.00  0.00     0.166 HD
HETATM   11  C   UNL     1      43.104 -16.011   4.180  1.00  0.00     0.043 A 
HETATM   12  C   UNL     1      43.817 -16.876   5.007  1.00  0.00    -0.005 A 
HETATM   13  C   UNL     1      42.685 -16.374   2.896  1.00  0.00     0.033 A 
HETATM   14  C   UNL     1      44.062 -16.182   6.222  1.00  0.00     0.040 A 
HETATM   15  C   UNL     1      44.146 -18.155   4.525  1.00  0.00     0.050 A 
HETATM   16  C   UNL     1      43.766 -18.532   3.230  1.00  0.00     0.069 A 
HETATM   17  C   UNL     1      43.030 -17.652   2.437  1.00  0.00     0.039 A 
BRANCH  16  18
HETATM   18  O   UNL     1      44.166 -19.789   2.866  1.00  0.00    -0.356 OA
HETATM   19  C   UNL     1      43.453 -20.399   1.794  1.00  0.00     0.210 C 
ENDBRANCH  16  18
ENDBRANCH   7   8
ENDBRANCH   3   7
BRANCH   1  20
HETATM   20  C   UNL     1      42.918  -9.702   7.878  1.00  0.00     0.129 A 
HETATM   21  N   UNL     1      43.221  -9.266   9.154  1.00  0.00    -0.249 N 
HETATM   22  N   UNL     1      42.895  -7.972   9.360  1.00  0.00    -0.183 NA
HETATM   23  C   UNL     1      42.373  -7.581   8.199  1.00  0.00     0.142 A 
HETATM   24  C   UNL     1      42.364  -8.611   7.245  1.00  0.00     0.071 A 
BRANCH  21  25
HETATM   25  C   UNL     1      43.801 -10.011  10.275  1.00  0.00     0.111 C 
HETATM   26  C   UNL     1      45.290  -9.677  10.413  1.00  0.00     0.035 C 
BRANCH  25  27
HETATM   27  C   UNL     1      42.994  -9.851  11.593  1.00  0.00     0.002 C 
HETATM   28  C   UNL     1      43.409  -8.593  12.367  1.00  0.00     0.011 C 
HETATM   29  C   UNL     1      41.483  -9.795  11.333  1.00  0.00     0.011 C 
ENDBRANCH  25  27
ENDBRANCH  21  25
ENDBRANCH   1  20
TORSDOF 6
ENDMDL
MODEL 8
REMARK VINA RESULT:      -7.3      4.891      8.338
REMARK  6 active torsions:
REMARK  status: ('A' for Active; 'I' for Inactive)
REMARK    1  A    between atoms: C_2  and  N_3 
REMARK    2  A    between atoms: C_2  and  C_25 
REMARK    3  A    between atoms: C_7  and  N_8 
REMARK       I    between atoms: N_8  and  C_9 
REMARK       I    between atoms: C_9  and  N_10 
REMARK    4  A    between atoms: N_10  and  C_11 
REMARK    5  A    between atoms: C_11  and  C_12 
REMARK    6  A    between atoms: C_20  and  O_21 
ROOT
HETATM    1  N   UNL     1      43.336 -13.756   5.911  1.00  0.00    -0.293 N 
HETATM    2  C   UNL     1      43.204 -12.425   5.442  1.00  0.00     0.322 C 
HETATM    3  N   UNL     1      44.256 -11.624   5.753  1.00  0.00    -0.337 N 
HETATM    4  O   UNL     1      42.261 -12.043   4.773  1.00  0.00    -0.247 OA
HETATM    5  H   UNL     1      44.229 -14.036   6.283  1.00  0.00     0.172 HD
HETATM    6  H   UNL     1      44.078 -10.677   5.439  1.00  0.00     0.164 HD
ENDROOT
BRANCH   3   7
HETATM    7  C   UNL     1      45.115 -11.746   6.907  1.00  0.00     0.181 C 
BRANCH   7   8
HETATM    8  C   UNL     1      44.589 -10.925   8.027  1.00  0.00     0.028 A 
HETATM    9  N   UNL     1      43.270 -10.542   8.123  1.00  0.00    -0.357 N 
HETATM   10  H   UNL     1      42.546 -10.770   7.455  1.00  0.00     0.166 HD
HETATM   11  C   UNL     1      43.066  -9.803   9.264  1.00  0.00     0.043 A 
HETATM   12  C   UNL     1      44.281  -9.748   9.943  1.00  0.00    -0.005 A 
HETATM   13  C   UNL     1      41.904  -9.200   9.754  1.00  0.00     0.033 A 
HETATM   14  C   UNL     1      45.230 -10.453   9.156  1.00  0.00     0.040 A 
HETATM   15  C   UNL     1      44.336  -9.077  11.178  1.00  0.00     0.050 A 
HETATM   16  C   UNL     1      43.177  -8.491  11.706  1.00  0.00     0.069 A 
HETATM   17  C   UNL     1      41.983  -8.542  10.989  1.00  0.00     0.039 A 
BRANCH  16  18
HETATM   18  O   UNL     1      43.351  -7.891  12.924  1.00  0.00    -0.356 OA
HETATM   19  C   UNL     1      42.510  -8.340  13.981  1.00  0.00     0.210 C 
ENDBRANCH  16  18
ENDBRANCH   7   8
ENDBRANCH   3   7
BRANCH   1  20
HETATM   20  C   UNL     1      42.333 -14.715   5.817  1.00  0.00     0.129 A 
HETATM   21  N   UNL     1      42.354 -15.863   5.048  1.00  0.00    -0.249 N 
HETATM   22  N   UNL     1      41.239 -16.611   5.187  1.00  0.00    -0.183 NA
HETATM   23  C   UNL     1      40.495 -15.926   6.053  1.00  0.00     0.142 A 
HETATM   24  C   UNL     1      41.124 -14.744   6.478  1.00  0.00     0.071 A 
BRANCH  21  25
HETATM   25  C   UNL     1      43.382 -16.336   4.116  1.00  0.00     0.111 C 
HETATM   26  C   UNL     1      44.223 -17.434   4.776  1.00  0.00     0.035 C 
BRANCH  25  27
HETATM   27  C   UNL     1      42.809 -16.728   2.727  1.00  0.00     0.002 C 
HETATM   28  C   UNL     1      43.409 -15.875   1.602  1.00  0.00     0.011 C 
HETATM   29  C   UNL     1      43.050 -18.208   2.407  1.00  0.00     0.011 C 
ENDBRANCH  25  27
ENDBRANCH  21  25
ENDBRANCH   1  20
TORSDOF 6
ENDMDL
MODEL 9
REMARK VINA RESULT:      -7.2      3.853      6.317
REMARK  6 active torsions:
REMARK  status: ('A' for Active; 'I' for Inactive)
REMARK    1  A    between atoms: C_2  and  N_3 
REMARK    2  A    between atoms: C_2  and  C_25 
REMARK    3  A    between atoms: C_7  and  N_8 
REMARK       I    between atoms: N_8  and  C_9 
REMARK       I    between atoms: C_9  and  N_10 
REMARK    4  A    between atoms: N_10  and  C_11 
REMARK    5  A    between atoms: C_11  and  C_12 
REMARK    6  A    between atoms: C_20  and  O_21 
ROOT
HETATM    1  N   UNL     1      42.502 -11.655   6.939  1.00  0.00    -0.293 N 
HETATM    2  C   UNL     1      41.762 -11.249   5.801  1.00  0.00     0.322 C 
HETATM    3  N   UNL     1      40.517 -11.791   5.732  1.00  0.00    -0.337 N 
HETATM    4  O   UNL     1      42.177 -10.447   4.985  1.00  0.00    -0.247 OA
HETATM    5  H   UNL     1      42.016 -12.164   7.660  1.00  0.00     0.172 HD
HETATM    6  H   UNL     1      40.061 -11.506   4.873  1.00  0.00     0.164 HD
ENDROOT
BRANCH   3   7
HETATM    7  C   UNL     1      40.109 -13.070   6.260  1.00  0.00     0.181 C 
BRANCH   7   8
HETATM    8  C   UNL     1      40.735 -14.169   5.483  1.00  0.00     0.028 A 
HETATM    9  N   UNL     1      40.387 -14.464   4.184  1.00  0.00    -0.357 N 
HETATM   10  H   UNL     1      39.685 -13.977   3.643  1.00  0.00     0.166 HD
HETATM   11  C   UNL     1      41.135 -15.517   3.713  1.00  0.00     0.043 A 
HETATM   12  C   UNL     1      42.019 -15.881   4.725  1.00  0.00    -0.005 A 
HETATM   13  C   UNL     1      41.111 -16.158   2.471  1.00  0.00     0.033 A 
HETATM   14  C   UNL     1      41.757 -15.030   5.833  1.00  0.00     0.040 A 
HETATM   15  C   UNL     1      42.935 -16.920   4.483  1.00  0.00     0.050 A 
HETATM   16  C   UNL     1      42.952 -17.558   3.235  1.00  0.00     0.069 A 
HETATM   17  C   UNL     1      42.036 -17.187   2.251  1.00  0.00     0.039 A 
BRANCH  16  18
HETATM   18  O   UNL     1      43.904 -18.534   3.111  1.00  0.00    -0.356 OA
HETATM   19  C   UNL     1      44.526 -18.973   4.314  1.00  0.00     0.210 C 
ENDBRANCH  16  18
ENDBRANCH   7   8
ENDBRANCH   3   7
BRANCH   1  20
HETATM   20  C   UNL     1      43.837 -11.327   7.153  1.00  0.00     0.129 A 
HETATM   21  N   UNL     1      44.356 -10.634   8.230  1.00  0.00    -0.249 N 
HETATM   22  N   UNL     1      45.698 -10.491   8.168  1.00  0.00    -0.183 NA
HETATM   23  C   UNL     1      46.036 -11.100   7.033  1.00  0.00     0.142 A 
HETATM   24  C   UNL     1      44.923 -11.637   6.365  1.00  0.00     0.071 A 
BRANCH  21  25
HETATM   25  C   UNL     1      43.658 -10.031   9.369  1.00  0.00     0.111 C 
HETATM   26  C   UNL     1      44.628  -9.842  10.540  1.00  0.00     0.035 C 
BRANCH  25  27
HETATM   27  C   UNL     1      42.869  -8.748   8.989  1.00  0.00     0.002 C 
HETATM   28  C   UNL     1      41.731  -8.465   9.978  1.00  0.00     0.011 C 
HETATM   29  C   UNL     1      43.781  -7.517   8.921  1.00  0.00     0.011 C 
ENDBRANCH  25  27
ENDBRANCH  21  25
ENDBRANCH   1  20
TORSDOF 6
ENDMDL
MODEL 10
REMARK VINA RESULT:      -7.1      3.467      5.423
REMARK  6 active torsions:
REMARK  status: ('A' for Active; 'I' for Inactive)
REMARK    1  A    between atoms: C_2  and  N_3 
REMARK    2  A    between atoms: C_2  and  C_25 
REMARK    3  A    between atoms: C_7  and  N_8 
REMARK       I    between atoms: N_8  and  C_9 
REMARK       I    between atoms: C_9  and  N_10 
REMARK    4  A    between atoms: N_10  and  C_11 
REMARK    5  A    between atoms: C_11  and  C_12 
REMARK    6  A    between atoms: C_20  and  O_21 
ROOT
HETATM    1  N   UNL     1      42.340 -11.334   5.963  1.00  0.00    -0.293 N 
HETATM    2  C   UNL     1      41.165 -12.111   5.812  1.00  0.00     0.322 C 
HETATM    3  N   UNL     1      41.343 -13.244   5.082  1.00  0.00    -0.337 N 
HETATM    4  O   UNL     1      40.103 -11.824   6.332  1.00  0.00    -0.247 OA
HETATM    5  H   UNL     1      43.214 -11.740   5.667  1.00  0.00     0.172 HD
HETATM    6  H   UNL     1      40.460 -13.725   4.965  1.00  0.00     0.164 HD
ENDROOT
BRANCH   3   7
HETATM    7  C   UNL     1      42.303 -13.438   4.022  1.00  0.00     0.181 C 
BRANCH   7   8
HETATM    8  C   UNL     1      42.735 -14.857   3.974  1.00  0.00     0.028 A 
HETATM    9  N   UNL     1      43.207 -15.536   5.075  1.00  0.00    -0.357 N 
HETATM   10  H   UNL     1      43.308 -15.146   6.003  1.00  0.00     0.166 HD
HETATM   11  C   UNL     1      43.519 -16.834   4.743  1.00  0.00     0.043 A 
HETATM   12  C   UNL     1      43.197 -17.004   3.399  1.00  0.00    -0.005 A 
HETATM   13  C   UNL     1      44.039 -17.867   5.527  1.00  0.00     0.033 A 
HETATM   14  C   UNL     1      42.709 -15.757   2.925  1.00  0.00     0.040 A 
HETATM   15  C   UNL     1      43.385 -18.269   2.813  1.00  0.00     0.050 A 
HETATM   16  C   UNL     1      43.876 -19.330   3.587  1.00  0.00     0.069 A 
HETATM   17  C   UNL     1      44.212 -19.119   4.923  1.00  0.00     0.039 A 
BRANCH  16  18
HETATM   18  O   UNL     1      43.990 -20.516   2.913  1.00  0.00    -0.356 OA
HETATM   19  C   UNL     1      43.557 -20.522   1.557  1.00  0.00     0.210 C 
ENDBRANCH  16  18
ENDBRANCH   7   8
ENDBRANCH   3   7
BRANCH   1  20
HETATM   20  C   UNL     1      42.370 -10.080   6.562  1.00  0.00     0.129 A 
HETATM   21  N   UNL     1      43.080  -9.718   7.691  1.00  0.00    -0.249 N 
HETATM   22  N   UNL     1      42.925  -8.417   8.017  1.00  0.00    -0.183 NA
HETATM   23  C   UNL     1      42.099  -7.945   7.085  1.00  0.00     0.142 A 
HETATM   24  C   UNL     1      41.724  -8.931   6.158  1.00  0.00     0.071 A 
BRANCH  21  25
HETATM   25  C   UNL     1      43.925 -10.543   8.560  1.00  0.00     0.111 C 
HETATM   26  C   UNL     1      45.205 -10.946   7.819  1.00  0.00     0.035 C 
BRANCH  25  27
HETATM   27  C   UNL     1      44.175  -9.901   9.951  1.00  0.00     0.002 C 
HETATM   28  C   UNL     1      43.602 -10.759  11.087  1.00  0.00     0.011 C 
HETATM   29  C   UNL     1      45.669  -9.670  10.213  1.00  0.00     0.011 C 
ENDBRANCH  25  27
ENDBRANCH  21  25
ENDBRANCH   1  20
TORSDOF 6
ENDMDL
