MODEL 1
REMARK VINA RESULT:      -8.2      0.000      0.000
REMARK  3 active torsions:
REMARK  status: ('A' for Active; 'I' for Inactive)
REMARK    1  A    between atoms: C_2  and  O_3 
REMARK    2  A    between atoms: O_3  and  C_4 
REMARK    3  A    between atoms: C_7  and  N_8 
REMARK       I    between atoms: N_8  and  C_9 
REMARK       I    between atoms: C_9  and  N_10 
ROOT
HETATM    1  N   UNL     1      40.936 -14.565   0.098  1.00  0.00    -0.309 N 
HETATM    2  C   UNL     1      40.802 -13.216  -0.140  1.00  0.00     0.323 C 
HETATM    3  N   UNL     1      40.215 -12.878  -1.354  1.00  0.00    -0.328 N 
HETATM    4  C   UNL     1      39.877 -11.459  -1.558  1.00  0.00     0.185 C 
HETATM    5  C   UNL     1      38.494 -11.397  -2.116  1.00  0.00     0.035 A 
HETATM    6  C   UNL     1      37.758 -12.447  -2.631  1.00  0.00    -0.020 A 
HETATM    7  C   UNL     1      38.309 -13.832  -2.660  1.00  0.00     0.061 C 
HETATM    8  C   UNL     1      39.841 -13.775  -2.472  1.00  0.00     0.132 C 
HETATM    9  N   UNL     1      37.732 -10.266  -2.197  1.00  0.00    -0.357 N 
HETATM   10  H   UNL     1      38.007  -9.345  -1.881  1.00  0.00     0.166 HD
HETATM   11  C   UNL     1      36.508 -10.564  -2.759  1.00  0.00     0.043 A 
HETATM   12  C   UNL     1      36.497 -11.934  -3.039  1.00  0.00    -0.001 A 
HETATM   13  C   UNL     1      35.417  -9.732  -3.030  1.00  0.00     0.030 A 
HETATM   14  C   UNL     1      34.282 -10.315  -3.602  1.00  0.00     0.002 A 
HETATM   15  C   UNL     1      34.242 -11.678  -3.889  1.00  0.00     0.001 A 
HETATM   16  C   UNL     1      35.342 -12.498  -3.613  1.00  0.00     0.014 A 
HETATM   17  O   UNL     1      41.155 -12.342   0.649  1.00  0.00    -0.247 OA
HETATM   18  H   UNL     1      40.619 -15.192  -0.616  1.00  0.00     0.170 HD
ENDROOT
BRANCH   1  19
HETATM   19  C   UNL     1      41.410 -15.198   1.269  1.00  0.00     0.036 A 
HETATM   20  C   UNL     1      42.737 -15.580   1.476  1.00  0.00     0.032 A 
HETATM   21  C   UNL     1      43.128 -16.158   2.688  1.00  0.00     0.039 A 
HETATM   22  C   UNL     1      42.198 -16.342   3.706  1.00  0.00     0.070 A 
HETATM   23  C   UNL     1      40.863 -16.018   3.498  1.00  0.00     0.039 A 
HETATM   24  C   UNL     1      40.475 -15.433   2.288  1.00  0.00     0.032 A 
BRANCH  22  25
HETATM   25  O   UNL     1      42.623 -16.922   4.862  1.00  0.00    -0.341 OA
BRANCH  25  26
HETATM   26  C   UNL     1      43.066 -16.048   5.925  1.00  0.00     0.057 C 
HETATM   27  C   UNL     1      42.108 -16.222   7.110  1.00  0.00     0.045 C 
HETATM   28  C   UNL     1      43.217 -14.555   5.577  1.00  0.00     0.045 C 
HETATM   29  C   UNL     1      44.450 -16.585   6.326  1.00  0.00     0.045 C 
ENDBRANCH  25  26
ENDBRANCH  22  25
ENDBRANCH   1  19
TORSDOF 3
ENDMDL
MODEL 2
REMARK VINA RESULT:      -8.1      3.623      9.593
REMARK  3 active torsions:
REMARK  status: ('A' for Active; 'I' for Inactive)
REMARK    1  A    between atoms: C_2  and  O_3 
REMARK    2  A    between atoms: O_3  and  C_4 
REMARK    3  A    between atoms: C_7  and  N_8 
REMARK       I    between atoms: N_8  and  C_9 
REMARK       I    between atoms: C_9  and  N_10 
ROOT
HETATM    1  N   UNL     1      40.296 -12.314   0.657  1.00  0.00    -0.309 N 
HETATM    2  C   UNL     1      40.815 -12.447   1.924  1.00  0.00     0.323 C 
HETATM    3  N   UNL     1      40.657 -13.699   2.508  1.00  0.00    -0.328 N 
HETATM    4  C   UNL     1      41.367 -13.938   3.775  1.00  0.00     0.185 C 
HETATM    5  C   UNL     1      42.029 -15.272   3.681  1.00  0.00     0.035 A 
HETATM    6  C   UNL     1      41.801 -16.247   2.729  1.00  0.00    -0.020 A 
HETATM    7  C   UNL     1      40.820 -16.032   1.627  1.00  0.00     0.061 C 
HETATM    8  C   UNL     1      39.888 -14.857   1.995  1.00  0.00     0.132 C 
HETATM    9  N   UNL     1      42.986 -15.734   4.540  1.00  0.00    -0.357 N 
HETATM   10  H   UNL     1      43.364 -15.228   5.330  1.00  0.00     0.166 HD
HETATM   11  C   UNL     1      43.384 -17.000   4.162  1.00  0.00     0.043 A 
HETATM   12  C   UNL     1      42.654 -17.345   3.020  1.00  0.00    -0.001 A 
HETATM   13  C   UNL     1      44.333 -17.853   4.735  1.00  0.00     0.030 A 
HETATM   14  C   UNL     1      44.545 -19.093   4.125  1.00  0.00     0.002 A 
HETATM   15  C   UNL     1      43.834 -19.463   2.985  1.00  0.00     0.001 A 
HETATM   16  C   UNL     1      42.886 -18.599   2.423  1.00  0.00     0.014 A 
HETATM   17  O   UNL     1      41.397 -11.545   2.526  1.00  0.00    -0.247 OA
HETATM   18  H   UNL     1      39.838 -13.111   0.262  1.00  0.00     0.170 HD
ENDROOT
BRANCH   1  19
HETATM   19  C   UNL     1      40.385 -11.198  -0.205  1.00  0.00     0.036 A 
HETATM   20  C   UNL     1      39.841  -9.942   0.072  1.00  0.00     0.032 A 
HETATM   21  C   UNL     1      40.019  -8.879  -0.819  1.00  0.00     0.039 A 
HETATM   22  C   UNL     1      40.756  -9.061  -1.985  1.00  0.00     0.070 A 
HETATM   23  C   UNL     1      41.259 -10.317  -2.303  1.00  0.00     0.039 A 
HETATM   24  C   UNL     1      41.086 -11.377  -1.407  1.00  0.00     0.032 A 
BRANCH  22  25
HETATM   25  O   UNL     1      40.890  -8.001  -2.828  1.00  0.00    -0.341 OA
BRANCH  25  26
HETATM   26  C   UNL     1      42.123  -7.250  -2.768  1.00  0.00     0.057 C 
HETATM   27  C   UNL     1      42.746  -7.249  -4.169  1.00  0.00     0.045 C 
HETATM   28  C   UNL     1      43.162  -7.706  -1.725  1.00  0.00     0.045 C 
HETATM   29  C   UNL     1      41.696  -5.815  -2.417  1.00  0.00     0.045 C 
ENDBRANCH  25  26
ENDBRANCH  22  25
ENDBRANCH   1  19
TORSDOF 3
ENDMDL
MODEL 3
REMARK VINA RESULT:      -8.0      6.816     11.387
REMARK  3 active torsions:
REMARK  status: ('A' for Active; 'I' for Inactive)
REMARK    1  A    between atoms: C_2  and  O_3 
REMARK    2  A    between atoms: O_3  and  C_4 
REMARK    3  A    between atoms: C_7  and  N_8 
REMARK       I    between atoms: N_8  and  C_9 
REMARK       I    between atoms: C_9  and  N_10 
ROOT
HETATM    1  N   UNL     1      42.877 -11.740   6.843  1.00  0.00    -0.309 N 
HETATM    2  C   UNL     1      43.787 -11.103   7.655  1.00  0.00     0.323 C 
HETATM    3  N   UNL     1      43.331  -9.942   8.269  1.00  0.00    -0.328 N 
HETATM    4  C   UNL     1      44.202  -9.342   9.293  1.00  0.00     0.185 C 
HETATM    5  C   UNL     1      43.351  -8.997  10.470  1.00  0.00     0.035 A 
HETATM    6  C   UNL     1      41.971  -8.959  10.514  1.00  0.00    -0.020 A 
HETATM    7  C   UNL     1      41.153  -9.299   9.314  1.00  0.00     0.061 C 
HETATM    8  C   UNL     1      42.044  -9.238   8.055  1.00  0.00     0.132 C 
HETATM    9  N   UNL     1      43.824  -8.667  11.708  1.00  0.00    -0.357 N 
HETATM   10  H   UNL     1      44.799  -8.626  11.976  1.00  0.00     0.166 HD
HETATM   11  C   UNL     1      42.770  -8.411  12.560  1.00  0.00     0.043 A 
HETATM   12  C   UNL     1      41.590  -8.592  11.832  1.00  0.00    -0.001 A 
HETATM   13  C   UNL     1      42.773  -8.045  13.910  1.00  0.00     0.030 A 
HETATM   14  C   UNL     1      41.537  -7.860  14.536  1.00  0.00     0.002 A 
HETATM   15  C   UNL     1      40.344  -8.036  13.836  1.00  0.00     0.001 A 
HETATM   16  C   UNL     1      40.356  -8.401  12.485  1.00  0.00     0.014 A 
HETATM   17  O   UNL     1      44.929 -11.510   7.858  1.00  0.00    -0.247 OA
HETATM   18  H   UNL     1      41.974 -11.320   6.745  1.00  0.00     0.170 HD
ENDROOT
BRANCH   1  19
HETATM   19  C   UNL     1      43.029 -12.973   6.168  1.00  0.00     0.036 A 
HETATM   20  C   UNL     1      43.104 -14.214   6.801  1.00  0.00     0.032 A 
HETATM   21  C   UNL     1      43.206 -15.389   6.049  1.00  0.00     0.039 A 
HETATM   22  C   UNL     1      43.217 -15.330   4.659  1.00  0.00     0.070 A 
HETATM   23  C   UNL     1      43.198 -14.099   4.014  1.00  0.00     0.039 A 
HETATM   24  C   UNL     1      43.089 -12.926   4.767  1.00  0.00     0.032 A 
BRANCH  22  25
HETATM   25  O   UNL     1      43.332 -16.498   3.971  1.00  0.00    -0.341 OA
BRANCH  25  26
HETATM   26  C   UNL     1      42.560 -16.639   2.757  1.00  0.00     0.057 C 
HETATM   27  C   UNL     1      43.281 -15.866   1.646  1.00  0.00     0.045 C 
HETATM   28  C   UNL     1      41.080 -16.216   2.825  1.00  0.00     0.045 C 
HETATM   29  C   UNL     1      42.611 -18.140   2.427  1.00  0.00     0.045 C 
ENDBRANCH  25  26
ENDBRANCH  22  25
ENDBRANCH   1  19
TORSDOF 3
ENDMDL
MODEL 4
REMARK VINA RESULT:      -7.9      7.041     11.557
REMARK  3 active torsions:
REMARK  status: ('A' for Active; 'I' for Inactive)
REMARK    1  A    between atoms: C_2  and  O_3 
REMARK    2  A    between atoms: O_3  and  C_4 
REMARK    3  A    between atoms: C_7  and  N_8 
REMARK       I    between atoms: N_8  and  C_9 
REMARK       I    between atoms: C_9  and  N_10 
ROOT
HETATM    1  N   UNL     1      43.225 -10.542   6.493  1.00  0.00    -0.309 N 
HETATM    2  C   UNL     1      43.855 -10.816   7.685  1.00  0.00     0.323 C 
HETATM    3  N   UNL     1      43.879  -9.773   8.603  1.00  0.00    -0.328 N 
HETATM    4  C   UNL     1      44.367 -10.088   9.956  1.00  0.00     0.185 C 
HETATM    5  C   UNL     1      43.418  -9.480  10.935  1.00  0.00     0.035 A 
HETATM    6  C   UNL     1      42.431  -8.550  10.668  1.00  0.00    -0.020 A 
HETATM    7  C   UNL     1      42.200  -8.050   9.282  1.00  0.00     0.061 C 
HETATM    8  C   UNL     1      43.433  -8.373   8.411  1.00  0.00     0.132 C 
HETATM    9  N   UNL     1      43.380  -9.765  12.271  1.00  0.00    -0.357 N 
HETATM   10  H   UNL     1      43.979 -10.425  12.750  1.00  0.00     0.166 HD
HETATM   11  C   UNL     1      42.383  -9.032  12.879  1.00  0.00     0.043 A 
HETATM   12  C   UNL     1      41.767  -8.260  11.889  1.00  0.00    -0.001 A 
HETATM   13  C   UNL     1      41.978  -9.002  14.218  1.00  0.00     0.030 A 
HETATM   14  C   UNL     1      40.914  -8.161  14.556  1.00  0.00     0.002 A 
HETATM   15  C   UNL     1      40.280  -7.381  13.590  1.00  0.00     0.001 A 
HETATM   16  C   UNL     1      40.696  -7.421  12.255  1.00  0.00     0.014 A 
HETATM   17  O   UNL     1      44.363 -11.903   7.958  1.00  0.00    -0.247 OA
HETATM   18  H   UNL     1      42.849  -9.622   6.372  1.00  0.00     0.170 HD
ENDROOT
BRANCH   1  19
HETATM   19  C   UNL     1      42.973 -11.426   5.419  1.00  0.00     0.036 A 
HETATM   20  C   UNL     1      43.795 -11.559   4.299  1.00  0.00     0.032 A 
HETATM   21  C   UNL     1      43.494 -12.497   3.305  1.00  0.00     0.039 A 
HETATM   22  C   UNL     1      42.378 -13.317   3.434  1.00  0.00     0.070 A 
HETATM   23  C   UNL     1      41.520 -13.161   4.516  1.00  0.00     0.039 A 
HETATM   24  C   UNL     1      41.826 -12.229   5.512  1.00  0.00     0.032 A 
BRANCH  22  25
HETATM   25  O   UNL     1      42.118 -14.204   2.435  1.00  0.00    -0.341 OA
BRANCH  25  26
HETATM   26  C   UNL     1      42.431 -15.594   2.676  1.00  0.00     0.057 C 
HETATM   27  C   UNL     1      41.117 -16.384   2.657  1.00  0.00     0.045 C 
HETATM   28  C   UNL     1      43.225 -15.914   3.957  1.00  0.00     0.045 C 
HETATM   29  C   UNL     1      43.282 -16.023   1.469  1.00  0.00     0.045 C 
ENDBRANCH  25  26
ENDBRANCH  22  25
ENDBRANCH   1  19
TORSDOF 3
ENDMDL
MODEL 5
REMARK VINA RESULT:      -7.8      6.660     10.978
REMARK  3 active torsions:
REMARK  status: ('A' for Active; 'I' for Inactive)
REMARK    1  A    between atoms: C_2  and  O_3 
REMARK    2  A    between atoms: O_3  and  C_4 
REMARK    3  A    between atoms: C_7  and  N_8 
REMARK       I    between atoms: N_8  and  C_9 
REMARK       I    between atoms: C_9  and  N_10 
ROOT
HETATM    1  N   UNL     1      40.653 -11.565   6.405  1.00  0.00    -0.309 N 
HETATM    2  C   UNL     1      41.630 -10.658   6.748  1.00  0.00     0.323 C 
HETATM    3  N   UNL     1      41.250  -9.689   7.669  1.00  0.00    -0.328 N 
HETATM    4  C   UNL     1      42.316  -8.827   8.207  1.00  0.00     0.185 C 
HETATM    5  C   UNL     1      42.133  -8.746   9.686  1.00  0.00     0.035 A 
HETATM    6  C   UNL     1      41.025  -9.144  10.409  1.00  0.00    -0.020 A 
HETATM    7  C   UNL     1      39.840  -9.746   9.733  1.00  0.00     0.061 C 
HETATM    8  C   UNL     1      39.900  -9.430   8.222  1.00  0.00     0.132 C 
HETATM    9  N   UNL     1      43.060  -8.261  10.564  1.00  0.00    -0.357 N 
HETATM   10  H   UNL     1      43.977  -7.910  10.321  1.00  0.00     0.166 HD
HETATM   11  C   UNL     1      42.570  -8.335  11.851  1.00  0.00     0.043 A 
HETATM   12  C   UNL     1      41.290  -8.892  11.782  1.00  0.00    -0.001 A 
HETATM   13  C   UNL     1      43.164  -7.962  13.062  1.00  0.00     0.030 A 
HETATM   14  C   UNL     1      42.430  -8.165  14.235  1.00  0.00     0.002 A 
HETATM   15  C   UNL     1      41.152  -8.720  14.196  1.00  0.00     0.001 A 
HETATM   16  C   UNL     1      40.571  -9.088  12.977  1.00  0.00     0.014 A 
HETATM   17  O   UNL     1      42.775 -10.681   6.299  1.00  0.00    -0.247 OA
HETATM   18  H   UNL     1      39.752 -11.452   6.827  1.00  0.00     0.170 HD
ENDROOT
BRANCH   1  19
HETATM   19  C   UNL     1      40.774 -12.698   5.569  1.00  0.00     0.036 A 
HETATM   20  C   UNL     1      40.782 -12.652   4.175  1.00  0.00     0.032 A 
HETATM   21  C   UNL     1      40.956 -13.820   3.426  1.00  0.00     0.039 A 
HETATM   22  C   UNL     1      41.138 -15.040   4.069  1.00  0.00     0.070 A 
HETATM   23  C   UNL     1      41.079 -15.113   5.456  1.00  0.00     0.039 A 
HETATM   24  C   UNL     1      40.913 -13.943   6.203  1.00  0.00     0.032 A 
BRANCH  22  25
HETATM   25  O   UNL     1      41.289 -16.152   3.299  1.00  0.00    -0.341 OA
BRANCH  25  26
HETATM   26  C   UNL     1      42.626 -16.492   2.868  1.00  0.00     0.057 C 
HETATM   27  C   UNL     1      43.530 -16.517   4.107  1.00  0.00     0.045 C 
HETATM   28  C   UNL     1      43.248 -15.604   1.774  1.00  0.00     0.045 C 
HETATM   29  C   UNL     1      42.511 -17.921   2.313  1.00  0.00     0.045 C 
ENDBRANCH  25  26
ENDBRANCH  22  25
ENDBRANCH   1  19
TORSDOF 3
ENDMDL
MODEL 6
REMARK VINA RESULT:      -7.7      7.086     10.546
REMARK  3 active torsions:
REMARK  status: ('A' for Active; 'I' for Inactive)
REMARK    1  A    between atoms: C_2  and  O_3 
REMARK    2  A    between atoms: O_3  and  C_4 
REMARK    3  A    between atoms: C_7  and  N_8 
REMARK       I    between atoms: N_8  and  C_9 
REMARK       I    between atoms: C_9  and  N_10 
ROOT
HETATM    1  N   UNL     1      43.137 -10.105   8.536  1.00  0.00    -0.309 N 
HETATM    2  C   UNL     1      42.885 -10.016   7.186  1.00  0.00     0.323 C 
HETATM    3  N   UNL     1      43.503 -10.980   6.397  1.00  0.00    -0.328 N 
HETATM    4  C   UNL     1      43.103 -11.038   4.981  1.00  0.00     0.185 C 
HETATM    5  C   UNL     1      42.869 -12.471   4.633  1.00  0.00     0.035 A 
HETATM    6  C   UNL     1      43.232 -13.577   5.378  1.00  0.00    -0.020 A 
HETATM    7  C   UNL     1      43.919 -13.427   6.693  1.00  0.00     0.061 C 
HETATM    8  C   UNL     1      44.497 -12.000   6.807  1.00  0.00     0.132 C 
HETATM    9  N   UNL     1      42.242 -12.909   3.501  1.00  0.00    -0.357 N 
HETATM   10  H   UNL     1      41.856 -12.321   2.775  1.00  0.00     0.166 HD
HETATM   11  C   UNL     1      42.192 -14.288   3.497  1.00  0.00     0.043 A 
HETATM   12  C   UNL     1      42.806 -14.733   4.672  1.00  0.00    -0.001 A 
HETATM   13  C   UNL     1      41.646 -15.165   2.554  1.00  0.00     0.030 A 
HETATM   14  C   UNL     1      41.727 -16.536   2.818  1.00  0.00     0.002 A 
HETATM   15  C   UNL     1      42.331 -17.008   3.982  1.00  0.00     0.001 A 
HETATM   16  C   UNL     1      42.875 -16.119   4.916  1.00  0.00     0.014 A 
HETATM   17  O   UNL     1      42.158  -9.164   6.678  1.00  0.00    -0.247 OA
HETATM   18  H   UNL     1      43.748 -10.837   8.843  1.00  0.00     0.170 HD
ENDROOT
BRANCH   1  19
HETATM   19  C   UNL     1      42.583  -9.326   9.576  1.00  0.00     0.036 A 
HETATM   20  C   UNL     1      41.233  -9.331   9.932  1.00  0.00     0.032 A 
HETATM   21  C   UNL     1      40.779  -8.563  11.009  1.00  0.00     0.039 A 
HETATM   22  C   UNL     1      41.676  -7.797  11.747  1.00  0.00     0.070 A 
HETATM   23  C   UNL     1      43.014  -7.738  11.374  1.00  0.00     0.039 A 
HETATM   24  C   UNL     1      43.467  -8.513  10.301  1.00  0.00     0.032 A 
BRANCH  22  25
HETATM   25  O   UNL     1      41.186  -7.055  12.777  1.00  0.00    -0.341 OA
BRANCH  25  26
HETATM   26  C   UNL     1      41.439  -7.525  14.120  1.00  0.00     0.057 C 
HETATM   27  C   UNL     1      42.817  -7.010  14.550  1.00  0.00     0.045 C 
HETATM   28  C   UNL     1      41.344  -9.046  14.351  1.00  0.00     0.045 C 
HETATM   29  C   UNL     1      40.366  -6.845  14.986  1.00  0.00     0.045 C 
ENDBRANCH  25  26
ENDBRANCH  22  25
ENDBRANCH   1  19
TORSDOF 3
ENDMDL
MODEL 7
REMARK VINA RESULT:      -7.5     16.893     20.482
REMARK  3 active torsions:
REMARK  status: ('A' for Active; 'I' for Inactive)
REMARK    1  A    between atoms: C_2  and  O_3 
REMARK    2  A    between atoms: O_3  and  C_4 
REMARK    3  A    between atoms: C_7  and  N_8 
REMARK       I    between atoms: N_8  and  C_9 
REMARK       I    between atoms: C_9  and  N_10 
ROOT
HETATM    1  N   UNL     1      45.052 -29.817  -0.697  1.00  0.00    -0.309 N 
HETATM    2  C   UNL     1      46.150 -29.075  -0.324  1.00  0.00     0.323 C 
HETATM    3  N   UNL     1      46.390 -29.007   1.043  1.00  0.00    -0.328 N 
HETATM    4  C   UNL     1      47.658 -28.392   1.468  1.00  0.00     0.185 C 
HETATM    5  C   UNL     1      48.264 -29.272   2.510  1.00  0.00     0.035 A 
HETATM    6  C   UNL     1      47.647 -30.309   3.183  1.00  0.00    -0.020 A 
HETATM    7  C   UNL     1      46.231 -30.678   2.896  1.00  0.00     0.061 C 
HETATM    8  C   UNL     1      45.543 -29.516   2.148  1.00  0.00     0.132 C 
HETATM    9  N   UNL     1      49.552 -29.183   2.958  1.00  0.00    -0.357 N 
HETATM   10  H   UNL     1      50.245 -28.522   2.633  1.00  0.00     0.166 HD
HETATM   11  C   UNL     1      49.782 -30.147   3.917  1.00  0.00     0.043 A 
HETATM   12  C   UNL     1      48.598 -30.874   4.074  1.00  0.00    -0.001 A 
HETATM   13  C   UNL     1      50.944 -30.434   4.643  1.00  0.00     0.030 A 
HETATM   14  C   UNL     1      50.895 -31.493   5.555  1.00  0.00     0.002 A 
HETATM   15  C   UNL     1      49.729 -32.235   5.731  1.00  0.00     0.001 A 
HETATM   16  C   UNL     1      48.574 -31.937   4.998  1.00  0.00     0.014 A 
HETATM   17  O   UNL     1      46.897 -28.509  -1.119  1.00  0.00    -0.247 OA
HETATM   18  H   UNL     1      44.508 -30.233   0.034  1.00  0.00     0.170 HD
ENDROOT
BRANCH   1  19
HETATM   19  C   UNL     1      44.619 -30.131  -2.005  1.00  0.00     0.036 A 
HETATM   20  C   UNL     1      44.277 -29.183  -2.971  1.00  0.00     0.032 A 
HETATM   21  C   UNL     1      43.905 -29.584  -4.259  1.00  0.00     0.039 A 
HETATM   22  C   UNL     1      43.889 -30.934  -4.592  1.00  0.00     0.070 A 
HETATM   23  C   UNL     1      44.174 -31.893  -3.628  1.00  0.00     0.039 A 
HETATM   24  C   UNL     1      44.553 -31.491  -2.343  1.00  0.00     0.032 A 
BRANCH  22  25
HETATM   25  O   UNL     1      43.506 -31.276  -5.852  1.00  0.00    -0.341 OA
BRANCH  25  26
HETATM   26  C   UNL     1      44.487 -31.918  -6.698  1.00  0.00     0.057 C 
HETATM   27  C   UNL     1      44.176 -33.419  -6.727  1.00  0.00     0.045 C 
HETATM   28  C   UNL     1      45.967 -31.688  -6.340  1.00  0.00     0.045 C 
HETATM   29  C   UNL     1      44.241 -31.337  -8.100  1.00  0.00     0.045 C 
ENDBRANCH  25  26
ENDBRANCH  22  25
ENDBRANCH   1  19
TORSDOF 3
ENDMDL
MODEL 8
REMARK VINA RESULT:      -7.3     16.311     19.018
REMARK  3 active torsions:
REMARK  status: ('A' for Active; 'I' for Inactive)
REMARK    1  A    between atoms: C_2  and  O_3 
REMARK    2  A    between atoms: O_3  and  C_4 
REMARK    3  A    between atoms: C_7  and  N_8 
REMARK       I    between atoms: N_8  and  C_9 
REMARK       I    between atoms: C_9  and  N_10 
ROOT
HETATM    1  N   UNL     1      41.962 -32.156   3.113  1.00  0.00    -0.309 N 
HETATM    2  C   UNL     1      42.597 -30.946   2.953  1.00  0.00     0.323 C 
HETATM    3  N   UNL     1      43.650 -30.937   2.045  1.00  0.00    -0.328 N 
HETATM    4  C   UNL     1      44.222 -29.624   1.702  1.00  0.00     0.185 C 
HETATM    5  C   UNL     1      44.378 -29.570   0.218  1.00  0.00     0.035 A 
HETATM    6  C   UNL     1      44.290 -30.629  -0.666  1.00  0.00    -0.020 A 
HETATM    7  C   UNL     1      43.997 -32.010  -0.186  1.00  0.00     0.061 C 
HETATM    8  C   UNL     1      44.256 -32.087   1.334  1.00  0.00     0.132 C 
HETATM    9  N   UNL     1      44.628 -28.436  -0.502  1.00  0.00    -0.357 N 
HETATM   10  H   UNL     1      44.728 -27.505  -0.120  1.00  0.00     0.166 HD
HETATM   11  C   UNL     1      44.708 -28.742  -1.845  1.00  0.00     0.043 A 
HETATM   12  C   UNL     1      44.495 -30.118  -1.975  1.00  0.00    -0.001 A 
HETATM   13  C   UNL     1      44.942 -27.909  -2.944  1.00  0.00     0.030 A 
HETATM   14  C   UNL     1      44.958 -28.496  -4.213  1.00  0.00     0.002 A 
HETATM   15  C   UNL     1      44.747 -29.865  -4.373  1.00  0.00     0.001 A 
HETATM   16  C   UNL     1      44.514 -30.686  -3.264  1.00  0.00     0.014 A 
HETATM   17  O   UNL     1      42.274 -29.918   3.546  1.00  0.00    -0.247 OA
HETATM   18  H   UNL     1      42.310 -32.932   2.583  1.00  0.00     0.170 HD
ENDROOT
BRANCH   1  19
HETATM   19  C   UNL     1      40.819 -32.442   3.892  1.00  0.00     0.036 A 
HETATM   20  C   UNL     1      40.736 -32.247   5.272  1.00  0.00     0.032 A 
HETATM   21  C   UNL     1      39.546 -32.511   5.956  1.00  0.00     0.039 A 
HETATM   22  C   UNL     1      38.426 -32.957   5.262  1.00  0.00     0.070 A 
HETATM   23  C   UNL     1      38.505 -33.208   3.898  1.00  0.00     0.039 A 
HETATM   24  C   UNL     1      39.694 -32.936   3.214  1.00  0.00     0.032 A 
BRANCH  22  25
HETATM   25  O   UNL     1      37.294 -33.215   5.973  1.00  0.00    -0.341 OA
BRANCH  25  26
HETATM   26  C   UNL     1      37.121 -34.551   6.495  1.00  0.00     0.057 C 
HETATM   27  C   UNL     1      36.524 -34.436   7.902  1.00  0.00     0.045 C 
HETATM   28  C   UNL     1      38.370 -35.452   6.519  1.00  0.00     0.045 C 
HETATM   29  C   UNL     1      36.081 -35.205   5.570  1.00  0.00     0.045 C 
ENDBRANCH  25  26
ENDBRANCH  22  25
ENDBRANCH   1  19
TORSDOF 3
ENDMDL
MODEL 9
REMARK VINA RESULT:      -6.6     17.204     19.920
REMARK  3 active torsions:
REMARK  status: ('A' for Active; 'I' for Inactive)
REMARK    1  A    between atoms: C_2  and  O_3 
REMARK    2  A    between atoms: O_3  and  C_4 
REMARK    3  A    between atoms: C_7  and  N_8 
REMARK       I    between atoms: N_8  and  C_9 
REMARK       I    between atoms: C_9  and  N_10 
ROOT
HETATM    1  N   UNL     1      48.291 -30.303  -0.573  1.00  0.00    -0.309 N 
HETATM    2  C   UNL     1      47.780 -29.601   0.495  1.00  0.00     0.323 C 
HETATM    3  N   UNL     1      46.421 -29.318   0.430  1.00  0.00    -0.328 N 
HETATM    4  C   UNL     1      45.801 -28.745   1.637  1.00  0.00     0.185 C 
HETATM    5  C   UNL     1      44.525 -29.479   1.885  1.00  0.00     0.035 A 
HETATM    6  C   UNL     1      43.873 -30.330   1.013  1.00  0.00    -0.020 A 
HETATM    7  C   UNL     1      44.433 -30.626  -0.337  1.00  0.00     0.061 C 
HETATM    8  C   UNL     1      45.488 -29.557  -0.697  1.00  0.00     0.132 C 
HETATM    9  N   UNL     1      43.800 -29.419   3.041  1.00  0.00    -0.357 N 
HETATM   10  H   UNL     1      44.043 -28.883   3.864  1.00  0.00     0.166 HD
HETATM   11  C   UNL     1      42.682 -30.220   2.935  1.00  0.00     0.043 A 
HETATM   12  C   UNL     1      42.706 -30.808   1.667  1.00  0.00    -0.001 A 
HETATM   13  C   UNL     1      41.664 -30.471   3.862  1.00  0.00     0.030 A 
HETATM   14  C   UNL     1      40.644 -31.349   3.485  1.00  0.00     0.002 A 
HETATM   15  C   UNL     1      40.644 -31.952   2.228  1.00  0.00     0.001 A 
HETATM   16  C   UNL     1      41.668 -31.691   1.311  1.00  0.00     0.014 A 
HETATM   17  O   UNL     1      48.448 -29.243   1.463  1.00  0.00    -0.247 OA
HETATM   18  H   UNL     1      47.658 -30.541  -1.312  1.00  0.00     0.170 HD
ENDROOT
BRANCH   1  19
HETATM   19  C   UNL     1      49.603 -30.802  -0.738  1.00  0.00     0.036 A 
HETATM   20  C   UNL     1      50.195 -31.753   0.095  1.00  0.00     0.032 A 
HETATM   21  C   UNL     1      51.483 -32.226  -0.172  1.00  0.00     0.039 A 
HETATM   22  C   UNL     1      52.181 -31.763  -1.282  1.00  0.00     0.070 A 
HETATM   23  C   UNL     1      51.629 -30.777  -2.091  1.00  0.00     0.039 A 
HETATM   24  C   UNL     1      50.337 -30.310  -1.827  1.00  0.00     0.032 A 
BRANCH  22  25
HETATM   25  O   UNL     1      53.438 -32.242  -1.493  1.00  0.00    -0.341 OA
BRANCH  25  26
HETATM   26  C   UNL     1      53.578 -33.403  -2.342  1.00  0.00     0.057 C 
HETATM   27  C   UNL     1      54.570 -33.056  -3.458  1.00  0.00     0.045 C 
HETATM   28  C   UNL     1      52.283 -33.982  -2.943  1.00  0.00     0.045 C 
HETATM   29  C   UNL     1      54.206 -34.478  -1.440  1.00  0.00     0.045 C 
ENDBRANCH  25  26
ENDBRANCH  22  25
ENDBRANCH   1  19
TORSDOF 3
ENDMDL
MODEL 10
REMARK VINA RESULT:      -6.6      6.827     10.254
REMARK  3 active torsions:
REMARK  status: ('A' for Active; 'I' for Inactive)
REMARK    1  A    between atoms: C_2  and  O_3 
REMARK    2  A    between atoms: O_3  and  C_4 
REMARK    3  A    between atoms: C_7  and  N_8 
REMARK       I    between atoms: N_8  and  C_9 
REMARK       I    between atoms: C_9  and  N_10 
ROOT
HETATM    1  N   UNL     1      40.735 -11.702   6.539  1.00  0.00    -0.309 N 
HETATM    2  C   UNL     1      40.839 -10.384   6.158  1.00  0.00     0.323 C 
HETATM    3  N   UNL     1      40.291  -9.460   7.040  1.00  0.00    -0.328 N 
HETATM    4  C   UNL     1      40.555  -8.038   6.765  1.00  0.00     0.185 C 
HETATM    5  C   UNL     1      40.956  -7.393   8.051  1.00  0.00     0.035 A 
HETATM    6  C   UNL     1      40.829  -7.923   9.321  1.00  0.00    -0.020 A 
HETATM    7  C   UNL     1      40.259  -9.284   9.534  1.00  0.00     0.061 C 
HETATM    8  C   UNL     1      39.497  -9.722   8.264  1.00  0.00     0.132 C 
HETATM    9  N   UNL     1      41.526  -6.157   8.162  1.00  0.00    -0.357 N 
HETATM   10  H   UNL     1      41.753  -5.540   7.393  1.00  0.00     0.166 HD
HETATM   11  C   UNL     1      41.772  -5.872   9.489  1.00  0.00     0.043 A 
HETATM   12  C   UNL     1      41.344  -6.971  10.240  1.00  0.00    -0.001 A 
HETATM   13  C   UNL     1      42.343  -4.736  10.074  1.00  0.00     0.030 A 
HETATM   14  C   UNL     1      42.484  -4.723  11.465  1.00  0.00     0.002 A 
HETATM   15  C   UNL     1      42.069  -5.805  12.239  1.00  0.00     0.001 A 
HETATM   16  C   UNL     1      41.498  -6.934  11.640  1.00  0.00     0.014 A 
HETATM   17  O   UNL     1      41.384 -10.011   5.120  1.00  0.00    -0.247 OA
HETATM   18  H   UNL     1      40.267 -11.895   7.403  1.00  0.00     0.170 HD
ENDROOT
BRANCH   1  19
HETATM   19  C   UNL     1      41.271 -12.839   5.892  1.00  0.00     0.036 A 
HETATM   20  C   UNL     1      42.632 -13.052   5.672  1.00  0.00     0.032 A 
HETATM   21  C   UNL     1      43.078 -14.231   5.067  1.00  0.00     0.039 A 
HETATM   22  C   UNL     1      42.165 -15.211   4.692  1.00  0.00     0.070 A 
HETATM   23  C   UNL     1      40.802 -14.993   4.855  1.00  0.00     0.039 A 
HETATM   24  C   UNL     1      40.359 -13.817   5.467  1.00  0.00     0.032 A 
BRANCH  22  25
HETATM   25  O   UNL     1      42.645 -16.335   4.094  1.00  0.00    -0.341 OA
BRANCH  25  26
HETATM   26  C   UNL     1      42.439 -16.475   2.670  1.00  0.00     0.057 C 
HETATM   27  C   UNL     1      43.399 -15.515   1.957  1.00  0.00     0.045 C 
HETATM   28  C   UNL     1      41.002 -16.271   2.154  1.00  0.00     0.045 C 
HETATM   29  C   UNL     1      42.859 -17.919   2.350  1.00  0.00     0.045 C 
ENDBRANCH  25  26
ENDBRANCH  22  25
ENDBRANCH   1  19
TORSDOF 3
ENDMDL
