MODEL 1
REMARK VINA RESULT:      -8.2      0.000      0.000
REMARK  8 active torsions:
REMARK  status: ('A' for Active; 'I' for Inactive)
REMARK    1  A    between atoms: N_4  and  C_5 
REMARK    2  A    between atoms: C_5  and  C_6 
REMARK    3  A    between atoms: C_6  and  C_7 
REMARK    4  A    between atoms: C_7  and  N_8 
REMARK       I    between atoms: N_8  and  C_9 
REMARK       I    between atoms: C_9  and  N_10 
REMARK    5  A    between atoms: N_10  and  N_11 
REMARK       I    between atoms: N_11  and  C_12 
REMARK    6  A    between atoms: C_12  and  C_13 
REMARK    7  A    between atoms: C_13  and  O_14 
REMARK    8  A    between atoms: O_14  and  C_15 
ROOT
HETATM    1  N   UNL     1      43.041 -13.091   5.051  1.00  0.00    -0.341 N 
HETATM    2  C   UNL     1      42.919 -13.445   6.362  1.00  0.00     0.334 C 
HETATM    3  N   UNL     1      43.610 -12.652   7.246  1.00  0.00    -0.249 N 
HETATM    4  O   UNL     1      42.230 -14.374   6.771  1.00  0.00    -0.246 OA
HETATM    5  H   UNL     1      43.433 -12.174   4.872  1.00  0.00     0.164 HD
HETATM    6  H   UNL     1      43.581 -12.992   8.203  1.00  0.00     0.192 HD
ENDROOT
BRANCH   1   7
HETATM    7  C   UNL     1      42.225 -13.669   4.000  1.00  0.00     0.130 C 
BRANCH   7   8
HETATM    8  C   UNL     1      42.919 -14.850   3.292  1.00  0.00     0.019 C 
HETATM    9  C   UNL     1      42.956 -14.664   1.770  1.00  0.00     0.013 C 
BRANCH   8  10
HETATM   10  C   UNL     1      42.199 -16.176   3.612  1.00  0.00     0.156 C 
BRANCH  10  11
HETATM   11  N   UNL     1      43.001 -17.387   3.521  1.00  0.00    -0.274 N 
HETATM   12  N   UNL     1      42.830 -18.243   2.497  1.00  0.00    -0.177 NA
HETATM   13  C   UNL     1      43.667 -19.251   2.757  1.00  0.00     0.053 A 
HETATM   14  C   UNL     1      43.762 -20.409   1.837  1.00  0.00     0.072 C 
HETATM   15  C   UNL     1      44.371 -19.041   3.962  1.00  0.00     0.055 A 
HETATM   16  C   UNL     1      43.915 -17.832   4.446  1.00  0.00     0.028 A 
HETATM   17  C   UNL     1      44.271 -17.095   5.682  1.00  0.00     0.070 C 
ENDBRANCH  10  11
ENDBRANCH   8  10
ENDBRANCH   7   8
ENDBRANCH   1   7
BRANCH   3  18
HETATM   18  N   UNL     1      44.751 -11.929   6.863  1.00  0.00    -0.264 N 
HETATM   19  C   UNL     1      45.339 -11.026   7.721  1.00  0.00     0.260 C 
HETATM   20  O   UNL     1      46.555 -10.845   7.672  1.00  0.00    -0.269 OA
HETATM   21  H   UNL     1      45.409 -12.432   6.274  1.00  0.00     0.190 HD
BRANCH  19  22
HETATM   22  C   UNL     1      44.429 -10.224   8.649  1.00  0.00     0.280 C 
BRANCH  22  23
HETATM   23  O   UNL     1      44.032 -10.992   9.789  1.00  0.00    -0.342 OA
BRANCH  23  24
HETATM   24  C   UNL     1      43.662 -10.181  10.828  1.00  0.00     0.069 A 
HETATM   25  C   UNL     1      43.727  -8.795  10.691  1.00  0.00     0.038 A 
HETATM   26  C   UNL     1      43.336  -7.977  11.752  1.00  0.00     0.022 A 
HETATM   27  C   UNL     1      42.858  -8.554  12.929  1.00  0.00     0.011 A 
HETATM   28 BR   UNL     1      42.333  -7.446  14.368  1.00  0.00    -0.051 Br
HETATM   29  C   UNL     1      42.759  -9.940  13.051  1.00  0.00     0.022 A 
HETATM   30  C   UNL     1      43.155 -10.758  11.991  1.00  0.00     0.038 A 
ENDBRANCH  23  24
ENDBRANCH  22  23
ENDBRANCH  19  22
ENDBRANCH   3  18
TORSDOF 8
ENDMDL
MODEL 2
REMARK VINA RESULT:      -8.1      4.141     10.455
REMARK  8 active torsions:
REMARK  status: ('A' for Active; 'I' for Inactive)
REMARK    1  A    between atoms: N_4  and  C_5 
REMARK    2  A    between atoms: C_5  and  C_6 
REMARK    3  A    between atoms: C_6  and  C_7 
REMARK    4  A    between atoms: C_7  and  N_8 
REMARK       I    between atoms: N_8  and  C_9 
REMARK       I    between atoms: C_9  and  N_10 
REMARK    5  A    between atoms: N_10  and  N_11 
REMARK       I    between atoms: N_11  and  C_12 
REMARK    6  A    between atoms: C_12  and  C_13 
REMARK    7  A    between atoms: C_13  and  O_14 
REMARK    8  A    between atoms: O_14  and  C_15 
ROOT
HETATM    1  N   UNL     1      44.101 -11.045   8.320  1.00  0.00    -0.341 N 
HETATM    2  C   UNL     1      44.414 -11.539   7.089  1.00  0.00     0.334 C 
HETATM    3  N   UNL     1      43.718 -12.664   6.719  1.00  0.00    -0.249 N 
HETATM    4  O   UNL     1      45.226 -11.034   6.320  1.00  0.00    -0.246 OA
HETATM    5  H   UNL     1      43.255 -11.406   8.743  1.00  0.00     0.164 HD
HETATM    6  H   UNL     1      44.035 -13.067   5.841  1.00  0.00     0.192 HD
ENDROOT
BRANCH   1   7
HETATM    7  C   UNL     1      44.569  -9.756   8.793  1.00  0.00     0.130 C 
BRANCH   7   8
HETATM    8  C   UNL     1      43.551  -9.059   9.718  1.00  0.00     0.019 C 
HETATM    9  C   UNL     1      43.510  -7.543   9.486  1.00  0.00     0.013 C 
BRANCH   8  10
HETATM   10  C   UNL     1      43.891  -9.324  11.199  1.00  0.00     0.156 C 
BRANCH  10  11
HETATM   11  N   UNL     1      42.771  -9.347  12.128  1.00  0.00    -0.274 N 
HETATM   12  N   UNL     1      41.747 -10.200  11.941  1.00  0.00    -0.177 NA
HETATM   13  C   UNL     1      40.887  -9.913  12.923  1.00  0.00     0.053 A 
HETATM   14  C   UNL     1      39.611 -10.657  13.048  1.00  0.00     0.072 C 
HETATM   15  C   UNL     1      41.362  -8.864  13.737  1.00  0.00     0.055 A 
HETATM   16  C   UNL     1      42.581  -8.504  13.197  1.00  0.00     0.028 A 
HETATM   17  C   UNL     1      43.541  -7.452  13.606  1.00  0.00     0.070 C 
ENDBRANCH  10  11
ENDBRANCH   8  10
ENDBRANCH   7   8
ENDBRANCH   1   7
BRANCH   3  18
HETATM   18  N   UNL     1      43.175 -13.549   7.665  1.00  0.00    -0.264 N 
HETATM   19  C   UNL     1      42.872 -14.849   7.327  1.00  0.00     0.260 C 
HETATM   20  O   UNL     1      42.962 -15.734   8.177  1.00  0.00    -0.269 OA
HETATM   21  H   UNL     1      43.517 -13.435   8.615  1.00  0.00     0.190 HD
BRANCH  19  22
HETATM   22  C   UNL     1      42.352 -15.120   5.917  1.00  0.00     0.280 C 
BRANCH  22  23
HETATM   23  O   UNL     1      43.411 -15.101   4.954  1.00  0.00    -0.342 OA
BRANCH  23  24
HETATM   24  C   UNL     1      43.486 -16.288   4.276  1.00  0.00     0.069 A 
HETATM   25  C   UNL     1      44.052 -17.407   4.886  1.00  0.00     0.038 A 
HETATM   26  C   UNL     1      44.113 -18.616   4.191  1.00  0.00     0.022 A 
HETATM   27  C   UNL     1      43.582 -18.699   2.903  1.00  0.00     0.011 A 
HETATM   28 BR   UNL     1      43.669 -20.335   1.960  1.00  0.00    -0.051 Br
HETATM   29  C   UNL     1      42.984 -17.589   2.308  1.00  0.00     0.022 A 
HETATM   30  C   UNL     1      42.927 -16.378   3.002  1.00  0.00     0.038 A 
ENDBRANCH  23  24
ENDBRANCH  22  23
ENDBRANCH  19  22
ENDBRANCH   3  18
TORSDOF 8
ENDMDL
MODEL 3
REMARK VINA RESULT:      -8.1      5.501      8.143
REMARK  8 active torsions:
REMARK  status: ('A' for Active; 'I' for Inactive)
REMARK    1  A    between atoms: N_4  and  C_5 
REMARK    2  A    between atoms: C_5  and  C_6 
REMARK    3  A    between atoms: C_6  and  C_7 
REMARK    4  A    between atoms: C_7  and  N_8 
REMARK       I    between atoms: N_8  and  C_9 
REMARK       I    between atoms: C_9  and  N_10 
REMARK    5  A    between atoms: N_10  and  N_11 
REMARK       I    between atoms: N_11  and  C_12 
REMARK    6  A    between atoms: C_12  and  C_13 
REMARK    7  A    between atoms: C_13  and  O_14 
REMARK    8  A    between atoms: O_14  and  C_15 
ROOT
HETATM    1  N   UNL     1      42.113 -12.881   4.326  1.00  0.00    -0.341 N 
HETATM    2  C   UNL     1      41.816 -12.233   5.488  1.00  0.00     0.334 C 
HETATM    3  N   UNL     1      41.239 -13.014   6.459  1.00  0.00    -0.249 N 
HETATM    4  O   UNL     1      42.054 -11.049   5.707  1.00  0.00    -0.246 OA
HETATM    5  H   UNL     1      42.091 -13.893   4.362  1.00  0.00     0.164 HD
HETATM    6  H   UNL     1      40.940 -12.490   7.277  1.00  0.00     0.192 HD
ENDROOT
BRANCH   1   7
HETATM    7  C   UNL     1      42.912 -12.282   3.274  1.00  0.00     0.130 C 
BRANCH   7   8
HETATM    8  C   UNL     1      42.070 -11.885   2.044  1.00  0.00     0.019 C 
HETATM    9  C   UNL     1      41.635 -10.415   2.097  1.00  0.00     0.013 C 
BRANCH   8  10
HETATM   10  C   UNL     1      40.812 -12.771   1.937  1.00  0.00     0.156 C 
BRANCH  10  11
HETATM   11  N   UNL     1      40.491 -13.285   0.613  1.00  0.00    -0.274 N 
HETATM   12  N   UNL     1      40.503 -12.469  -0.457  1.00  0.00    -0.177 NA
HETATM   13  C   UNL     1      40.111 -13.243  -1.474  1.00  0.00     0.053 A 
HETATM   14  C   UNL     1      39.996 -12.687  -2.842  1.00  0.00     0.072 C 
HETATM   15  C   UNL     1      39.838 -14.559  -1.046  1.00  0.00     0.055 A 
HETATM   16  C   UNL     1      40.081 -14.562   0.312  1.00  0.00     0.028 A 
HETATM   17  C   UNL     1      39.953 -15.650   1.310  1.00  0.00     0.070 C 
ENDBRANCH  10  11
ENDBRANCH   8  10
ENDBRANCH   7   8
ENDBRANCH   1   7
BRANCH   3  18
HETATM   18  N   UNL     1      40.512 -14.175   6.148  1.00  0.00    -0.264 N 
HETATM   19  C   UNL     1      40.856 -15.394   6.688  1.00  0.00     0.260 C 
HETATM   20  O   UNL     1      39.980 -16.229   6.909  1.00  0.00    -0.269 OA
HETATM   21  H   UNL     1      39.511 -14.042   6.024  1.00  0.00     0.190 HD
BRANCH  19  22
HETATM   22  C   UNL     1      42.338 -15.683   6.914  1.00  0.00     0.280 C 
BRANCH  22  23
HETATM   23  O   UNL     1      43.120 -15.349   5.764  1.00  0.00    -0.342 OA
BRANCH  23  24
HETATM   24  C   UNL     1      43.276 -16.431   4.939  1.00  0.00     0.069 A 
HETATM   25  C   UNL     1      43.857 -17.602   5.425  1.00  0.00     0.038 A 
HETATM   26  C   UNL     1      44.001 -18.703   4.580  1.00  0.00     0.022 A 
HETATM   27  C   UNL     1      43.539 -18.631   3.266  1.00  0.00     0.011 A 
HETATM   28 BR   UNL     1      43.738 -20.121   2.120  1.00  0.00    -0.051 Br
HETATM   29  C   UNL     1      42.925 -17.471   2.792  1.00  0.00     0.022 A 
HETATM   30  C   UNL     1      42.785 -16.368   3.636  1.00  0.00     0.038 A 
ENDBRANCH  23  24
ENDBRANCH  22  23
ENDBRANCH  19  22
ENDBRANCH   3  18
TORSDOF 8
ENDMDL
MODEL 4
REMARK VINA RESULT:      -8.1      4.236     10.827
REMARK  8 active torsions:
REMARK  status: ('A' for Active; 'I' for Inactive)
REMARK    1  A    between atoms: N_4  and  C_5 
REMARK    2  A    between atoms: C_5  and  C_6 
REMARK    3  A    between atoms: C_6  and  C_7 
REMARK    4  A    between atoms: C_7  and  N_8 
REMARK       I    between atoms: N_8  and  C_9 
REMARK       I    between atoms: C_9  and  N_10 
REMARK    5  A    between atoms: N_10  and  N_11 
REMARK       I    between atoms: N_11  and  C_12 
REMARK    6  A    between atoms: C_12  and  C_13 
REMARK    7  A    between atoms: C_13  and  O_14 
REMARK    8  A    between atoms: O_14  and  C_15 
ROOT
HETATM    1  N   UNL     1      43.664 -11.130   8.614  1.00  0.00    -0.341 N 
HETATM    2  C   UNL     1      44.214 -11.521   7.431  1.00  0.00     0.334 C 
HETATM    3  N   UNL     1      43.724 -12.699   6.921  1.00  0.00    -0.249 N 
HETATM    4  O   UNL     1      45.063 -10.885   6.813  1.00  0.00    -0.246 OA
HETATM    5  H   UNL     1      42.815 -11.608   8.890  1.00  0.00     0.164 HD
HETATM    6  H   UNL     1      44.215 -13.017   6.090  1.00  0.00     0.192 HD
ENDROOT
BRANCH   1   7
HETATM    7  C   UNL     1      43.895  -9.822   9.196  1.00  0.00     0.130 C 
BRANCH   7   8
HETATM    8  C   UNL     1      43.643  -9.796  10.718  1.00  0.00     0.019 C 
HETATM    9  C   UNL     1      43.956 -11.148  11.373  1.00  0.00     0.013 C 
BRANCH   8  10
HETATM   10  C   UNL     1      42.176  -9.428  11.020  1.00  0.00     0.156 C 
BRANCH  10  11
HETATM   11  N   UNL     1      41.885  -8.982  12.375  1.00  0.00    -0.274 N 
HETATM   12  N   UNL     1      42.663  -8.060  12.972  1.00  0.00    -0.177 NA
HETATM   13  C   UNL     1      42.154  -7.935  14.201  1.00  0.00     0.053 A 
HETATM   14  C   UNL     1      42.757  -6.995  15.174  1.00  0.00     0.072 C 
HETATM   15  C   UNL     1      41.050  -8.792  14.393  1.00  0.00     0.055 A 
HETATM   16  C   UNL     1      40.899  -9.469  13.200  1.00  0.00     0.028 A 
HETATM   17  C   UNL     1      39.924 -10.512  12.802  1.00  0.00     0.070 C 
ENDBRANCH  10  11
ENDBRANCH   8  10
ENDBRANCH   7   8
ENDBRANCH   1   7
BRANCH   3  18
HETATM   18  N   UNL     1      43.159 -13.688   7.742  1.00  0.00    -0.264 N 
HETATM   19  C   UNL     1      42.836 -14.928   7.239  1.00  0.00     0.260 C 
HETATM   20  O   UNL     1      42.905 -15.917   7.968  1.00  0.00    -0.269 OA
HETATM   21  H   UNL     1      43.497 -13.704   8.701  1.00  0.00     0.190 HD
BRANCH  19  22
HETATM   22  C   UNL     1      42.321 -15.005   5.803  1.00  0.00     0.280 C 
BRANCH  22  23
HETATM   23  O   UNL     1      43.396 -15.027   4.859  1.00  0.00    -0.342 OA
BRANCH  23  24
HETATM   24  C   UNL     1      43.467 -16.233   4.217  1.00  0.00     0.069 A 
HETATM   25  C   UNL     1      44.046 -17.331   4.852  1.00  0.00     0.038 A 
HETATM   26  C   UNL     1      44.103 -18.560   4.193  1.00  0.00     0.022 A 
HETATM   27  C   UNL     1      43.556 -18.685   2.915  1.00  0.00     0.011 A 
HETATM   28 BR   UNL     1      43.638 -20.348   2.020  1.00  0.00    -0.051 Br
HETATM   29  C   UNL     1      42.946 -17.594   2.295  1.00  0.00     0.022 A 
HETATM   30  C   UNL     1      42.893 -16.364   2.953  1.00  0.00     0.038 A 
ENDBRANCH  23  24
ENDBRANCH  22  23
ENDBRANCH  19  22
ENDBRANCH   3  18
TORSDOF 8
ENDMDL
MODEL 5
REMARK VINA RESULT:      -8.0      4.276      9.730
REMARK  8 active torsions:
REMARK  status: ('A' for Active; 'I' for Inactive)
REMARK    1  A    between atoms: N_4  and  C_5 
REMARK    2  A    between atoms: C_5  and  C_6 
REMARK    3  A    between atoms: C_6  and  C_7 
REMARK    4  A    between atoms: C_7  and  N_8 
REMARK       I    between atoms: N_8  and  C_9 
REMARK       I    between atoms: C_9  and  N_10 
REMARK    5  A    between atoms: N_10  and  N_11 
REMARK       I    between atoms: N_11  and  C_12 
REMARK    6  A    between atoms: C_12  and  C_13 
REMARK    7  A    between atoms: C_13  and  O_14 
REMARK    8  A    between atoms: O_14  and  C_15 
ROOT
HETATM    1  N   UNL     1      45.054 -11.214   7.620  1.00  0.00    -0.341 N 
HETATM    2  C   UNL     1      44.767 -11.625   6.353  1.00  0.00     0.334 C 
HETATM    3  N   UNL     1      43.672 -12.446   6.241  1.00  0.00    -0.249 N 
HETATM    4  O   UNL     1      45.392 -11.287   5.352  1.00  0.00    -0.246 OA
HETATM    5  H   UNL     1      44.329 -11.362   8.311  1.00  0.00     0.164 HD
HETATM    6  H   UNL     1      43.535 -12.815   5.304  1.00  0.00     0.192 HD
ENDROOT
BRANCH   1   7
HETATM    7  C   UNL     1      46.033 -10.183   7.911  1.00  0.00     0.130 C 
BRANCH   7   8
HETATM    8  C   UNL     1      45.638  -9.317   9.124  1.00  0.00     0.019 C 
HETATM    9  C   UNL     1      44.943 -10.141  10.215  1.00  0.00     0.013 C 
BRANCH   8  10
HETATM   10  C   UNL     1      44.697  -8.173   8.693  1.00  0.00     0.156 C 
BRANCH  10  11
HETATM   11  N   UNL     1      43.271  -8.459   8.727  1.00  0.00    -0.274 N 
HETATM   12  N   UNL     1      42.698  -9.189   7.753  1.00  0.00    -0.177 NA
HETATM   13  C   UNL     1      41.398  -9.204   8.063  1.00  0.00     0.053 A 
HETATM   14  C   UNL     1      40.427  -9.922   7.204  1.00  0.00     0.072 C 
HETATM   15  C   UNL     1      41.139  -8.469   9.238  1.00  0.00     0.055 A 
HETATM   16  C   UNL     1      42.365  -7.985   9.647  1.00  0.00     0.028 A 
HETATM   17  C   UNL     1      42.726  -7.133  10.804  1.00  0.00     0.070 C 
ENDBRANCH  10  11
ENDBRANCH   8  10
ENDBRANCH   7   8
ENDBRANCH   1   7
BRANCH   3  18
HETATM   18  N   UNL     1      43.226 -13.243   7.308  1.00  0.00    -0.264 N 
HETATM   19  C   UNL     1      42.918 -14.572   7.120  1.00  0.00     0.260 C 
HETATM   20  O   UNL     1      43.096 -15.372   8.038  1.00  0.00    -0.269 OA
HETATM   21  H   UNL     1      43.645 -13.037   8.211  1.00  0.00     0.190 HD
BRANCH  19  22
HETATM   22  C   UNL     1      42.287 -14.979   5.791  1.00  0.00     0.280 C 
BRANCH  22  23
HETATM   23  O   UNL     1      43.239 -14.943   4.724  1.00  0.00    -0.342 OA
BRANCH  23  24
HETATM   24  C   UNL     1      43.349 -16.165   4.116  1.00  0.00     0.069 A 
HETATM   25  C   UNL     1      43.957 -17.226   4.784  1.00  0.00     0.038 A 
HETATM   26  C   UNL     1      44.054 -18.471   4.161  1.00  0.00     0.022 A 
HETATM   27  C   UNL     1      43.517 -18.649   2.886  1.00  0.00     0.011 A 
HETATM   28 BR   UNL     1      43.652 -20.333   2.039  1.00  0.00    -0.051 Br
HETATM   29  C   UNL     1      42.877 -17.595   2.232  1.00  0.00     0.022 A 
HETATM   30  C   UNL     1      42.784 -16.348   2.855  1.00  0.00     0.038 A 
ENDBRANCH  23  24
ENDBRANCH  22  23
ENDBRANCH  19  22
ENDBRANCH   3  18
TORSDOF 8
ENDMDL
MODEL 6
REMARK VINA RESULT:      -7.9      4.151      5.945
REMARK  8 active torsions:
REMARK  status: ('A' for Active; 'I' for Inactive)
REMARK    1  A    between atoms: N_4  and  C_5 
REMARK    2  A    between atoms: C_5  and  C_6 
REMARK    3  A    between atoms: C_6  and  C_7 
REMARK    4  A    between atoms: C_7  and  N_8 
REMARK       I    between atoms: N_8  and  C_9 
REMARK       I    between atoms: C_9  and  N_10 
REMARK    5  A    between atoms: N_10  and  N_11 
REMARK       I    between atoms: N_11  and  C_12 
REMARK    6  A    between atoms: C_12  and  C_13 
REMARK    7  A    between atoms: C_13  and  O_14 
REMARK    8  A    between atoms: O_14  and  C_15 
ROOT
HETATM    1  N   UNL     1      39.983  -9.988   8.882  1.00  0.00    -0.341 N 
HETATM    2  C   UNL     1      39.078  -9.163   9.479  1.00  0.00     0.334 C 
HETATM    3  N   UNL     1      38.975  -9.299  10.842  1.00  0.00    -0.249 N 
HETATM    4  O   UNL     1      38.405  -8.324   8.889  1.00  0.00    -0.246 OA
HETATM    5  H   UNL     1      40.638 -10.453   9.500  1.00  0.00     0.164 HD
HETATM    6  H   UNL     1      38.228  -8.743  11.250  1.00  0.00     0.192 HD
ENDROOT
BRANCH   1   7
HETATM    7  C   UNL     1      40.384  -9.846   7.495  1.00  0.00     0.130 C 
BRANCH   7   8
HETATM    8  C   UNL     1      41.909  -9.970   7.303  1.00  0.00     0.019 C 
HETATM    9  C   UNL     1      42.587  -8.598   7.200  1.00  0.00     0.013 C 
BRANCH   8  10
HETATM   10  C   UNL     1      42.234 -10.779   6.031  1.00  0.00     0.156 C 
BRANCH  10  11
HETATM   11  N   UNL     1      42.479 -12.202   6.213  1.00  0.00    -0.274 N 
HETATM   12  N   UNL     1      41.463 -13.083   6.159  1.00  0.00    -0.177 NA
HETATM   13  C   UNL     1      42.027 -14.265   6.422  1.00  0.00     0.053 A 
HETATM   14  C   UNL     1      41.208 -15.500   6.455  1.00  0.00     0.072 C 
HETATM   15  C   UNL     1      43.412 -14.136   6.655  1.00  0.00     0.055 A 
HETATM   16  C   UNL     1      43.683 -12.789   6.525  1.00  0.00     0.028 A 
HETATM   17  C   UNL     1      44.956 -12.045   6.674  1.00  0.00     0.070 C 
ENDBRANCH  10  11
ENDBRANCH   8  10
ENDBRANCH   7   8
ENDBRANCH   1   7
BRANCH   3  18
HETATM   18  N   UNL     1      39.308 -10.496  11.498  1.00  0.00    -0.264 N 
HETATM   19  C   UNL     1      39.604 -10.508  12.843  1.00  0.00     0.260 C 
HETATM   20  O   UNL     1      39.329 -11.501  13.516  1.00  0.00    -0.269 OA
HETATM   21  H   UNL     1      38.814 -11.323  11.173  1.00  0.00     0.190 HD
BRANCH  19  22
HETATM   22  C   UNL     1      40.343  -9.305  13.424  1.00  0.00     0.280 C 
BRANCH  22  23
HETATM   23  O   UNL     1      41.666  -9.653  13.844  1.00  0.00    -0.342 OA
BRANCH  23  24
HETATM   24  C   UNL     1      42.549  -9.592  12.801  1.00  0.00     0.069 A 
HETATM   25  C   UNL     1      43.148 -10.758  12.324  1.00  0.00     0.038 A 
HETATM   26  C   UNL     1      44.039 -10.688  11.251  1.00  0.00     0.022 A 
HETATM   27  C   UNL     1      44.300  -9.456  10.650  1.00  0.00     0.011 A 
HETATM   28 BR   UNL     1      45.510  -9.361   9.201  1.00  0.00    -0.051 Br
HETATM   29  C   UNL     1      43.673  -8.297  11.105  1.00  0.00     0.022 A 
HETATM   30  C   UNL     1      42.785  -8.366  12.181  1.00  0.00     0.038 A 
ENDBRANCH  23  24
ENDBRANCH  22  23
ENDBRANCH  19  22
ENDBRANCH   3  18
TORSDOF 8
ENDMDL
MODEL 7
REMARK VINA RESULT:      -7.9      1.744      3.073
REMARK  8 active torsions:
REMARK  status: ('A' for Active; 'I' for Inactive)
REMARK    1  A    between atoms: N_4  and  C_5 
REMARK    2  A    between atoms: C_5  and  C_6 
REMARK    3  A    between atoms: C_6  and  C_7 
REMARK    4  A    between atoms: C_7  and  N_8 
REMARK       I    between atoms: N_8  and  C_9 
REMARK       I    between atoms: C_9  and  N_10 
REMARK    5  A    between atoms: N_10  and  N_11 
REMARK       I    between atoms: N_11  and  C_12 
REMARK    6  A    between atoms: C_12  and  C_13 
REMARK    7  A    between atoms: C_13  and  O_14 
REMARK    8  A    between atoms: O_14  and  C_15 
ROOT
HETATM    1  N   UNL     1      42.657 -13.445   2.901  1.00  0.00    -0.341 N 
HETATM    2  C   UNL     1      43.021 -12.169   3.214  1.00  0.00     0.334 C 
HETATM    3  N   UNL     1      43.748 -12.038   4.372  1.00  0.00    -0.249 N 
HETATM    4  O   UNL     1      42.768 -11.184   2.527  1.00  0.00    -0.246 OA
HETATM    5  H   UNL     1      43.130 -14.181   3.412  1.00  0.00     0.164 HD
HETATM    6  H   UNL     1      43.924 -11.072   4.633  1.00  0.00     0.192 HD
ENDROOT
BRANCH   1   7
HETATM    7  C   UNL     1      42.078 -13.807   1.622  1.00  0.00     0.130 C 
BRANCH   7   8
HETATM    8  C   UNL     1      41.886 -15.330   1.468  1.00  0.00     0.019 C 
HETATM    9  C   UNL     1      40.860 -15.883   2.465  1.00  0.00     0.013 C 
BRANCH   8  10
HETATM   10  C   UNL     1      43.224 -16.070   1.672  1.00  0.00     0.156 C 
BRANCH  10  11
HETATM   11  N   UNL     1      43.419 -16.712   2.964  1.00  0.00    -0.274 N 
HETATM   12  N   UNL     1      43.682 -15.976   4.059  1.00  0.00    -0.177 NA
HETATM   13  C   UNL     1      43.859 -16.873   5.033  1.00  0.00     0.053 A 
HETATM   14  C   UNL     1      44.176 -16.435   6.413  1.00  0.00     0.072 C 
HETATM   15  C   UNL     1      43.716 -18.192   4.554  1.00  0.00     0.055 A 
HETATM   16  C   UNL     1      43.442 -18.065   3.207  1.00  0.00     0.028 A 
HETATM   17  C   UNL     1      43.211 -19.099   2.171  1.00  0.00     0.070 C 
ENDBRANCH  10  11
ENDBRANCH   8  10
ENDBRANCH   7   8
ENDBRANCH   1   7
BRANCH   3  18
HETATM   18  N   UNL     1      43.659 -12.972   5.418  1.00  0.00    -0.264 N 
HETATM   19  C   UNL     1      44.088 -12.658   6.688  1.00  0.00     0.260 C 
HETATM   20  O   UNL     1      43.529 -13.162   7.660  1.00  0.00    -0.269 OA
HETATM   21  H   UNL     1      42.842 -13.577   5.393  1.00  0.00     0.190 HD
BRANCH  19  22
HETATM   22  C   UNL     1      45.308 -11.749   6.825  1.00  0.00     0.280 C 
BRANCH  22  23
HETATM   23  O   UNL     1      44.942 -10.367   6.780  1.00  0.00    -0.342 OA
BRANCH  23  24
HETATM   24  C   UNL     1      44.584  -9.908   8.018  1.00  0.00     0.069 A 
HETATM   25  C   UNL     1      43.351  -9.282   8.202  1.00  0.00     0.038 A 
HETATM   26  C   UNL     1      42.989  -8.827   9.471  1.00  0.00     0.022 A 
HETATM   27  C   UNL     1      43.852  -9.028  10.548  1.00  0.00     0.011 A 
HETATM   28 BR   UNL     1      43.364  -8.409  12.266  1.00  0.00    -0.051 Br
HETATM   29  C   UNL     1      45.069  -9.687  10.370  1.00  0.00     0.022 A 
HETATM   30  C   UNL     1      45.433 -10.137   9.099  1.00  0.00     0.038 A 
ENDBRANCH  23  24
ENDBRANCH  22  23
ENDBRANCH  19  22
ENDBRANCH   3  18
TORSDOF 8
ENDMDL
MODEL 8
REMARK VINA RESULT:      -7.9      5.837      8.166
REMARK  8 active torsions:
REMARK  status: ('A' for Active; 'I' for Inactive)
REMARK    1  A    between atoms: N_4  and  C_5 
REMARK    2  A    between atoms: C_5  and  C_6 
REMARK    3  A    between atoms: C_6  and  C_7 
REMARK    4  A    between atoms: C_7  and  N_8 
REMARK       I    between atoms: N_8  and  C_9 
REMARK       I    between atoms: C_9  and  N_10 
REMARK    5  A    between atoms: N_10  and  N_11 
REMARK       I    between atoms: N_11  and  C_12 
REMARK    6  A    between atoms: C_12  and  C_13 
REMARK    7  A    between atoms: C_13  and  O_14 
REMARK    8  A    between atoms: O_14  and  C_15 
ROOT
HETATM    1  N   UNL     1      41.208 -14.105   5.813  1.00  0.00    -0.341 N 
HETATM    2  C   UNL     1      40.324 -13.069   5.783  1.00  0.00     0.334 C 
HETATM    3  N   UNL     1      40.700 -12.006   4.998  1.00  0.00    -0.249 N 
HETATM    4  O   UNL     1      39.246 -13.054   6.369  1.00  0.00    -0.246 OA
HETATM    5  H   UNL     1      41.931 -14.095   5.104  1.00  0.00     0.164 HD
HETATM    6  H   UNL     1      40.072 -11.209   5.066  1.00  0.00     0.192 HD
ENDROOT
BRANCH   1   7
HETATM    7  C   UNL     1      40.894 -15.391   6.408  1.00  0.00     0.130 C 
BRANCH   7   8
HETATM    8  C   UNL     1      42.150 -16.251   6.656  1.00  0.00     0.019 C 
HETATM    9  C   UNL     1      42.932 -15.781   7.889  1.00  0.00     0.013 C 
BRANCH   8  10
HETATM   10  C   UNL     1      43.087 -16.214   5.432  1.00  0.00     0.156 C 
BRANCH  10  11
HETATM   11  N   UNL     1      43.412 -17.496   4.824  1.00  0.00    -0.274 N 
HETATM   12  N   UNL     1      43.737 -18.552   5.592  1.00  0.00    -0.177 NA
HETATM   13  C   UNL     1      44.028 -19.524   4.722  1.00  0.00     0.053 A 
HETATM   14  C   UNL     1      44.441 -20.864   5.200  1.00  0.00     0.072 C 
HETATM   15  C   UNL     1      43.895 -19.081   3.389  1.00  0.00     0.055 A 
HETATM   16  C   UNL     1      43.506 -17.760   3.478  1.00  0.00     0.028 A 
HETATM   17  C   UNL     1      43.229 -16.764   2.416  1.00  0.00     0.070 C 
ENDBRANCH  10  11
ENDBRANCH   8  10
ENDBRANCH   7   8
ENDBRANCH   1   7
BRANCH   3  18
HETATM   18  N   UNL     1      42.047 -11.730   4.712  1.00  0.00    -0.264 N 
HETATM   19  C   UNL     1      42.511 -11.729   3.416  1.00  0.00     0.260 C 
HETATM   20  O   UNL     1      43.432 -10.975   3.101  1.00  0.00    -0.269 OA
HETATM   21  H   UNL     1      42.486 -11.036   5.312  1.00  0.00     0.190 HD
BRANCH  19  22
HETATM   22  C   UNL     1      41.907 -12.735   2.439  1.00  0.00     0.280 C 
BRANCH  22  23
HETATM   23  O   UNL     1      40.507 -12.507   2.248  1.00  0.00    -0.342 OA
BRANCH  23  24
HETATM   24  C   UNL     1      40.081 -13.014   1.050  1.00  0.00     0.069 A 
HETATM   25  C   UNL     1      40.230 -14.373   0.774  1.00  0.00     0.038 A 
HETATM   26  C   UNL     1      39.781 -14.883  -0.445  1.00  0.00     0.022 A 
HETATM   27  C   UNL     1      39.165 -14.034  -1.365  1.00  0.00     0.011 A 
HETATM   28 BR   UNL     1      38.562 -14.724  -3.018  1.00  0.00    -0.051 Br
HETATM   29  C   UNL     1      38.985 -12.682  -1.072  1.00  0.00     0.022 A 
HETATM   30  C   UNL     1      39.437 -12.171   0.146  1.00  0.00     0.038 A 
ENDBRANCH  23  24
ENDBRANCH  22  23
ENDBRANCH  19  22
ENDBRANCH   3  18
TORSDOF 8
ENDMDL
MODEL 9
REMARK VINA RESULT:      -7.8      4.219      9.616
REMARK  8 active torsions:
REMARK  status: ('A' for Active; 'I' for Inactive)
REMARK    1  A    between atoms: N_4  and  C_5 
REMARK    2  A    between atoms: C_5  and  C_6 
REMARK    3  A    between atoms: C_6  and  C_7 
REMARK    4  A    between atoms: C_7  and  N_8 
REMARK       I    between atoms: N_8  and  C_9 
REMARK       I    between atoms: C_9  and  N_10 
REMARK    5  A    between atoms: N_10  and  N_11 
REMARK       I    between atoms: N_11  and  C_12 
REMARK    6  A    between atoms: C_12  and  C_13 
REMARK    7  A    between atoms: C_13  and  O_14 
REMARK    8  A    between atoms: O_14  and  C_15 
ROOT
HETATM    1  N   UNL     1      42.283 -11.053   7.123  1.00  0.00    -0.341 N 
HETATM    2  C   UNL     1      43.353 -11.482   6.396  1.00  0.00     0.334 C 
HETATM    3  N   UNL     1      43.591 -12.834   6.453  1.00  0.00    -0.249 N 
HETATM    4  O   UNL     1      44.061 -10.758   5.703  1.00  0.00    -0.246 OA
HETATM    5  H   UNL     1      41.647 -11.771   7.447  1.00  0.00     0.164 HD
HETATM    6  H   UNL     1      44.447 -13.115   5.983  1.00  0.00     0.192 HD
ENDROOT
BRANCH   1   7
HETATM    7  C   UNL     1      41.750  -9.708   7.019  1.00  0.00     0.130 C 
BRANCH   7   8
HETATM    8  C   UNL     1      41.102  -9.224   8.332  1.00  0.00     0.019 C 
HETATM    9  C   UNL     1      39.780  -8.488   8.082  1.00  0.00     0.013 C 
BRANCH   8  10
HETATM   10  C   UNL     1      42.056  -8.283   9.096  1.00  0.00     0.156 C 
BRANCH  10  11
HETATM   11  N   UNL     1      43.419  -8.756   9.286  1.00  0.00    -0.274 N 
HETATM   12  N   UNL     1      44.322  -8.652   8.294  1.00  0.00    -0.177 NA
HETATM   13  C   UNL     1      45.426  -9.226   8.782  1.00  0.00     0.053 A 
HETATM   14  C   UNL     1      46.658  -9.308   7.962  1.00  0.00     0.072 C 
HETATM   15  C   UNL     1      45.222  -9.708  10.091  1.00  0.00     0.055 A 
HETATM   16  C   UNL     1      43.911  -9.403  10.395  1.00  0.00     0.028 A 
HETATM   17  C   UNL     1      43.118  -9.674  11.618  1.00  0.00     0.070 C 
ENDBRANCH  10  11
ENDBRANCH   8  10
ENDBRANCH   7   8
ENDBRANCH   1   7
BRANCH   3  18
HETATM   18  N   UNL     1      43.178 -13.618   7.543  1.00  0.00    -0.264 N 
HETATM   19  C   UNL     1      42.907 -14.960   7.389  1.00  0.00     0.260 C 
HETATM   20  O   UNL     1      43.116 -15.732   8.323  1.00  0.00    -0.269 OA
HETATM   21  H   UNL     1      43.599 -13.379   8.436  1.00  0.00     0.190 HD
BRANCH  19  22
HETATM   22  C   UNL     1      42.276 -15.416   6.075  1.00  0.00     0.280 C 
BRANCH  22  23
HETATM   23  O   UNL     1      43.178 -15.258   4.976  1.00  0.00    -0.342 OA
BRANCH  23  24
HETATM   24  C   UNL     1      43.319 -16.428   4.279  1.00  0.00     0.069 A 
HETATM   25  C   UNL     1      44.100 -17.460   4.796  1.00  0.00     0.038 A 
HETATM   26  C   UNL     1      44.228 -18.654   4.084  1.00  0.00     0.022 A 
HETATM   27  C   UNL     1      43.551 -18.812   2.874  1.00  0.00     0.011 A 
HETATM   28 BR   UNL     1      43.729 -20.426   1.906  1.00  0.00    -0.051 Br
HETATM   29  C   UNL     1      42.742 -17.791   2.375  1.00  0.00     0.022 A 
HETATM   30  C   UNL     1      42.617 -16.596   3.086  1.00  0.00     0.038 A 
ENDBRANCH  23  24
ENDBRANCH  22  23
ENDBRANCH  19  22
ENDBRANCH   3  18
TORSDOF 8
ENDMDL
MODEL 10
REMARK VINA RESULT:      -7.8      4.241      9.629
REMARK  8 active torsions:
REMARK  status: ('A' for Active; 'I' for Inactive)
REMARK    1  A    between atoms: N_4  and  C_5 
REMARK    2  A    between atoms: C_5  and  C_6 
REMARK    3  A    between atoms: C_6  and  C_7 
REMARK    4  A    between atoms: C_7  and  N_8 
REMARK       I    between atoms: N_8  and  C_9 
REMARK       I    between atoms: C_9  and  N_10 
REMARK    5  A    between atoms: N_10  and  N_11 
REMARK       I    between atoms: N_11  and  C_12 
REMARK    6  A    between atoms: C_12  and  C_13 
REMARK    7  A    between atoms: C_13  and  O_14 
REMARK    8  A    between atoms: O_14  and  C_15 
ROOT
HETATM    1  N   UNL     1      42.298 -11.285   6.478  1.00  0.00    -0.341 N 
HETATM    2  C   UNL     1      43.581 -11.678   6.241  1.00  0.00     0.334 C 
HETATM    3  N   UNL     1      43.828 -13.014   6.443  1.00  0.00    -0.249 N 
HETATM    4  O   UNL     1      44.476 -10.936   5.847  1.00  0.00    -0.246 OA
HETATM    5  H   UNL     1      41.613 -12.027   6.560  1.00  0.00     0.164 HD
HETATM    6  H   UNL     1      44.809 -13.264   6.353  1.00  0.00     0.192 HD
ENDROOT
BRANCH   1   7
HETATM    7  C   UNL     1      41.798  -9.972   6.118  1.00  0.00     0.130 C 
BRANCH   7   8
HETATM    8  C   UNL     1      41.496  -9.095   7.351  1.00  0.00     0.019 C 
HETATM    9  C   UNL     1      40.494  -7.979   7.029  1.00  0.00     0.013 C 
BRANCH   8  10
HETATM   10  C   UNL     1      42.791  -8.456   7.895  1.00  0.00     0.156 C 
BRANCH  10  11
HETATM   11  N   UNL     1      43.376  -9.079   9.073  1.00  0.00    -0.274 N 
HETATM   12  N   UNL     1      42.596  -9.459  10.102  1.00  0.00    -0.177 NA
HETATM   13  C   UNL     1      43.450  -9.926  11.017  1.00  0.00     0.053 A 
HETATM   14  C   UNL     1      42.956 -10.443  12.315  1.00  0.00     0.072 C 
HETATM   15  C   UNL     1      44.786  -9.834  10.572  1.00  0.00     0.055 A 
HETATM   16  C   UNL     1      44.715  -9.272   9.313  1.00  0.00     0.028 A 
HETATM   17  C   UNL     1      45.790  -8.914   8.358  1.00  0.00     0.070 C 
ENDBRANCH  10  11
ENDBRANCH   8  10
ENDBRANCH   7   8
ENDBRANCH   1   7
BRANCH   3  18
HETATM   18  N   UNL     1      43.053 -13.791   7.320  1.00  0.00    -0.264 N 
HETATM   19  C   UNL     1      43.408 -15.087   7.622  1.00  0.00     0.260 C 
HETATM   20  O   UNL     1      43.139 -15.547   8.731  1.00  0.00    -0.269 OA
HETATM   21  H   UNL     1      42.630 -13.284   8.093  1.00  0.00     0.190 HD
BRANCH  19  22
HETATM   22  C   UNL     1      44.054 -15.926   6.522  1.00  0.00     0.280 C 
BRANCH  22  23
HETATM   23  O   UNL     1      43.480 -15.647   5.242  1.00  0.00    -0.342 OA
BRANCH  23  24
HETATM   24  C   UNL     1      43.501 -16.754   4.436  1.00  0.00     0.069 A 
HETATM   25  C   UNL     1      42.835 -16.741   3.212  1.00  0.00     0.038 A 
HETATM   26  C   UNL     1      42.872 -17.870   2.392  1.00  0.00     0.022 A 
HETATM   27  C   UNL     1      43.600 -18.991   2.794  1.00  0.00     0.011 A 
HETATM   28 BR   UNL     1      43.647 -20.522   1.686  1.00  0.00    -0.051 Br
HETATM   29  C   UNL     1      44.296 -18.989   4.003  1.00  0.00     0.022 A 
HETATM   30  C   UNL     1      44.254 -17.861   4.825  1.00  0.00     0.038 A 
ENDBRANCH  23  24
ENDBRANCH  22  23
ENDBRANCH  19  22
ENDBRANCH   3  18
TORSDOF 8
ENDMDL
