MODEL 1
REMARK VINA RESULT:      -9.6      0.000      0.000
REMARK  7 active torsions:
REMARK  status: ('A' for Active; 'I' for Inactive)
REMARK    1  A    between atoms: C_6  and  N_7 
REMARK       I    between atoms: N_7  and  C_8 
REMARK    2  A    between atoms: C_8  and  C_9 
REMARK    3  A    between atoms: C_9  and  O_10 
REMARK    4  A    between atoms: O_10  and  C_11 
REMARK    5  A    between atoms: C_11  and  C_12 
REMARK       I    between atoms: C_12  and  N_13 
REMARK    6  A    between atoms: N_13  and  N_14 
REMARK       I    between atoms: N_14  and  C_15 
REMARK    7  A    between atoms: C_15  and  C_16 
ROOT
HETATM    1  C   UNL     1      43.361 -10.964   7.003  1.00  0.00     0.259 C 
HETATM    2  N   UNL     1      43.793 -11.317   8.263  1.00  0.00    -0.265 N 
HETATM    3  O   UNL     1      42.578 -10.038   6.799  1.00  0.00    -0.269 OA
HETATM    4  H   UNL     1      44.444 -12.085   8.429  1.00  0.00     0.190 HD
ENDROOT
BRANCH   1   5
HETATM    5  C   UNL     1      43.881 -11.874   5.891  1.00  0.00     0.272 C 
BRANCH   5   6
HETATM    6  O   UNL     1      43.729 -13.255   6.228  1.00  0.00    -0.373 OA
BRANCH   6   7
HETATM    7  C   UNL     1      42.370 -13.678   6.170  1.00  0.00     0.271 C 
BRANCH   7   8
HETATM    8  C   UNL     1      42.098 -14.932   5.326  1.00  0.00     0.245 C 
HETATM    9  N   UNL     1      43.263 -15.588   4.969  1.00  0.00    -0.325 N 
HETATM   10  H   UNL     1      44.124 -15.110   5.222  1.00  0.00     0.169 HD
HETATM   11  O   UNL     1      40.950 -15.277   5.069  1.00  0.00    -0.271 OA
BRANCH   9  12
HETATM   12  C   UNL     1      43.387 -16.818   4.292  1.00  0.00     0.036 A 
HETATM   13  C   UNL     1      43.820 -18.000   4.895  1.00  0.00     0.053 A 
HETATM   14  C   UNL     1      43.948 -19.175   4.144  1.00  0.00     0.042 A 
HETATM   15  C   UNL     1      43.637 -19.194   2.777  1.00  0.00    -0.040 A 
HETATM   16 CL   UNL     1      44.511 -20.595   4.955  1.00  0.00    -0.084 Cl
HETATM   17  C   UNL     1      43.779 -20.439   1.945  1.00  0.00     0.050 C 
HETATM   18  C   UNL     1      43.196 -18.008   2.179  1.00  0.00     0.011 A 
HETATM   19  C   UNL     1      43.075 -16.832   2.928  1.00  0.00     0.030 A 
ENDBRANCH   9  12
ENDBRANCH   7   8
ENDBRANCH   6   7
ENDBRANCH   5   6
ENDBRANCH   1   5
BRANCH   2  20
HETATM   20  N   UNL     1      43.308 -10.612   9.366  1.00  0.00    -0.262 N 
HETATM   21  C   UNL     1      44.114 -10.450  10.474  1.00  0.00     0.286 C 
HETATM   22  O   UNL     1      45.285 -10.830  10.488  1.00  0.00    -0.264 OA
HETATM   23  H   UNL     1      42.315 -10.395   9.366  1.00  0.00     0.190 HD
BRANCH  21  24
HETATM   24  C   UNL     1      43.492  -9.803  11.607  1.00  0.00     0.103 A 
HETATM   25  N   UNL     1      43.932  -8.580  12.068  1.00  0.00    -0.351 N 
HETATM   26  H   UNL     1      44.703  -8.069  11.657  1.00  0.00     0.166 HD
HETATM   27  C   UNL     1      43.184  -8.154  13.140  1.00  0.00     0.043 A 
HETATM   28  C   UNL     1      42.233  -9.141  13.388  1.00  0.00    -0.007 A 
HETATM   29  C   UNL     1      43.274  -6.982  13.900  1.00  0.00     0.030 A 
HETATM   30  C   UNL     1      42.436 -10.170  12.425  1.00  0.00     0.049 A 
HETATM   31  C   UNL     1      41.324  -8.957  14.447  1.00  0.00     0.014 A 
HETATM   32  C   UNL     1      41.398  -7.790  15.217  1.00  0.00     0.001 A 
HETATM   33  C   UNL     1      42.359  -6.819  14.945  1.00  0.00     0.002 A 
ENDBRANCH  21  24
ENDBRANCH   2  20
TORSDOF 7
ENDMDL
MODEL 2
REMARK VINA RESULT:      -9.6      1.559      2.177
REMARK  7 active torsions:
REMARK  status: ('A' for Active; 'I' for Inactive)
REMARK    1  A    between atoms: C_6  and  N_7 
REMARK       I    between atoms: N_7  and  C_8 
REMARK    2  A    between atoms: C_8  and  C_9 
REMARK    3  A    between atoms: C_9  and  O_10 
REMARK    4  A    between atoms: O_10  and  C_11 
REMARK    5  A    between atoms: C_11  and  C_12 
REMARK       I    between atoms: C_12  and  N_13 
REMARK    6  A    between atoms: N_13  and  N_14 
REMARK       I    between atoms: N_14  and  C_15 
REMARK    7  A    between atoms: C_15  and  C_16 
ROOT
HETATM    1  C   UNL     1      42.323 -11.471   6.106  1.00  0.00     0.259 C 
HETATM    2  N   UNL     1      43.362 -11.094   6.929  1.00  0.00    -0.265 N 
HETATM    3  O   UNL     1      41.144 -11.243   6.371  1.00  0.00    -0.269 OA
HETATM    4  H   UNL     1      44.340 -11.282   6.706  1.00  0.00     0.190 HD
ENDROOT
BRANCH   1   5
HETATM    5  C   UNL     1      42.761 -12.263   4.875  1.00  0.00     0.272 C 
BRANCH   5   6
HETATM    6  O   UNL     1      41.671 -12.486   3.978  1.00  0.00    -0.373 OA
BRANCH   6   7
HETATM    7  C   UNL     1      42.033 -13.333   2.890  1.00  0.00     0.271 C 
BRANCH   7   8
HETATM    8  C   UNL     1      41.926 -14.841   3.158  1.00  0.00     0.245 C 
HETATM    9  N   UNL     1      43.163 -15.457   3.199  1.00  0.00    -0.325 N 
HETATM   10  H   UNL     1      43.951 -14.863   2.956  1.00  0.00     0.169 HD
HETATM   11  O   UNL     1      40.833 -15.368   3.344  1.00  0.00    -0.271 OA
BRANCH   9  12
HETATM   12  C   UNL     1      43.448 -16.799   3.524  1.00  0.00     0.036 A 
HETATM   13  C   UNL     1      43.448 -17.844   2.599  1.00  0.00     0.053 A 
HETATM   14  C   UNL     1      43.710 -19.157   3.009  1.00  0.00     0.042 A 
HETATM   15  C   UNL     1      43.986 -19.451   4.352  1.00  0.00    -0.040 A 
HETATM   16 CL   UNL     1      43.670 -20.402   1.809  1.00  0.00    -0.084 Cl
HETATM   17  C   UNL     1      44.257 -20.853   4.822  1.00  0.00     0.050 C 
HETATM   18  C   UNL     1      43.993 -18.398   5.275  1.00  0.00     0.011 A 
HETATM   19  C   UNL     1      43.725 -17.087   4.865  1.00  0.00     0.030 A 
ENDBRANCH   9  12
ENDBRANCH   7   8
ENDBRANCH   6   7
ENDBRANCH   5   6
ENDBRANCH   1   5
BRANCH   2  20
HETATM   20  N   UNL     1      43.072 -10.445   8.130  1.00  0.00    -0.262 N 
HETATM   21  C   UNL     1      43.985 -10.494   9.163  1.00  0.00     0.286 C 
HETATM   22  O   UNL     1      45.092 -11.017   9.030  1.00  0.00    -0.264 OA
HETATM   23  H   UNL     1      42.121 -10.107   8.246  1.00  0.00     0.190 HD
BRANCH  21  24
HETATM   24  C   UNL     1      43.555  -9.888  10.404  1.00  0.00     0.103 A 
HETATM   25  N   UNL     1      42.444 -10.346  11.081  1.00  0.00    -0.351 N 
HETATM   26  H   UNL     1      41.869 -11.115  10.761  1.00  0.00     0.166 HD
HETATM   27  C   UNL     1      42.238  -9.632  12.237  1.00  0.00     0.043 A 
HETATM   28  C   UNL     1      43.243  -8.671  12.305  1.00  0.00    -0.007 A 
HETATM   29  C   UNL     1      41.249  -9.763  13.219  1.00  0.00     0.030 A 
HETATM   30  C   UNL     1      44.060  -8.837  11.152  1.00  0.00     0.049 A 
HETATM   31  C   UNL     1      43.268  -7.791  13.404  1.00  0.00     0.014 A 
HETATM   32  C   UNL     1      42.288  -7.907  14.396  1.00  0.00     0.001 A 
HETATM   33  C   UNL     1      41.295  -8.880  14.303  1.00  0.00     0.002 A 
ENDBRANCH  21  24
ENDBRANCH   2  20
TORSDOF 7
ENDMDL
MODEL 3
REMARK VINA RESULT:      -9.1      5.214      9.637
REMARK  7 active torsions:
REMARK  status: ('A' for Active; 'I' for Inactive)
REMARK    1  A    between atoms: C_6  and  N_7 
REMARK       I    between atoms: N_7  and  C_8 
REMARK    2  A    between atoms: C_8  and  C_9 
REMARK    3  A    between atoms: C_9  and  O_10 
REMARK    4  A    between atoms: O_10  and  C_11 
REMARK    5  A    between atoms: C_11  and  C_12 
REMARK       I    between atoms: C_12  and  N_13 
REMARK    6  A    between atoms: N_13  and  N_14 
REMARK       I    between atoms: N_14  and  C_15 
REMARK    7  A    between atoms: C_15  and  C_16 
ROOT
HETATM    1  C   UNL     1      41.284 -12.348   5.241  1.00  0.00     0.259 C 
HETATM    2  N   UNL     1      41.762 -12.912   4.078  1.00  0.00    -0.265 N 
HETATM    3  O   UNL     1      40.125 -11.955   5.367  1.00  0.00    -0.269 OA
HETATM    4  H   UNL     1      42.723 -13.238   3.976  1.00  0.00     0.190 HD
ENDROOT
BRANCH   1   5
HETATM    5  C   UNL     1      42.341 -12.183   6.331  1.00  0.00     0.272 C 
BRANCH   5   6
HETATM    6  O   UNL     1      43.394 -13.140   6.192  1.00  0.00    -0.373 OA
BRANCH   6   7
HETATM    7  C   UNL     1      43.251 -14.234   7.095  1.00  0.00     0.271 C 
BRANCH   7   8
HETATM    8  C   UNL     1      42.879 -15.579   6.455  1.00  0.00     0.245 C 
HETATM    9  N   UNL     1      43.614 -15.840   5.312  1.00  0.00    -0.325 N 
HETATM   10  H   UNL     1      44.216 -15.081   5.002  1.00  0.00     0.169 HD
HETATM   11  O   UNL     1      42.043 -16.310   6.976  1.00  0.00    -0.271 OA
BRANCH   9  12
HETATM   12  C   UNL     1      43.613 -17.016   4.535  1.00  0.00     0.036 A 
HETATM   13  C   UNL     1      43.999 -18.269   5.015  1.00  0.00     0.053 A 
HETATM   14  C   UNL     1      44.001 -19.384   4.168  1.00  0.00     0.042 A 
HETATM   15  C   UNL     1      43.608 -19.271   2.827  1.00  0.00    -0.040 A 
HETATM   16 CL   UNL     1      44.513 -20.899   4.828  1.00  0.00    -0.084 Cl
HETATM   17  C   UNL     1      43.614 -20.450   1.893  1.00  0.00     0.050 C 
HETATM   18  C   UNL     1      43.215 -18.014   2.353  1.00  0.00     0.011 A 
HETATM   19  C   UNL     1      43.220 -16.899   3.198  1.00  0.00     0.030 A 
ENDBRANCH   9  12
ENDBRANCH   7   8
ENDBRANCH   6   7
ENDBRANCH   5   6
ENDBRANCH   1   5
BRANCH   2  20
HETATM   20  N   UNL     1      40.906 -13.026   2.980  1.00  0.00    -0.262 N 
HETATM   21  C   UNL     1      41.414 -13.446   1.768  1.00  0.00     0.286 C 
HETATM   22  O   UNL     1      42.582 -13.813   1.643  1.00  0.00    -0.264 OA
HETATM   23  H   UNL     1      39.977 -12.629   3.085  1.00  0.00     0.190 HD
BRANCH  21  24
HETATM   24  C   UNL     1      40.480 -13.430   0.664  1.00  0.00     0.103 A 
HETATM   25  N   UNL     1      40.554 -14.358  -0.354  1.00  0.00    -0.351 N 
HETATM   26  H   UNL     1      41.251 -15.091  -0.396  1.00  0.00     0.166 HD
HETATM   27  C   UNL     1      39.559 -14.159  -1.281  1.00  0.00     0.043 A 
HETATM   28  C   UNL     1      38.823 -13.057  -0.855  1.00  0.00    -0.007 A 
HETATM   29  C   UNL     1      39.256 -14.863  -2.452  1.00  0.00     0.030 A 
HETATM   30  C   UNL     1      39.409 -12.606   0.362  1.00  0.00     0.049 A 
HETATM   31  C   UNL     1      37.729 -12.629  -1.631  1.00  0.00     0.014 A 
HETATM   32  C   UNL     1      37.410 -13.321  -2.805  1.00  0.00     0.001 A 
HETATM   33  C   UNL     1      38.165 -14.422  -3.207  1.00  0.00     0.002 A 
ENDBRANCH  21  24
ENDBRANCH   2  20
TORSDOF 7
ENDMDL
MODEL 4
REMARK VINA RESULT:      -9.0      6.118      9.982
REMARK  7 active torsions:
REMARK  status: ('A' for Active; 'I' for Inactive)
REMARK    1  A    between atoms: C_6  and  N_7 
REMARK       I    between atoms: N_7  and  C_8 
REMARK    2  A    between atoms: C_8  and  C_9 
REMARK    3  A    between atoms: C_9  and  O_10 
REMARK    4  A    between atoms: O_10  and  C_11 
REMARK    5  A    between atoms: C_11  and  C_12 
REMARK       I    between atoms: C_12  and  N_13 
REMARK    6  A    between atoms: N_13  and  N_14 
REMARK       I    between atoms: N_14  and  C_15 
REMARK    7  A    between atoms: C_15  and  C_16 
ROOT
HETATM    1  C   UNL     1      41.209 -12.489   5.274  1.00  0.00     0.259 C 
HETATM    2  N   UNL     1      42.478 -12.862   4.887  1.00  0.00    -0.265 N 
HETATM    3  O   UNL     1      40.309 -13.300   5.487  1.00  0.00    -0.269 OA
HETATM    4  H   UNL     1      43.223 -12.188   4.712  1.00  0.00     0.190 HD
ENDROOT
BRANCH   1   5
HETATM    5  C   UNL     1      40.999 -10.978   5.340  1.00  0.00     0.272 C 
BRANCH   5   6
HETATM    6  O   UNL     1      40.336 -10.487   4.173  1.00  0.00    -0.373 OA
BRANCH   6   7
HETATM    7  C   UNL     1      41.253 -10.005   3.194  1.00  0.00     0.271 C 
BRANCH   7   8
HETATM    8  C   UNL     1      41.228 -10.733   1.843  1.00  0.00     0.245 C 
HETATM    9  N   UNL     1      40.221 -11.679   1.773  1.00  0.00    -0.325 N 
HETATM   10  H   UNL     1      39.709 -11.830   2.638  1.00  0.00     0.169 HD
HETATM   11  O   UNL     1      42.019 -10.432   0.954  1.00  0.00    -0.271 OA
BRANCH   9  12
HETATM   12  C   UNL     1      39.840 -12.453   0.659  1.00  0.00     0.036 A 
HETATM   13  C   UNL     1      38.963 -12.013  -0.334  1.00  0.00     0.053 A 
HETATM   14  C   UNL     1      38.609 -12.857  -1.394  1.00  0.00     0.042 A 
HETATM   15  C   UNL     1      39.131 -14.155  -1.488  1.00  0.00    -0.040 A 
HETATM   16 CL   UNL     1      37.500 -12.250  -2.575  1.00  0.00    -0.084 Cl
HETATM   17  C   UNL     1      38.756 -15.086  -2.608  1.00  0.00     0.050 C 
HETATM   18  C   UNL     1      40.016 -14.589  -0.493  1.00  0.00     0.011 A 
HETATM   19  C   UNL     1      40.364 -13.747   0.569  1.00  0.00     0.030 A 
ENDBRANCH   9  12
ENDBRANCH   7   8
ENDBRANCH   6   7
ENDBRANCH   5   6
ENDBRANCH   1   5
BRANCH   2  20
HETATM   20  N   UNL     1      42.757 -14.218   4.702  1.00  0.00    -0.262 N 
HETATM   21  C   UNL     1      43.066 -14.679   3.439  1.00  0.00     0.286 C 
HETATM   22  O   UNL     1      43.192 -13.917   2.480  1.00  0.00    -0.264 OA
HETATM   23  H   UNL     1      42.554 -14.834   5.484  1.00  0.00     0.190 HD
BRANCH  21  24
HETATM   24  C   UNL     1      43.233 -16.110   3.323  1.00  0.00     0.103 A 
HETATM   25  N   UNL     1      43.675 -16.872   4.385  1.00  0.00    -0.351 N 
HETATM   26  H   UNL     1      43.908 -16.488   5.292  1.00  0.00     0.166 HD
HETATM   27  C   UNL     1      43.742 -18.203   4.049  1.00  0.00     0.043 A 
HETATM   28  C   UNL     1      43.341 -18.305   2.719  1.00  0.00    -0.007 A 
HETATM   29  C   UNL     1      44.122 -19.313   4.812  1.00  0.00     0.030 A 
HETATM   30  C   UNL     1      43.027 -16.991   2.273  1.00  0.00     0.049 A 
HETATM   31  C   UNL     1      43.316 -19.576   2.114  1.00  0.00     0.014 A 
HETATM   32  C   UNL     1      43.692 -20.698   2.862  1.00  0.00     0.001 A 
HETATM   33  C   UNL     1      44.088 -20.565   4.191  1.00  0.00     0.002 A 
ENDBRANCH  21  24
ENDBRANCH   2  20
TORSDOF 7
ENDMDL
MODEL 5
REMARK VINA RESULT:      -8.7      1.418      2.034
REMARK  7 active torsions:
REMARK  status: ('A' for Active; 'I' for Inactive)
REMARK    1  A    between atoms: C_6  and  N_7 
REMARK       I    between atoms: N_7  and  C_8 
REMARK    2  A    between atoms: C_8  and  C_9 
REMARK    3  A    between atoms: C_9  and  O_10 
REMARK    4  A    between atoms: O_10  and  C_11 
REMARK    5  A    between atoms: C_11  and  C_12 
REMARK       I    between atoms: C_12  and  N_13 
REMARK    6  A    between atoms: N_13  and  N_14 
REMARK       I    between atoms: N_14  and  C_15 
REMARK    7  A    between atoms: C_15  and  C_16 
ROOT
HETATM    1  C   UNL     1      44.447 -10.536   7.661  1.00  0.00     0.259 C 
HETATM    2  N   UNL     1      43.369 -10.772   8.488  1.00  0.00    -0.265 N 
HETATM    3  O   UNL     1      45.264  -9.640   7.867  1.00  0.00    -0.269 OA
HETATM    4  H   UNL     1      42.694 -11.517   8.317  1.00  0.00     0.190 HD
ENDROOT
BRANCH   1   5
HETATM    5  C   UNL     1      44.491 -11.436   6.428  1.00  0.00     0.272 C 
BRANCH   5   6
HETATM    6  O   UNL     1      44.330 -12.813   6.776  1.00  0.00    -0.373 OA
BRANCH   6   7
HETATM    7  C   UNL     1      43.135 -13.369   6.233  1.00  0.00     0.271 C 
BRANCH   7   8
HETATM    8  C   UNL     1      42.974 -14.888   6.400  1.00  0.00     0.245 C 
HETATM    9  N   UNL     1      43.494 -15.593   5.329  1.00  0.00    -0.325 N 
HETATM   10  H   UNL     1      43.816 -15.023   4.551  1.00  0.00     0.169 HD
HETATM   11  O   UNL     1      42.466 -15.356   7.414  1.00  0.00    -0.271 OA
BRANCH   9  12
HETATM   12  C   UNL     1      43.614 -16.990   5.194  1.00  0.00     0.036 A 
HETATM   13  C   UNL     1      43.809 -17.643   3.975  1.00  0.00     0.053 A 
HETATM   14  C   UNL     1      43.885 -19.040   3.921  1.00  0.00     0.042 A 
HETATM   15  C   UNL     1      43.777 -19.813   5.086  1.00  0.00    -0.040 A 
HETATM   16 CL   UNL     1      44.105 -19.778   2.373  1.00  0.00    -0.084 Cl
HETATM   17  C   UNL     1      43.843 -21.315   5.055  1.00  0.00     0.050 C 
HETATM   18  C   UNL     1      43.590 -19.154   6.307  1.00  0.00     0.011 A 
HETATM   19  C   UNL     1      43.507 -17.758   6.359  1.00  0.00     0.030 A 
ENDBRANCH   9  12
ENDBRANCH   7   8
ENDBRANCH   6   7
ENDBRANCH   5   6
ENDBRANCH   1   5
BRANCH   2  20
HETATM   20  N   UNL     1      43.175  -9.946   9.598  1.00  0.00    -0.262 N 
HETATM   21  C   UNL     1      43.450 -10.433  10.859  1.00  0.00     0.286 C 
HETATM   22  O   UNL     1      43.949 -11.545  11.033  1.00  0.00    -0.264 OA
HETATM   23  H   UNL     1      42.677  -9.076   9.435  1.00  0.00     0.190 HD
BRANCH  21  24
HETATM   24  C   UNL     1      43.118  -9.549  11.953  1.00  0.00     0.103 A 
HETATM   25  N   UNL     1      42.126  -9.864  12.858  1.00  0.00    -0.351 N 
HETATM   26  H   UNL     1      41.575 -10.712  12.814  1.00  0.00     0.166 HD
HETATM   27  C   UNL     1      41.998  -8.887  13.816  1.00  0.00     0.043 A 
HETATM   28  C   UNL     1      42.932  -7.900  13.515  1.00  0.00    -0.007 A 
HETATM   29  C   UNL     1      41.136  -8.803  14.916  1.00  0.00     0.030 A 
HETATM   30  C   UNL     1      43.627  -8.321  12.346  1.00  0.00     0.049 A 
HETATM   31  C   UNL     1      43.017  -6.768  14.349  1.00  0.00     0.014 A 
HETATM   32  C   UNL     1      42.164  -6.667  15.454  1.00  0.00     0.001 A 
HETATM   33  C   UNL     1      41.239  -7.671  15.731  1.00  0.00     0.002 A 
ENDBRANCH  21  24
ENDBRANCH   2  20
TORSDOF 7
ENDMDL
MODEL 6
REMARK VINA RESULT:      -8.7      1.785      2.165
REMARK  7 active torsions:
REMARK  status: ('A' for Active; 'I' for Inactive)
REMARK    1  A    between atoms: C_6  and  N_7 
REMARK       I    between atoms: N_7  and  C_8 
REMARK    2  A    between atoms: C_8  and  C_9 
REMARK    3  A    between atoms: C_9  and  O_10 
REMARK    4  A    between atoms: O_10  and  C_11 
REMARK    5  A    between atoms: C_11  and  C_12 
REMARK       I    between atoms: C_12  and  N_13 
REMARK    6  A    between atoms: N_13  and  N_14 
REMARK       I    between atoms: N_14  and  C_15 
REMARK    7  A    between atoms: C_15  and  C_16 
ROOT
HETATM    1  C   UNL     1      41.451 -11.442   6.296  1.00  0.00     0.259 C 
HETATM    2  N   UNL     1      42.619 -11.084   6.935  1.00  0.00    -0.265 N 
HETATM    3  O   UNL     1      40.336 -11.150   6.727  1.00  0.00    -0.269 OA
HETATM    4  H   UNL     1      43.542 -11.327   6.574  1.00  0.00     0.190 HD
ENDROOT
BRANCH   1   5
HETATM    5  C   UNL     1      41.662 -12.299   5.049  1.00  0.00     0.272 C 
BRANCH   5   6
HETATM    6  O   UNL     1      42.474 -11.630   4.083  1.00  0.00    -0.373 OA
BRANCH   6   7
HETATM    7  C   UNL     1      42.213 -12.079   2.755  1.00  0.00     0.271 C 
BRANCH   7   8
HETATM    8  C   UNL     1      41.991 -13.590   2.596  1.00  0.00     0.245 C 
HETATM    9  N   UNL     1      43.120 -14.324   2.912  1.00  0.00    -0.325 N 
HETATM   10  H   UNL     1      43.953 -13.774   3.108  1.00  0.00     0.169 HD
HETATM   11  O   UNL     1      40.896 -14.030   2.259  1.00  0.00    -0.271 OA
BRANCH   9  12
HETATM   12  C   UNL     1      43.246 -15.726   2.981  1.00  0.00     0.036 A 
HETATM   13  C   UNL     1      43.410 -16.438   4.170  1.00  0.00     0.053 A 
HETATM   14  C   UNL     1      43.562 -17.830   4.150  1.00  0.00     0.042 A 
HETATM   15  C   UNL     1      43.542 -18.540   2.941  1.00  0.00    -0.040 A 
HETATM   16 CL   UNL     1      43.783 -18.641   5.662  1.00  0.00    -0.084 Cl
HETATM   17  C   UNL     1      43.716 -20.032   2.890  1.00  0.00     0.050 C 
HETATM   18  C   UNL     1      43.369 -17.822   1.751  1.00  0.00     0.011 A 
HETATM   19  C   UNL     1      43.225 -16.430   1.772  1.00  0.00     0.030 A 
ENDBRANCH   9  12
ENDBRANCH   7   8
ENDBRANCH   6   7
ENDBRANCH   5   6
ENDBRANCH   1   5
BRANCH   2  20
HETATM   20  N   UNL     1      42.543 -10.379   8.137  1.00  0.00    -0.262 N 
HETATM   21  C   UNL     1      43.499 -10.595   9.109  1.00  0.00     0.286 C 
HETATM   22  O   UNL     1      44.471 -11.325   8.916  1.00  0.00    -0.264 OA
HETATM   23  H   UNL     1      41.686  -9.860   8.307  1.00  0.00     0.190 HD
BRANCH  21  24
HETATM   24  C   UNL     1      43.281  -9.904  10.360  1.00  0.00     0.103 A 
HETATM   25  N   UNL     1      42.354 -10.352  11.278  1.00  0.00    -0.351 N 
HETATM   26  H   UNL     1      41.777 -11.172  11.139  1.00  0.00     0.166 HD
HETATM   27  C   UNL     1      42.332  -9.550  12.394  1.00  0.00     0.043 A 
HETATM   28  C   UNL     1      43.268  -8.540  12.186  1.00  0.00    -0.007 A 
HETATM   29  C   UNL     1      41.564  -9.640  13.560  1.00  0.00     0.030 A 
HETATM   30  C   UNL     1      43.855  -8.769  10.909  1.00  0.00     0.049 A 
HETATM   31  C   UNL     1      43.452  -7.568  13.187  1.00  0.00     0.014 A 
HETATM   32  C   UNL     1      42.693  -7.642  14.361  1.00  0.00     0.001 A 
HETATM   33  C   UNL     1      41.764  -8.664  14.542  1.00  0.00     0.002 A 
ENDBRANCH  21  24
ENDBRANCH   2  20
TORSDOF 7
ENDMDL
MODEL 7
REMARK VINA RESULT:      -8.7      3.513     11.826
REMARK  7 active torsions:
REMARK  status: ('A' for Active; 'I' for Inactive)
REMARK    1  A    between atoms: C_6  and  N_7 
REMARK       I    between atoms: N_7  and  C_8 
REMARK    2  A    between atoms: C_8  and  C_9 
REMARK    3  A    between atoms: C_9  and  O_10 
REMARK    4  A    between atoms: O_10  and  C_11 
REMARK    5  A    between atoms: C_11  and  C_12 
REMARK       I    between atoms: C_12  and  N_13 
REMARK    6  A    between atoms: N_13  and  N_14 
REMARK       I    between atoms: N_14  and  C_15 
REMARK    7  A    between atoms: C_15  and  C_16 
ROOT
HETATM    1  C   UNL     1      44.571 -11.748   7.256  1.00  0.00     0.259 C 
HETATM    2  N   UNL     1      43.507 -12.623   7.304  1.00  0.00    -0.265 N 
HETATM    3  O   UNL     1      45.495 -11.862   6.452  1.00  0.00    -0.269 OA
HETATM    4  H   UNL     1      42.741 -12.525   7.971  1.00  0.00     0.190 HD
ENDROOT
BRANCH   1   5
HETATM    5  C   UNL     1      44.539 -10.672   8.339  1.00  0.00     0.272 C 
BRANCH   5   6
HETATM    6  O   UNL     1      43.937 -11.153   9.542  1.00  0.00    -0.373 OA
BRANCH   6   7
HETATM    7  C   UNL     1      44.403 -10.458  10.695  1.00  0.00     0.271 C 
BRANCH   7   8
HETATM    8  C   UNL     1      43.508  -9.312  11.188  1.00  0.00     0.245 C 
HETATM    9  N   UNL     1      42.747  -9.673  12.286  1.00  0.00    -0.325 N 
HETATM   10  H   UNL     1      42.808 -10.652  12.551  1.00  0.00     0.169 HD
HETATM   11  O   UNL     1      43.544  -8.212  10.646  1.00  0.00    -0.271 OA
BRANCH   9  12
HETATM   12  C   UNL     1      41.901  -8.850  13.057  1.00  0.00     0.036 A 
HETATM   13  C   UNL     1      40.583  -8.547  12.715  1.00  0.00     0.053 A 
HETATM   14  C   UNL     1      39.818  -7.693  13.520  1.00  0.00     0.042 A 
HETATM   15  C   UNL     1      40.353  -7.133  14.689  1.00  0.00    -0.040 A 
HETATM   16 CL   UNL     1      38.199  -7.346  13.019  1.00  0.00    -0.084 Cl
HETATM   17  C   UNL     1      39.558  -6.204  15.563  1.00  0.00     0.050 C 
HETATM   18  C   UNL     1      41.674  -7.447  15.032  1.00  0.00     0.011 A 
HETATM   19  C   UNL     1      42.439  -8.295  14.223  1.00  0.00     0.030 A 
ENDBRANCH   9  12
ENDBRANCH   7   8
ENDBRANCH   6   7
ENDBRANCH   5   6
ENDBRANCH   1   5
BRANCH   2  20
HETATM   20  N   UNL     1      43.480 -13.704   6.421  1.00  0.00    -0.262 N 
HETATM   21  C   UNL     1      43.305 -14.979   6.917  1.00  0.00     0.286 C 
HETATM   22  O   UNL     1      43.081 -15.189   8.109  1.00  0.00    -0.264 OA
HETATM   23  H   UNL     1      43.760 -13.515   5.463  1.00  0.00     0.190 HD
BRANCH  21  24
HETATM   24  C   UNL     1      43.398 -16.044   5.943  1.00  0.00     0.103 A 
HETATM   25  N   UNL     1      43.729 -17.331   6.314  1.00  0.00    -0.351 N 
HETATM   26  H   UNL     1      43.927 -17.607   7.267  1.00  0.00     0.166 HD
HETATM   27  C   UNL     1      43.742 -18.173   5.227  1.00  0.00     0.043 A 
HETATM   28  C   UNL     1      43.419 -17.402   4.114  1.00  0.00    -0.007 A 
HETATM   29  C   UNL     1      44.010 -19.544   5.146  1.00  0.00     0.030 A 
HETATM   30  C   UNL     1      43.209 -16.071   4.571  1.00  0.00     0.049 A 
HETATM   31  C   UNL     1      43.360 -18.024   2.852  1.00  0.00     0.014 A 
HETATM   32  C   UNL     1      43.624 -19.394   2.751  1.00  0.00     0.001 A 
HETATM   33  C   UNL     1      43.944 -20.141   3.883  1.00  0.00     0.002 A 
ENDBRANCH  21  24
ENDBRANCH   2  20
TORSDOF 7
ENDMDL
MODEL 8
REMARK VINA RESULT:      -8.4      3.755      4.451
REMARK  7 active torsions:
REMARK  status: ('A' for Active; 'I' for Inactive)
REMARK    1  A    between atoms: C_6  and  N_7 
REMARK       I    between atoms: N_7  and  C_8 
REMARK    2  A    between atoms: C_8  and  C_9 
REMARK    3  A    between atoms: C_9  and  O_10 
REMARK    4  A    between atoms: O_10  and  C_11 
REMARK    5  A    between atoms: C_11  and  C_12 
REMARK       I    between atoms: C_12  and  N_13 
REMARK    6  A    between atoms: N_13  and  N_14 
REMARK       I    between atoms: N_14  and  C_15 
REMARK    7  A    between atoms: C_15  and  C_16 
ROOT
HETATM    1  C   UNL     1      42.283 -11.374   6.151  1.00  0.00     0.259 C 
HETATM    2  N   UNL     1      43.253 -11.298   7.127  1.00  0.00    -0.265 N 
HETATM    3  O   UNL     1      41.176 -10.849   6.265  1.00  0.00    -0.269 OA
HETATM    4  H   UNL     1      44.170 -11.733   7.029  1.00  0.00     0.190 HD
ENDROOT
BRANCH   1   5
HETATM    5  C   UNL     1      42.676 -12.233   4.950  1.00  0.00     0.272 C 
BRANCH   5   6
HETATM    6  O   UNL     1      43.097 -13.538   5.352  1.00  0.00    -0.373 OA
BRANCH   6   7
HETATM    7  C   UNL     1      42.318 -14.567   4.749  1.00  0.00     0.271 C 
BRANCH   7   8
HETATM    8  C   UNL     1      42.325 -14.593   3.214  1.00  0.00     0.245 C 
HETATM    9  N   UNL     1      41.106 -14.219   2.675  1.00  0.00    -0.325 N 
HETATM   10  H   UNL     1      40.360 -14.077   3.351  1.00  0.00     0.169 HD
HETATM   11  O   UNL     1      43.345 -14.883   2.597  1.00  0.00    -0.271 OA
BRANCH   9  12
HETATM   12  C   UNL     1      40.786 -14.029   1.316  1.00  0.00     0.036 A 
HETATM   13  C   UNL     1      41.103 -12.879   0.593  1.00  0.00     0.053 A 
HETATM   14  C   UNL     1      40.719 -12.753  -0.748  1.00  0.00     0.042 A 
HETATM   15  C   UNL     1      40.018 -13.780  -1.396  1.00  0.00    -0.040 A 
HETATM   16 CL   UNL     1      41.128 -11.289  -1.573  1.00  0.00    -0.084 Cl
HETATM   17  C   UNL     1      39.582 -13.666  -2.830  1.00  0.00     0.050 C 
HETATM   18  C   UNL     1      39.709 -14.936  -0.668  1.00  0.00     0.011 A 
HETATM   19  C   UNL     1      40.087 -15.057   0.674  1.00  0.00     0.030 A 
ENDBRANCH   9  12
ENDBRANCH   7   8
ENDBRANCH   6   7
ENDBRANCH   5   6
ENDBRANCH   1   5
BRANCH   2  20
HETATM   20  N   UNL     1      42.968 -10.616   8.311  1.00  0.00    -0.262 N 
HETATM   21  C   UNL     1      43.922 -10.561   9.306  1.00  0.00     0.286 C 
HETATM   22  O   UNL     1      45.055 -11.018   9.148  1.00  0.00    -0.264 OA
HETATM   23  H   UNL     1      42.002 -10.334   8.453  1.00  0.00     0.190 HD
BRANCH  21  24
HETATM   24  C   UNL     1      43.502  -9.929  10.537  1.00  0.00     0.103 A 
HETATM   25  N   UNL     1      42.400 -10.375  11.236  1.00  0.00    -0.351 N 
HETATM   26  H   UNL     1      41.824 -11.153  10.939  1.00  0.00     0.166 HD
HETATM   27  C   UNL     1      42.202  -9.636  12.377  1.00  0.00     0.043 A 
HETATM   28  C   UNL     1      43.205  -8.670  12.413  1.00  0.00    -0.007 A 
HETATM   29  C   UNL     1      41.224  -9.748  13.372  1.00  0.00     0.030 A 
HETATM   30  C   UNL     1      44.011  -8.860  11.256  1.00  0.00     0.049 A 
HETATM   31  C   UNL     1      43.238  -7.766  13.492  1.00  0.00     0.014 A 
HETATM   32  C   UNL     1      42.268  -7.863  14.497  1.00  0.00     0.001 A 
HETATM   33  C   UNL     1      41.278  -8.840  14.435  1.00  0.00     0.002 A 
ENDBRANCH  21  24
ENDBRANCH   2  20
TORSDOF 7
ENDMDL
MODEL 9
REMARK VINA RESULT:      -8.3      3.671     11.536
REMARK  7 active torsions:
REMARK  status: ('A' for Active; 'I' for Inactive)
REMARK    1  A    between atoms: C_6  and  N_7 
REMARK       I    between atoms: N_7  and  C_8 
REMARK    2  A    between atoms: C_8  and  C_9 
REMARK    3  A    between atoms: C_9  and  O_10 
REMARK    4  A    between atoms: O_10  and  C_11 
REMARK    5  A    between atoms: C_11  and  C_12 
REMARK       I    between atoms: C_12  and  N_13 
REMARK    6  A    between atoms: N_13  and  N_14 
REMARK       I    between atoms: N_14  and  C_15 
REMARK    7  A    between atoms: C_15  and  C_16 
ROOT
HETATM    1  C   UNL     1      40.805 -12.698   5.152  1.00  0.00     0.259 C 
HETATM    2  N   UNL     1      42.126 -13.084   5.222  1.00  0.00    -0.265 N 
HETATM    3  O   UNL     1      39.892 -13.479   4.888  1.00  0.00    -0.269 OA
HETATM    4  H   UNL     1      42.881 -12.435   5.443  1.00  0.00     0.190 HD
ENDROOT
BRANCH   1   5
HETATM    5  C   UNL     1      40.585 -11.200   5.354  1.00  0.00     0.272 C 
BRANCH   5   6
HETATM    6  O   UNL     1      40.523 -10.859   6.741  1.00  0.00    -0.373 OA
BRANCH   6   7
HETATM    7  C   UNL     1      39.654  -9.758   6.988  1.00  0.00     0.271 C 
BRANCH   7   8
HETATM    8  C   UNL     1      39.945  -8.954   8.263  1.00  0.00     0.245 C 
HETATM    9  N   UNL     1      40.833  -9.602   9.103  1.00  0.00    -0.325 N 
HETATM   10  H   UNL     1      41.089 -10.544   8.818  1.00  0.00     0.169 HD
HETATM   11  O   UNL     1      39.443  -7.847   8.434  1.00  0.00    -0.271 OA
BRANCH   9  12
HETATM   12  C   UNL     1      41.402  -9.117  10.298  1.00  0.00     0.036 A 
HETATM   13  C   UNL     1      40.890  -9.378  11.569  1.00  0.00     0.053 A 
HETATM   14  C   UNL     1      41.496  -8.830  12.707  1.00  0.00     0.042 A 
HETATM   15  C   UNL     1      42.633  -8.016  12.596  1.00  0.00    -0.040 A 
HETATM   16 CL   UNL     1      40.791  -9.180  14.247  1.00  0.00    -0.084 Cl
HETATM   17  C   UNL     1      43.295  -7.404  13.799  1.00  0.00     0.050 C 
HETATM   18  C   UNL     1      43.147  -7.764  11.318  1.00  0.00     0.011 A 
HETATM   19  C   UNL     1      42.537  -8.306  10.182  1.00  0.00     0.030 A 
ENDBRANCH   9  12
ENDBRANCH   7   8
ENDBRANCH   6   7
ENDBRANCH   5   6
ENDBRANCH   1   5
BRANCH   2  20
HETATM   20  N   UNL     1      42.455 -14.416   4.961  1.00  0.00    -0.262 N 
HETATM   21  C   UNL     1      42.931 -14.762   3.713  1.00  0.00     0.286 C 
HETATM   22  O   UNL     1      43.161 -13.919   2.846  1.00  0.00    -0.264 OA
HETATM   23  H   UNL     1      42.167 -15.100   5.654  1.00  0.00     0.190 HD
BRANCH  21  24
HETATM   24  C   UNL     1      43.143 -16.176   3.498  1.00  0.00     0.103 A 
HETATM   25  N   UNL     1      43.603 -16.997   4.507  1.00  0.00    -0.351 N 
HETATM   26  H   UNL     1      43.821 -16.670   5.440  1.00  0.00     0.166 HD
HETATM   27  C   UNL     1      43.712 -18.298   4.079  1.00  0.00     0.043 A 
HETATM   28  C   UNL     1      43.319 -18.319   2.743  1.00  0.00    -0.007 A 
HETATM   29  C   UNL     1      44.122 -19.447   4.765  1.00  0.00     0.030 A 
HETATM   30  C   UNL     1      42.968 -16.986   2.388  1.00  0.00     0.049 A 
HETATM   31  C   UNL     1      43.335 -19.545   2.050  1.00  0.00     0.014 A 
HETATM   32  C   UNL     1      43.742 -20.705   2.720  1.00  0.00     0.001 A 
HETATM   33  C   UNL     1      44.128 -20.653   4.057  1.00  0.00     0.002 A 
ENDBRANCH  21  24
ENDBRANCH   2  20
TORSDOF 7
ENDMDL
MODEL 10
REMARK VINA RESULT:      -8.3      3.026      4.789
REMARK  7 active torsions:
REMARK  status: ('A' for Active; 'I' for Inactive)
REMARK    1  A    between atoms: C_6  and  N_7 
REMARK       I    between atoms: N_7  and  C_8 
REMARK    2  A    between atoms: C_8  and  C_9 
REMARK    3  A    between atoms: C_9  and  O_10 
REMARK    4  A    between atoms: O_10  and  C_11 
REMARK    5  A    between atoms: C_11  and  C_12 
REMARK       I    between atoms: C_12  and  N_13 
REMARK    6  A    between atoms: N_13  and  N_14 
REMARK       I    between atoms: N_14  and  C_15 
REMARK    7  A    between atoms: C_15  and  C_16 
ROOT
HETATM    1  C   UNL     1      40.090 -12.908   4.000  1.00  0.00     0.259 C 
HETATM    2  N   UNL     1      40.994 -11.893   3.772  1.00  0.00    -0.265 N 
HETATM    3  O   UNL     1      39.840 -13.341   5.124  1.00  0.00    -0.269 OA
HETATM    4  H   UNL     1      41.198 -11.534   2.839  1.00  0.00     0.190 HD
ENDROOT
BRANCH   1   5
HETATM    5  C   UNL     1      39.485 -13.498   2.728  1.00  0.00     0.272 C 
BRANCH   5   6
HETATM    6  O   UNL     1      40.043 -12.903   1.555  1.00  0.00    -0.373 OA
BRANCH   6   7
HETATM    7  C   UNL     1      40.675 -13.862   0.712  1.00  0.00     0.271 C 
BRANCH   7   8
HETATM    8  C   UNL     1      40.915 -15.243   1.338  1.00  0.00     0.245 C 
HETATM    9  N   UNL     1      42.221 -15.410   1.760  1.00  0.00    -0.325 N 
HETATM   10  H   UNL     1      42.855 -14.654   1.517  1.00  0.00     0.169 HD
HETATM   11  O   UNL     1      39.994 -16.045   1.455  1.00  0.00    -0.271 OA
BRANCH   9  12
HETATM   12  C   UNL     1      42.766 -16.500   2.469  1.00  0.00     0.036 A 
HETATM   13  C   UNL     1      42.962 -17.769   1.920  1.00  0.00     0.053 A 
HETATM   14  C   UNL     1      43.479 -18.809   2.702  1.00  0.00     0.042 A 
HETATM   15  C   UNL     1      43.819 -18.600   4.046  1.00  0.00    -0.040 A 
HETATM   16 CL   UNL     1      43.673 -20.359   1.959  1.00  0.00    -0.084 Cl
HETATM   17  C   UNL     1      44.363 -19.703   4.912  1.00  0.00     0.050 C 
HETATM   18  C   UNL     1      43.627 -17.324   4.590  1.00  0.00     0.011 A 
HETATM   19  C   UNL     1      43.105 -16.287   3.810  1.00  0.00     0.030 A 
ENDBRANCH   9  12
ENDBRANCH   7   8
ENDBRANCH   6   7
ENDBRANCH   5   6
ENDBRANCH   1   5
BRANCH   2  20
HETATM   20  N   UNL     1      41.679 -11.341   4.857  1.00  0.00    -0.262 N 
HETATM   21  C   UNL     1      42.894 -11.876   5.230  1.00  0.00     0.286 C 
HETATM   22  O   UNL     1      43.441 -12.768   4.582  1.00  0.00    -0.264 OA
HETATM   23  H   UNL     1      41.166 -10.676   5.428  1.00  0.00     0.190 HD
BRANCH  21  24
HETATM   24  C   UNL     1      43.479 -11.314   6.427  1.00  0.00     0.103 A 
HETATM   25  N   UNL     1      42.695 -10.801   7.439  1.00  0.00    -0.351 N 
HETATM   26  H   UNL     1      41.683 -10.780   7.410  1.00  0.00     0.166 HD
HETATM   27  C   UNL     1      43.465 -10.338   8.479  1.00  0.00     0.043 A 
HETATM   28  C   UNL     1      44.794 -10.549   8.124  1.00  0.00    -0.007 A 
HETATM   29  C   UNL     1      43.090  -9.756   9.696  1.00  0.00     0.030 A 
HETATM   30  C   UNL     1      44.793 -11.157   6.837  1.00  0.00     0.049 A 
HETATM   31  C   UNL     1      45.807 -10.162   9.023  1.00  0.00     0.014 A 
HETATM   32  C   UNL     1      45.452  -9.579  10.245  1.00  0.00     0.001 A 
HETATM   33  C   UNL     1      44.112  -9.381  10.574  1.00  0.00     0.002 A 
ENDBRANCH  21  24
ENDBRANCH   2  20
TORSDOF 7
ENDMDL
