MODEL 1
REMARK VINA RESULT:      -9.1      0.000      0.000
REMARK  7 active torsions:
REMARK  status: ('A' for Active; 'I' for Inactive)
REMARK    1  A    between atoms: C_2  and  O_3 
REMARK    2  A    between atoms: O_3  and  C_4 
REMARK    3  A    between atoms: C_5  and  N_6 
REMARK       I    between atoms: N_6  and  C_7 
REMARK    4  A    between atoms: C_7  and  C_8 
REMARK    5  A    between atoms: C_8  and  N_9 
REMARK    6  A    between atoms: C_20  and  C_21 
REMARK       I    between atoms: C_21  and  N_22 
REMARK    7  A    between atoms: N_22  and  C_23 
ROOT
HETATM    1  N   UNL     1      42.176 -14.782   5.638  1.00  0.00    -0.304 N 
HETATM    2  C   UNL     1      42.455 -15.784   6.574  1.00  0.00     0.259 C 
HETATM    3  O   UNL     1      41.960 -15.807   7.701  1.00  0.00    -0.270 OA
HETATM    4  C   UNL     1      43.508 -16.800   6.095  1.00  0.00     0.141 C 
HETATM    5  C   UNL     1      44.904 -16.153   6.119  1.00  0.00     0.057 C 
HETATM    6  C   UNL     1      43.516 -18.013   7.033  1.00  0.00     0.057 C 
HETATM    7  O   UNL     1      43.251 -17.310   4.787  1.00  0.00    -0.329 OA
HETATM    8  C   UNL     1      42.788 -16.380   3.893  1.00  0.00     0.097 A 
HETATM    9  C   UNL     1      42.290 -15.115   4.254  1.00  0.00     0.072 A 
HETATM   10  C   UNL     1      42.805 -16.803   2.561  1.00  0.00     0.040 A 
HETATM   11  C   UNL     1      42.350 -15.960   1.553  1.00  0.00     0.020 A 
HETATM   12  C   UNL     1      41.895 -14.680   1.879  1.00  0.00     0.034 A 
HETATM   13  C   UNL     1      41.862 -14.266   3.224  1.00  0.00     0.049 A 
ENDROOT
BRANCH   1  14
HETATM   14  C   UNL     1      41.391 -13.647   6.115  1.00  0.00     0.235 C 
BRANCH  14  15
HETATM   15  C   UNL     1      42.177 -12.321   6.066  1.00  0.00     0.240 C 
HETATM   16  N   UNL     1      42.882 -12.097   7.236  1.00  0.00    -0.323 N 
HETATM   17  H   UNL     1      42.574 -12.552   8.090  1.00  0.00     0.169 HD
HETATM   18  O   UNL     1      42.131 -11.549   5.111  1.00  0.00    -0.271 OA
BRANCH  16  19
HETATM   19  C   UNL     1      44.000 -11.256   7.405  1.00  0.00     0.068 A 
HETATM   20  C   UNL     1      43.819 -10.068   8.139  1.00  0.00     0.095 A 
HETATM   21  C   UNL     1      44.920  -9.266   8.455  1.00  0.00     0.039 A 
HETATM   22  C   UNL     1      46.194  -9.627   8.013  1.00  0.00     0.003 A 
HETATM   23  C   UNL     1      46.369 -10.785   7.257  1.00  0.00     0.002 A 
HETATM   24  C   UNL     1      45.275 -11.599   6.953  1.00  0.00     0.032 A 
BRANCH  20  25
HETATM   25  O   UNL     1      42.528  -9.785   8.528  1.00  0.00    -0.349 OA
BRANCH  25  26
HETATM   26  C   UNL     1      42.411  -8.849   9.604  1.00  0.00     0.171 C 
HETATM   27  C   UNL     1      42.275  -9.631  10.898  1.00  0.00     0.034 C 
ENDBRANCH  25  26
ENDBRANCH  20  25
ENDBRANCH  16  19
ENDBRANCH  14  15
ENDBRANCH   1  14
BRANCH  12  28
HETATM   28  C   UNL     1      41.379 -13.743   0.842  1.00  0.00     0.252 C 
HETATM   29  N   UNL     1      40.684 -14.307  -0.206  1.00  0.00    -0.352 N 
HETATM   30  H   UNL     1      40.606 -15.312  -0.281  1.00  0.00     0.163 HD
HETATM   31  O   UNL     1      41.602 -12.542   0.942  1.00  0.00    -0.268 OA
BRANCH  29  32
HETATM   32  C   UNL     1      40.100 -13.493  -1.250  1.00  0.00     0.084 C 
HETATM   33  C   UNL     1      39.796 -14.291  -2.513  1.00  0.00     0.025 C 
HETATM   34  C   UNL     1      38.828 -13.387  -3.257  1.00  0.00     0.002 C 
HETATM   35  C   UNL     1      37.947 -12.791  -2.164  1.00  0.00     0.002 C 
HETATM   36  C   UNL     1      38.739 -12.910  -0.860  1.00  0.00     0.025 C 
ENDBRANCH  29  32
ENDBRANCH  12  28
TORSDOF 7
ENDMDL
MODEL 2
REMARK VINA RESULT:      -9.0      2.599      8.115
REMARK  7 active torsions:
REMARK  status: ('A' for Active; 'I' for Inactive)
REMARK    1  A    between atoms: C_2  and  O_3 
REMARK    2  A    between atoms: O_3  and  C_4 
REMARK    3  A    between atoms: C_5  and  N_6 
REMARK       I    between atoms: N_6  and  C_7 
REMARK    4  A    between atoms: C_7  and  C_8 
REMARK    5  A    between atoms: C_8  and  N_9 
REMARK    6  A    between atoms: C_20  and  C_21 
REMARK       I    between atoms: C_21  and  N_22 
REMARK    7  A    between atoms: N_22  and  C_23 
ROOT
HETATM    1  N   UNL     1      40.805 -13.228   3.855  1.00  0.00    -0.304 N 
HETATM    2  C   UNL     1      40.134 -12.010   4.009  1.00  0.00     0.259 C 
HETATM    3  O   UNL     1      38.958 -11.846   3.685  1.00  0.00    -0.270 OA
HETATM    4  C   UNL     1      41.029 -10.873   4.535  1.00  0.00     0.141 C 
HETATM    5  C   UNL     1      41.979 -10.402   3.421  1.00  0.00     0.057 C 
HETATM    6  C   UNL     1      40.157  -9.689   4.967  1.00  0.00     0.057 C 
HETATM    7  O   UNL     1      41.797 -11.241   5.681  1.00  0.00    -0.329 OA
HETATM    8  C   UNL     1      42.311 -12.510   5.642  1.00  0.00     0.097 A 
HETATM    9  C   UNL     1      41.890 -13.506   4.742  1.00  0.00     0.072 A 
HETATM   10  C   UNL     1      43.282 -12.770   6.612  1.00  0.00     0.040 A 
HETATM   11  C   UNL     1      43.876 -14.025   6.690  1.00  0.00     0.020 A 
HETATM   12  C   UNL     1      43.510 -15.017   5.778  1.00  0.00     0.034 A 
HETATM   13  C   UNL     1      42.518 -14.757   4.815  1.00  0.00     0.049 A 
ENDROOT
BRANCH   1  14
HETATM   14  C   UNL     1      40.096 -14.273   3.122  1.00  0.00     0.235 C 
BRANCH  14  15
HETATM   15  C   UNL     1      40.588 -14.414   1.667  1.00  0.00     0.240 C 
HETATM   16  N   UNL     1      39.712 -13.831   0.769  1.00  0.00    -0.323 N 
HETATM   17  H   UNL     1      38.740 -13.710   1.038  1.00  0.00     0.169 HD
HETATM   18  O   UNL     1      41.615 -15.016   1.362  1.00  0.00    -0.271 OA
BRANCH  16  19
HETATM   19  C   UNL     1      40.004 -13.396  -0.541  1.00  0.00     0.068 A 
HETATM   20  C   UNL     1      40.499 -12.088  -0.699  1.00  0.00     0.095 A 
HETATM   21  C   UNL     1      40.934 -11.652  -1.955  1.00  0.00     0.039 A 
HETATM   22  C   UNL     1      40.846 -12.504  -3.056  1.00  0.00     0.003 A 
HETATM   23  C   UNL     1      40.323 -13.788  -2.907  1.00  0.00     0.002 A 
HETATM   24  C   UNL     1      39.904 -14.235  -1.652  1.00  0.00     0.032 A 
BRANCH  20  25
HETATM   25  O   UNL     1      40.544 -11.312   0.438  1.00  0.00    -0.349 OA
BRANCH  25  26
HETATM   26  C   UNL     1      39.897 -10.041   0.331  1.00  0.00     0.171 C 
HETATM   27  C   UNL     1      38.406 -10.251   0.525  1.00  0.00     0.034 C 
ENDBRANCH  25  26
ENDBRANCH  20  25
ENDBRANCH  16  19
ENDBRANCH  14  15
ENDBRANCH   1  14
BRANCH  12  28
HETATM   28  C   UNL     1      44.100 -16.384   5.827  1.00  0.00     0.252 C 
HETATM   29  N   UNL     1      43.707 -17.260   4.838  1.00  0.00    -0.352 N 
HETATM   30  H   UNL     1      43.000 -16.986   4.170  1.00  0.00     0.163 HD
HETATM   31  O   UNL     1      44.874 -16.682   6.730  1.00  0.00    -0.268 OA
BRANCH  29  32
HETATM   32  C   UNL     1      44.245 -18.601   4.758  1.00  0.00     0.084 C 
HETATM   33  C   UNL     1      43.592 -19.554   5.753  1.00  0.00     0.025 C 
HETATM   34  C   UNL     1      43.968 -20.920   5.206  1.00  0.00     0.002 C 
HETATM   35  C   UNL     1      43.866 -20.766   3.693  1.00  0.00     0.002 C 
HETATM   36  C   UNL     1      43.985 -19.267   3.404  1.00  0.00     0.025 C 
ENDBRANCH  29  32
ENDBRANCH  12  28
TORSDOF 7
ENDMDL
MODEL 3
REMARK VINA RESULT:      -9.0      1.885      5.807
REMARK  7 active torsions:
REMARK  status: ('A' for Active; 'I' for Inactive)
REMARK    1  A    between atoms: C_2  and  O_3 
REMARK    2  A    between atoms: O_3  and  C_4 
REMARK    3  A    between atoms: C_5  and  N_6 
REMARK       I    between atoms: N_6  and  C_7 
REMARK    4  A    between atoms: C_7  and  C_8 
REMARK    5  A    between atoms: C_8  and  N_9 
REMARK    6  A    between atoms: C_20  and  C_21 
REMARK       I    between atoms: C_21  and  N_22 
REMARK    7  A    between atoms: N_22  and  C_23 
ROOT
HETATM    1  N   UNL     1      42.044 -13.205   5.980  1.00  0.00    -0.304 N 
HETATM    2  C   UNL     1      43.230 -12.990   6.691  1.00  0.00     0.259 C 
HETATM    3  O   UNL     1      43.667 -13.783   7.525  1.00  0.00    -0.270 OA
HETATM    4  C   UNL     1      43.886 -11.627   6.400  1.00  0.00     0.141 C 
HETATM    5  C   UNL     1      43.078 -10.507   7.076  1.00  0.00     0.057 C 
HETATM    6  C   UNL     1      45.312 -11.612   6.965  1.00  0.00     0.057 C 
HETATM    7  O   UNL     1      44.007 -11.343   5.006  1.00  0.00    -0.329 OA
HETATM    8  C   UNL     1      42.929 -11.722   4.251  1.00  0.00     0.097 A 
HETATM    9  C   UNL     1      41.921 -12.597   4.694  1.00  0.00     0.072 A 
HETATM   10  C   UNL     1      42.921 -11.198   2.955  1.00  0.00     0.040 A 
HETATM   11  C   UNL     1      41.888 -11.515   2.078  1.00  0.00     0.020 A 
HETATM   12  C   UNL     1      40.850 -12.344   2.509  1.00  0.00     0.034 A 
HETATM   13  C   UNL     1      40.873 -12.884   3.808  1.00  0.00     0.049 A 
ENDROOT
BRANCH   1  14
HETATM   14  C   UNL     1      41.237 -14.349   6.394  1.00  0.00     0.235 C 
BRANCH  14  15
HETATM   15  C   UNL     1      41.489 -15.598   5.525  1.00  0.00     0.240 C 
HETATM   16  N   UNL     1      42.762 -16.107   5.712  1.00  0.00    -0.323 N 
HETATM   17  H   UNL     1      43.491 -15.491   6.060  1.00  0.00     0.169 HD
HETATM   18  O   UNL     1      40.660 -16.042   4.733  1.00  0.00    -0.271 OA
BRANCH  16  19
HETATM   19  C   UNL     1      43.200 -17.419   5.437  1.00  0.00     0.068 A 
HETATM   20  C   UNL     1      43.749 -17.670   4.165  1.00  0.00     0.095 A 
HETATM   21  C   UNL     1      44.324 -18.914   3.886  1.00  0.00     0.039 A 
HETATM   22  C   UNL     1      44.324 -19.915   4.858  1.00  0.00     0.003 A 
HETATM   23  C   UNL     1      43.750 -19.678   6.106  1.00  0.00     0.002 A 
HETATM   24  C   UNL     1      43.189 -18.432   6.396  1.00  0.00     0.032 A 
BRANCH  20  25
HETATM   25  O   UNL     1      43.700 -16.630   3.264  1.00  0.00    -0.349 OA
BRANCH  25  26
HETATM   26  C   UNL     1      42.894 -16.866   2.107  1.00  0.00     0.171 C 
HETATM   27  C   UNL     1      42.507 -15.522   1.517  1.00  0.00     0.034 C 
ENDBRANCH  25  26
ENDBRANCH  20  25
ENDBRANCH  16  19
ENDBRANCH  14  15
ENDBRANCH   1  14
BRANCH  12  28
HETATM   28  C   UNL     1      39.729 -12.731   1.607  1.00  0.00     0.252 C 
HETATM   29  N   UNL     1      40.067 -13.054   0.310  1.00  0.00    -0.352 N 
HETATM   30  H   UNL     1      41.021 -12.955  -0.005  1.00  0.00     0.163 HD
HETATM   31  O   UNL     1      38.579 -12.727   2.029  1.00  0.00    -0.268 OA
BRANCH  29  32
HETATM   32  C   UNL     1      39.069 -13.486  -0.645  1.00  0.00     0.084 C 
HETATM   33  C   UNL     1      38.478 -12.325  -1.438  1.00  0.00     0.025 C 
HETATM   34  C   UNL     1      37.830 -13.023  -2.622  1.00  0.00     0.002 C 
HETATM   35  C   UNL     1      38.800 -14.143  -2.982  1.00  0.00     0.002 C 
HETATM   36  C   UNL     1      39.640 -14.404  -1.729  1.00  0.00     0.025 C 
ENDBRANCH  29  32
ENDBRANCH  12  28
TORSDOF 7
ENDMDL
MODEL 4
REMARK VINA RESULT:      -8.9      2.513      8.302
REMARK  7 active torsions:
REMARK  status: ('A' for Active; 'I' for Inactive)
REMARK    1  A    between atoms: C_2  and  O_3 
REMARK    2  A    between atoms: O_3  and  C_4 
REMARK    3  A    between atoms: C_5  and  N_6 
REMARK       I    between atoms: N_6  and  C_7 
REMARK    4  A    between atoms: C_7  and  C_8 
REMARK    5  A    between atoms: C_8  and  N_9 
REMARK    6  A    between atoms: C_20  and  C_21 
REMARK       I    between atoms: C_21  and  N_22 
REMARK    7  A    between atoms: N_22  and  C_23 
ROOT
HETATM    1  N   UNL     1      39.989 -13.558  -0.190  1.00  0.00    -0.304 N 
HETATM    2  C   UNL     1      39.130 -13.838  -1.258  1.00  0.00     0.259 C 
HETATM    3  O   UNL     1      39.128 -14.916  -1.854  1.00  0.00    -0.270 OA
HETATM    4  C   UNL     1      38.255 -12.642  -1.677  1.00  0.00     0.141 C 
HETATM    5  C   UNL     1      39.114 -11.605  -2.419  1.00  0.00     0.057 C 
HETATM    6  C   UNL     1      37.145 -13.123  -2.620  1.00  0.00     0.057 C 
HETATM    7  O   UNL     1      37.598 -12.009  -0.579  1.00  0.00    -0.329 OA
HETATM    8  C   UNL     1      38.360 -11.894   0.553  1.00  0.00     0.097 A 
HETATM    9  C   UNL     1      39.558 -12.598   0.775  1.00  0.00     0.072 A 
HETATM   10  C   UNL     1      37.831 -11.035   1.520  1.00  0.00     0.040 A 
HETATM   11  C   UNL     1      38.500 -10.838   2.723  1.00  0.00     0.020 A 
HETATM   12  C   UNL     1      39.715 -11.488   2.950  1.00  0.00     0.034 A 
HETATM   13  C   UNL     1      40.235 -12.366   1.981  1.00  0.00     0.049 A 
ENDROOT
BRANCH   1  14
HETATM   14  C   UNL     1      41.023 -14.550   0.090  1.00  0.00     0.235 C 
BRANCH  14  15
HETATM   15  C   UNL     1      40.660 -15.465   1.278  1.00  0.00     0.240 C 
HETATM   16  N   UNL     1      41.748 -15.697   2.100  1.00  0.00    -0.323 N 
HETATM   17  H   UNL     1      42.684 -15.594   1.718  1.00  0.00     0.169 HD
HETATM   18  O   UNL     1      39.543 -15.955   1.430  1.00  0.00    -0.271 OA
BRANCH  16  19
HETATM   19  C   UNL     1      41.720 -16.107   3.449  1.00  0.00     0.068 A 
HETATM   20  C   UNL     1      42.775 -16.921   3.905  1.00  0.00     0.095 A 
HETATM   21  C   UNL     1      42.872 -17.243   5.263  1.00  0.00     0.039 A 
HETATM   22  C   UNL     1      41.905 -16.785   6.158  1.00  0.00     0.003 A 
HETATM   23  C   UNL     1      40.841 -16.007   5.701  1.00  0.00     0.002 A 
HETATM   24  C   UNL     1      40.749 -15.668   4.350  1.00  0.00     0.032 A 
BRANCH  20  25
HETATM   25  O   UNL     1      43.680 -17.335   2.954  1.00  0.00    -0.349 OA
BRANCH  25  26
HETATM   26  C   UNL     1      44.105 -18.696   3.072  1.00  0.00     0.171 C 
HETATM   27  C   UNL     1      43.217 -19.547   2.181  1.00  0.00     0.034 C 
ENDBRANCH  25  26
ENDBRANCH  20  25
ENDBRANCH  16  19
ENDBRANCH  14  15
ENDBRANCH   1  14
BRANCH  12  28
HETATM   28  C   UNL     1      40.464 -11.328   4.227  1.00  0.00     0.252 C 
HETATM   29  N   UNL     1      41.589 -12.110   4.383  1.00  0.00    -0.352 N 
HETATM   30  H   UNL     1      41.828 -12.799   3.684  1.00  0.00     0.163 HD
HETATM   31  O   UNL     1      40.056 -10.547   5.079  1.00  0.00    -0.268 OA
BRANCH  29  32
HETATM   32  C   UNL     1      42.420 -12.011   5.563  1.00  0.00     0.084 C 
HETATM   33  C   UNL     1      43.218 -13.284   5.825  1.00  0.00     0.025 C 
HETATM   34  C   UNL     1      44.295 -12.813   6.788  1.00  0.00     0.002 C 
HETATM   35  C   UNL     1      44.681 -11.428   6.281  1.00  0.00     0.002 C 
HETATM   36  C   UNL     1      43.499 -10.932   5.443  1.00  0.00     0.025 C 
ENDBRANCH  29  32
ENDBRANCH  12  28
TORSDOF 7
ENDMDL
MODEL 5
REMARK VINA RESULT:      -8.8      1.779      8.933
REMARK  7 active torsions:
REMARK  status: ('A' for Active; 'I' for Inactive)
REMARK    1  A    between atoms: C_2  and  O_3 
REMARK    2  A    between atoms: O_3  and  C_4 
REMARK    3  A    between atoms: C_5  and  N_6 
REMARK       I    between atoms: N_6  and  C_7 
REMARK    4  A    between atoms: C_7  and  C_8 
REMARK    5  A    between atoms: C_8  and  N_9 
REMARK    6  A    between atoms: C_20  and  C_21 
REMARK       I    between atoms: C_21  and  N_22 
REMARK    7  A    between atoms: N_22  and  C_23 
ROOT
HETATM    1  N   UNL     1      42.499 -13.855   3.043  1.00  0.00    -0.304 N 
HETATM    2  C   UNL     1      42.687 -15.100   2.432  1.00  0.00     0.259 C 
HETATM    3  O   UNL     1      42.942 -15.228   1.235  1.00  0.00    -0.270 OA
HETATM    4  C   UNL     1      42.456 -16.293   3.377  1.00  0.00     0.141 C 
HETATM    5  C   UNL     1      40.950 -16.461   3.642  1.00  0.00     0.057 C 
HETATM    6  C   UNL     1      42.984 -17.576   2.725  1.00  0.00     0.057 C 
HETATM    7  O   UNL     1      43.139 -16.169   4.625  1.00  0.00    -0.329 OA
HETATM    8  C   UNL     1      43.135 -14.907   5.155  1.00  0.00     0.097 A 
HETATM    9  C   UNL     1      42.791 -13.747   4.437  1.00  0.00     0.072 A 
HETATM   10  C   UNL     1      43.548 -14.841   6.489  1.00  0.00     0.040 A 
HETATM   11  C   UNL     1      43.602 -13.615   7.146  1.00  0.00     0.020 A 
HETATM   12  C   UNL     1      43.220 -12.455   6.469  1.00  0.00     0.034 A 
HETATM   13  C   UNL     1      42.823 -12.524   5.121  1.00  0.00     0.049 A 
ENDROOT
BRANCH   1  14
HETATM   14  C   UNL     1      42.446 -12.697   2.155  1.00  0.00     0.235 C 
BRANCH  14  15
HETATM   15  C   UNL     1      41.127 -12.621   1.359  1.00  0.00     0.240 C 
HETATM   16  N   UNL     1      41.324 -12.865   0.011  1.00  0.00    -0.323 N 
HETATM   17  H   UNL     1      42.246 -12.709  -0.386  1.00  0.00     0.169 HD
HETATM   18  O   UNL     1      40.049 -12.332   1.873  1.00  0.00    -0.271 OA
BRANCH  16  19
HETATM   19  C   UNL     1      40.359 -13.288  -0.925  1.00  0.00     0.068 A 
HETATM   20  C   UNL     1      40.000 -12.385  -1.945  1.00  0.00     0.095 A 
HETATM   21  C   UNL     1      39.153 -12.799  -2.978  1.00  0.00     0.039 A 
HETATM   22  C   UNL     1      38.638 -14.096  -2.979  1.00  0.00     0.003 A 
HETATM   23  C   UNL     1      38.966 -14.979  -1.951  1.00  0.00     0.002 A 
HETATM   24  C   UNL     1      39.825 -14.577  -0.926  1.00  0.00     0.032 A 
BRANCH  20  25
HETATM   25  O   UNL     1      40.547 -11.124  -1.862  1.00  0.00    -0.349 OA
BRANCH  25  26
HETATM   26  C   UNL     1      39.611 -10.048  -1.970  1.00  0.00     0.171 C 
HETATM   27  C   UNL     1      38.951  -9.858  -0.616  1.00  0.00     0.034 C 
ENDBRANCH  25  26
ENDBRANCH  20  25
ENDBRANCH  16  19
ENDBRANCH  14  15
ENDBRANCH   1  14
BRANCH  12  28
HETATM   28  C   UNL     1      43.276 -11.115   7.117  1.00  0.00     0.252 C 
HETATM   29  N   UNL     1      43.574 -11.093   8.463  1.00  0.00    -0.352 N 
HETATM   30  H   UNL     1      43.674 -11.959   8.974  1.00  0.00     0.163 HD
HETATM   31  O   UNL     1      43.040 -10.109   6.457  1.00  0.00    -0.268 OA
BRANCH  29  32
HETATM   32  C   UNL     1      43.697  -9.848   9.190  1.00  0.00     0.084 C 
HETATM   33  C   UNL     1      42.354  -9.324   9.684  1.00  0.00     0.025 C 
HETATM   34  C   UNL     1      42.757  -8.314  10.745  1.00  0.00     0.002 C 
HETATM   35  C   UNL     1      43.947  -8.957  11.450  1.00  0.00     0.002 C 
HETATM   36  C   UNL     1      44.520  -9.987  10.474  1.00  0.00     0.025 C 
ENDBRANCH  29  32
ENDBRANCH  12  28
TORSDOF 7
ENDMDL
MODEL 6
REMARK VINA RESULT:      -8.7      2.655      8.402
REMARK  7 active torsions:
REMARK  status: ('A' for Active; 'I' for Inactive)
REMARK    1  A    between atoms: C_2  and  O_3 
REMARK    2  A    between atoms: O_3  and  C_4 
REMARK    3  A    between atoms: C_5  and  N_6 
REMARK       I    between atoms: N_6  and  C_7 
REMARK    4  A    between atoms: C_7  and  C_8 
REMARK    5  A    between atoms: C_8  and  N_9 
REMARK    6  A    between atoms: C_20  and  C_21 
REMARK       I    between atoms: C_21  and  N_22 
REMARK    7  A    between atoms: N_22  and  C_23 
ROOT
HETATM    1  N   UNL     1      40.775 -13.065   3.751  1.00  0.00    -0.304 N 
HETATM    2  C   UNL     1      40.072 -11.884   4.013  1.00  0.00     0.259 C 
HETATM    3  O   UNL     1      38.907 -11.704   3.657  1.00  0.00    -0.270 OA
HETATM    4  C   UNL     1      40.919 -10.801   4.706  1.00  0.00     0.141 C 
HETATM    5  C   UNL     1      41.905 -10.189   3.697  1.00  0.00     0.057 C 
HETATM    6  C   UNL     1      40.002  -9.689   5.230  1.00  0.00     0.057 C 
HETATM    7  O   UNL     1      41.644 -11.285   5.836  1.00  0.00    -0.329 OA
HETATM    8  C   UNL     1      42.187 -12.533   5.675  1.00  0.00     0.097 A 
HETATM    9  C   UNL     1      41.826 -13.425   4.649  1.00  0.00     0.072 A 
HETATM   10  C   UNL     1      43.120 -12.886   6.652  1.00  0.00     0.040 A 
HETATM   11  C   UNL     1      43.738 -14.132   6.613  1.00  0.00     0.020 A 
HETATM   12  C   UNL     1      43.434 -15.018   5.578  1.00  0.00     0.034 A 
HETATM   13  C   UNL     1      42.479 -14.665   4.607  1.00  0.00     0.049 A 
ENDROOT
BRANCH   1  14
HETATM   14  C   UNL     1      40.121 -14.030   2.872  1.00  0.00     0.235 C 
BRANCH  14  15
HETATM   15  C   UNL     1      40.556 -13.880   1.400  1.00  0.00     0.240 C 
HETATM   16  N   UNL     1      39.943 -12.800   0.790  1.00  0.00    -0.323 N 
HETATM   17  H   UNL     1      39.066 -12.454   1.169  1.00  0.00     0.169 HD
HETATM   18  O   UNL     1      41.321 -14.664   0.843  1.00  0.00    -0.271 OA
BRANCH  16  19
HETATM   19  C   UNL     1      40.382 -12.112  -0.359  1.00  0.00     0.068 A 
HETATM   20  C   UNL     1      39.958 -12.597  -1.612  1.00  0.00     0.095 A 
HETATM   21  C   UNL     1      40.249 -11.876  -2.774  1.00  0.00     0.039 A 
HETATM   22  C   UNL     1      40.987 -10.694  -2.695  1.00  0.00     0.003 A 
HETATM   23  C   UNL     1      41.435 -10.232  -1.459  1.00  0.00     0.002 A 
HETATM   24  C   UNL     1      41.134 -10.938  -0.293  1.00  0.00     0.032 A 
BRANCH  20  25
HETATM   25  O   UNL     1      39.243 -13.773  -1.599  1.00  0.00    -0.349 OA
BRANCH  25  26
HETATM   26  C   UNL     1      38.059 -13.773  -2.401  1.00  0.00     0.171 C 
HETATM   27  C   UNL     1      38.248 -14.776  -3.524  1.00  0.00     0.034 C 
ENDBRANCH  25  26
ENDBRANCH  20  25
ENDBRANCH  16  19
ENDBRANCH  14  15
ENDBRANCH   1  14
BRANCH  12  28
HETATM   28  C   UNL     1      44.051 -16.372   5.497  1.00  0.00     0.252 C 
HETATM   29  N   UNL     1      43.648 -17.170   4.448  1.00  0.00    -0.352 N 
HETATM   30  H   UNL     1      42.918 -16.857   3.823  1.00  0.00     0.163 HD
HETATM   31  O   UNL     1      44.854 -16.727   6.352  1.00  0.00    -0.268 OA
BRANCH  29  32
HETATM   32  C   UNL     1      44.209 -18.488   4.242  1.00  0.00     0.084 C 
HETATM   33  C   UNL     1      43.739 -19.494   5.287  1.00  0.00     0.025 C 
HETATM   34  C   UNL     1      44.071 -20.829   4.642  1.00  0.00     0.002 C 
HETATM   35  C   UNL     1      43.744 -20.631   3.166  1.00  0.00     0.002 C 
HETATM   36  C   UNL     1      43.774 -19.121   2.917  1.00  0.00     0.025 C 
ENDBRANCH  29  32
ENDBRANCH  12  28
TORSDOF 7
ENDMDL
MODEL 7
REMARK VINA RESULT:      -8.5      2.604      8.971
REMARK  7 active torsions:
REMARK  status: ('A' for Active; 'I' for Inactive)
REMARK    1  A    between atoms: C_2  and  O_3 
REMARK    2  A    between atoms: O_3  and  C_4 
REMARK    3  A    between atoms: C_5  and  N_6 
REMARK       I    between atoms: N_6  and  C_7 
REMARK    4  A    between atoms: C_7  and  C_8 
REMARK    5  A    between atoms: C_8  and  N_9 
REMARK    6  A    between atoms: C_20  and  C_21 
REMARK       I    between atoms: C_21  and  N_22 
REMARK    7  A    between atoms: N_22  and  C_23 
ROOT
HETATM    1  N   UNL     1      40.625 -12.027   4.381  1.00  0.00    -0.304 N 
HETATM    2  C   UNL     1      39.840 -12.207   3.236  1.00  0.00     0.259 C 
HETATM    3  O   UNL     1      39.092 -13.173   3.080  1.00  0.00    -0.270 OA
HETATM    4  C   UNL     1      40.069 -11.135   2.155  1.00  0.00     0.141 C 
HETATM    5  C   UNL     1      41.425 -11.372   1.468  1.00  0.00     0.057 C 
HETATM    6  C   UNL     1      38.962 -11.227   1.098  1.00  0.00     0.057 C 
HETATM    7  O   UNL     1      40.027  -9.801   2.661  1.00  0.00    -0.329 OA
HETATM    8  C   UNL     1      40.626  -9.634   3.882  1.00  0.00     0.097 A 
HETATM    9  C   UNL     1      40.975 -10.691   4.742  1.00  0.00     0.072 A 
HETATM   10  C   UNL     1      40.834  -8.301   4.244  1.00  0.00     0.040 A 
HETATM   11  C   UNL     1      41.424  -7.991   5.466  1.00  0.00     0.020 A 
HETATM   12  C   UNL     1      41.824  -9.022   6.318  1.00  0.00     0.034 A 
HETATM   13  C   UNL     1      41.594 -10.363   5.957  1.00  0.00     0.049 A 
ENDROOT
BRANCH   1  14
HETATM   14  C   UNL     1      40.654 -13.137   5.330  1.00  0.00     0.235 C 
BRANCH  14  15
HETATM   15  C   UNL     1      41.856 -14.077   5.104  1.00  0.00     0.240 C 
HETATM   16  N   UNL     1      41.458 -15.394   4.957  1.00  0.00    -0.323 N 
HETATM   17  H   UNL     1      40.566 -15.684   5.345  1.00  0.00     0.169 HD
HETATM   18  O   UNL     1      43.022 -13.688   5.105  1.00  0.00    -0.271 OA
BRANCH  16  19
HETATM   19  C   UNL     1      42.181 -16.435   4.339  1.00  0.00     0.068 A 
HETATM   20  C   UNL     1      41.947 -16.669   2.971  1.00  0.00     0.095 A 
HETATM   21  C   UNL     1      42.733 -17.594   2.276  1.00  0.00     0.039 A 
HETATM   22  C   UNL     1      43.726 -18.308   2.948  1.00  0.00     0.003 A 
HETATM   23  C   UNL     1      43.935 -18.101   4.311  1.00  0.00     0.002 A 
HETATM   24  C   UNL     1      43.165 -17.166   5.006  1.00  0.00     0.032 A 
BRANCH  20  25
HETATM   25  O   UNL     1      40.943 -15.928   2.389  1.00  0.00    -0.349 OA
BRANCH  25  26
HETATM   26  C   UNL     1      41.345 -15.139   1.265  1.00  0.00     0.171 C 
HETATM   27  C   UNL     1      40.146 -14.978   0.348  1.00  0.00     0.034 C 
ENDBRANCH  25  26
ENDBRANCH  20  25
ENDBRANCH  16  19
ENDBRANCH  14  15
ENDBRANCH   1  14
BRANCH  12  28
HETATM   28  C   UNL     1      42.442  -8.748   7.645  1.00  0.00     0.252 C 
HETATM   29  N   UNL     1      42.137  -9.630   8.660  1.00  0.00    -0.352 N 
HETATM   30  H   UNL     1      41.470 -10.372   8.504  1.00  0.00     0.163 HD
HETATM   31  O   UNL     1      43.161  -7.767   7.791  1.00  0.00    -0.268 OA
BRANCH  29  32
HETATM   32  C   UNL     1      42.711  -9.490   9.981  1.00  0.00     0.084 C 
HETATM   33  C   UNL     1      41.679  -9.664  11.089  1.00  0.00     0.025 C 
HETATM   34  C   UNL     1      42.542  -9.916  12.315  1.00  0.00     0.002 C 
HETATM   35  C   UNL     1      43.681 -10.793  11.805  1.00  0.00     0.002 C 
HETATM   36  C   UNL     1      43.756 -10.566  10.293  1.00  0.00     0.025 C 
ENDBRANCH  29  32
ENDBRANCH  12  28
TORSDOF 7
ENDMDL
MODEL 8
REMARK VINA RESULT:      -8.5      2.549      7.918
REMARK  7 active torsions:
REMARK  status: ('A' for Active; 'I' for Inactive)
REMARK    1  A    between atoms: C_2  and  O_3 
REMARK    2  A    between atoms: O_3  and  C_4 
REMARK    3  A    between atoms: C_5  and  N_6 
REMARK       I    between atoms: N_6  and  C_7 
REMARK    4  A    between atoms: C_7  and  C_8 
REMARK    5  A    between atoms: C_8  and  N_9 
REMARK    6  A    between atoms: C_20  and  C_21 
REMARK       I    between atoms: C_21  and  N_22 
REMARK    7  A    between atoms: N_22  and  C_23 
ROOT
HETATM    1  N   UNL     1      41.823 -11.305   3.663  1.00  0.00    -0.304 N 
HETATM    2  C   UNL     1      41.055 -10.367   4.363  1.00  0.00     0.259 C 
HETATM    3  O   UNL     1      40.420  -9.471   3.809  1.00  0.00    -0.270 OA
HETATM    4  C   UNL     1      41.156 -10.506   5.894  1.00  0.00     0.141 C 
HETATM    5  C   UNL     1      42.525  -9.995   6.373  1.00  0.00     0.057 C 
HETATM    6  C   UNL     1      40.059  -9.666   6.559  1.00  0.00     0.057 C 
HETATM    7  O   UNL     1      40.967 -11.844   6.355  1.00  0.00    -0.329 OA
HETATM    8  C   UNL     1      41.551 -12.805   5.574  1.00  0.00     0.097 A 
HETATM    9  C   UNL     1      42.023 -12.584   4.267  1.00  0.00     0.072 A 
HETATM   10  C   UNL     1      41.611 -14.070   6.164  1.00  0.00     0.040 A 
HETATM   11  C   UNL     1      42.170 -15.141   5.473  1.00  0.00     0.020 A 
HETATM   12  C   UNL     1      42.689 -14.937   4.192  1.00  0.00     0.034 A 
HETATM   13  C   UNL     1      42.609 -13.665   3.595  1.00  0.00     0.049 A 
ENDROOT
BRANCH   1  14
HETATM   14  C   UNL     1      41.983 -11.074   2.230  1.00  0.00     0.235 C 
BRANCH  14  15
HETATM   15  C   UNL     1      40.750 -11.519   1.417  1.00  0.00     0.240 C 
HETATM   16  N   UNL     1      41.067 -11.757   0.092  1.00  0.00    -0.323 N 
HETATM   17  H   UNL     1      41.886 -11.308  -0.306  1.00  0.00     0.169 HD
HETATM   18  O   UNL     1      39.623 -11.601   1.900  1.00  0.00    -0.271 OA
BRANCH  16  19
HETATM   19  C   UNL     1      40.345 -12.550  -0.824  1.00  0.00     0.068 A 
HETATM   20  C   UNL     1      40.201 -13.919  -0.530  1.00  0.00     0.095 A 
HETATM   21  C   UNL     1      39.382 -14.723  -1.329  1.00  0.00     0.039 A 
HETATM   22  C   UNL     1      38.734 -14.174  -2.436  1.00  0.00     0.003 A 
HETATM   23  C   UNL     1      38.903 -12.826  -2.748  1.00  0.00     0.002 A 
HETATM   24  C   UNL     1      39.707 -12.014  -1.944  1.00  0.00     0.032 A 
BRANCH  20  25
HETATM   25  O   UNL     1      40.882 -14.379   0.575  1.00  0.00    -0.349 OA
BRANCH  25  26
HETATM   26  C   UNL     1      40.386 -15.602   1.128  1.00  0.00     0.171 C 
HETATM   27  C   UNL     1      39.647 -15.275   2.413  1.00  0.00     0.034 C 
ENDBRANCH  25  26
ENDBRANCH  20  25
ENDBRANCH  16  19
ENDBRANCH  14  15
ENDBRANCH   1  14
BRANCH  12  28
HETATM   28  C   UNL     1      43.281 -16.050   3.399  1.00  0.00     0.252 C 
HETATM   29  N   UNL     1      43.397 -17.266   4.037  1.00  0.00    -0.352 N 
HETATM   30  H   UNL     1      43.153 -17.352   5.014  1.00  0.00     0.163 HD
HETATM   31  O   UNL     1      43.654 -15.847   2.250  1.00  0.00    -0.268 OA
BRANCH  29  32
HETATM   32  C   UNL     1      43.919 -18.431   3.355  1.00  0.00     0.084 C 
HETATM   33  C   UNL     1      43.955 -19.665   4.249  1.00  0.00     0.025 C 
HETATM   34  C   UNL     1      44.098 -20.800   3.249  1.00  0.00     0.002 C 
HETATM   35  C   UNL     1      43.212 -20.389   2.077  1.00  0.00     0.002 C 
HETATM   36  C   UNL     1      43.046 -18.870   2.175  1.00  0.00     0.025 C 
ENDBRANCH  29  32
ENDBRANCH  12  28
TORSDOF 7
ENDMDL
MODEL 9
REMARK VINA RESULT:      -8.4      2.520      8.087
REMARK  7 active torsions:
REMARK  status: ('A' for Active; 'I' for Inactive)
REMARK    1  A    between atoms: C_2  and  O_3 
REMARK    2  A    between atoms: O_3  and  C_4 
REMARK    3  A    between atoms: C_5  and  N_6 
REMARK       I    between atoms: N_6  and  C_7 
REMARK    4  A    between atoms: C_7  and  C_8 
REMARK    5  A    between atoms: C_8  and  N_9 
REMARK    6  A    between atoms: C_20  and  C_21 
REMARK       I    between atoms: C_21  and  N_22 
REMARK    7  A    between atoms: N_22  and  C_23 
ROOT
HETATM    1  N   UNL     1      39.847 -13.987   0.415  1.00  0.00    -0.304 N 
HETATM    2  C   UNL     1      39.461 -13.968  -0.930  1.00  0.00     0.259 C 
HETATM    3  O   UNL     1      39.126 -14.980  -1.546  1.00  0.00    -0.270 OA
HETATM    4  C   UNL     1      39.582 -12.582  -1.590  1.00  0.00     0.141 C 
HETATM    5  C   UNL     1      41.065 -12.252  -1.835  1.00  0.00     0.057 C 
HETATM    6  C   UNL     1      38.852 -12.588  -2.938  1.00  0.00     0.057 C 
HETATM    7  O   UNL     1      38.990 -11.535  -0.821  1.00  0.00    -0.329 OA
HETATM    8  C   UNL     1      39.192 -11.634   0.530  1.00  0.00     0.097 A 
HETATM    9  C   UNL     1      39.648 -12.796   1.179  1.00  0.00     0.072 A 
HETATM   10  C   UNL     1      38.864 -10.481   1.248  1.00  0.00     0.040 A 
HETATM   11  C   UNL     1      39.010 -10.452   2.631  1.00  0.00     0.020 A 
HETATM   12  C   UNL     1      39.506 -11.576   3.295  1.00  0.00     0.034 A 
HETATM   13  C   UNL     1      39.817 -12.742   2.569  1.00  0.00     0.049 A 
ENDROOT
BRANCH   1  14
HETATM   14  C   UNL     1      40.006 -15.302   1.028  1.00  0.00     0.235 C 
BRANCH  14  15
HETATM   15  C   UNL     1      41.414 -15.512   1.621  1.00  0.00     0.240 C 
HETATM   16  N   UNL     1      41.407 -16.442   2.645  1.00  0.00    -0.323 N 
HETATM   17  H   UNL     1      40.540 -16.616   3.146  1.00  0.00     0.169 HD
HETATM   18  O   UNL     1      42.401 -14.884   1.244  1.00  0.00    -0.271 OA
BRANCH  16  19
HETATM   19  C   UNL     1      42.505 -17.186   3.125  1.00  0.00     0.068 A 
HETATM   20  C   UNL     1      42.941 -16.931   4.439  1.00  0.00     0.095 A 
HETATM   21  C   UNL     1      43.934 -17.732   5.013  1.00  0.00     0.039 A 
HETATM   22  C   UNL     1      44.515 -18.761   4.270  1.00  0.00     0.003 A 
HETATM   23  C   UNL     1      44.107 -18.991   2.957  1.00  0.00     0.002 A 
HETATM   24  C   UNL     1      43.104 -18.206   2.384  1.00  0.00     0.032 A 
BRANCH  20  25
HETATM   25  O   UNL     1      42.320 -15.892   5.096  1.00  0.00    -0.349 OA
BRANCH  25  26
HETATM   26  C   UNL     1      43.185 -14.825   5.496  1.00  0.00     0.171 C 
HETATM   27  C   UNL     1      42.838 -13.600   4.669  1.00  0.00     0.034 C 
ENDBRANCH  25  26
ENDBRANCH  20  25
ENDBRANCH  16  19
ENDBRANCH  14  15
ENDBRANCH   1  14
BRANCH  12  28
HETATM   28  C   UNL     1      39.665 -11.607   4.775  1.00  0.00     0.252 C 
HETATM   29  N   UNL     1      40.369 -10.565   5.341  1.00  0.00    -0.352 N 
HETATM   30  H   UNL     1      40.805  -9.870   4.752  1.00  0.00     0.163 HD
HETATM   31  O   UNL     1      39.198 -12.540   5.419  1.00  0.00    -0.268 OA
BRANCH  29  32
HETATM   32  C   UNL     1      40.552 -10.466   6.773  1.00  0.00     0.084 C 
HETATM   33  C   UNL     1      41.695  -9.532   7.153  1.00  0.00     0.025 C 
HETATM   34  C   UNL     1      41.421  -9.245   8.620  1.00  0.00     0.002 C 
HETATM   35  C   UNL     1      39.903  -9.122   8.706  1.00  0.00     0.002 C 
HETATM   36  C   UNL     1      39.342  -9.858   7.487  1.00  0.00     0.025 C 
ENDBRANCH  29  32
ENDBRANCH  12  28
TORSDOF 7
ENDMDL
MODEL 10
REMARK VINA RESULT:      -8.4      2.985      7.216
REMARK  7 active torsions:
REMARK  status: ('A' for Active; 'I' for Inactive)
REMARK    1  A    between atoms: C_2  and  O_3 
REMARK    2  A    between atoms: O_3  and  C_4 
REMARK    3  A    between atoms: C_5  and  N_6 
REMARK       I    between atoms: N_6  and  C_7 
REMARK    4  A    between atoms: C_7  and  C_8 
REMARK    5  A    between atoms: C_8  and  N_9 
REMARK    6  A    between atoms: C_20  and  C_21 
REMARK       I    between atoms: C_21  and  N_22 
REMARK    7  A    between atoms: N_22  and  C_23 
ROOT
HETATM    1  N   UNL     1      42.327 -14.822   2.674  1.00  0.00    -0.304 N 
HETATM    2  C   UNL     1      42.982 -15.729   3.514  1.00  0.00     0.259 C 
HETATM    3  O   UNL     1      43.498 -16.770   3.106  1.00  0.00    -0.270 OA
HETATM    4  C   UNL     1      42.915 -15.350   5.005  1.00  0.00     0.141 C 
HETATM    5  C   UNL     1      41.499 -15.614   5.545  1.00  0.00     0.057 C 
HETATM    6  C   UNL     1      43.909 -16.208   5.798  1.00  0.00     0.057 C 
HETATM    7  O   UNL     1      43.269 -13.991   5.261  1.00  0.00    -0.329 OA
HETATM    8  C   UNL     1      42.798 -13.095   4.339  1.00  0.00     0.097 A 
HETATM    9  C   UNL     1      42.289 -13.452   3.077  1.00  0.00     0.072 A 
HETATM   10  C   UNL     1      42.898 -11.758   4.731  1.00  0.00     0.040 A 
HETATM   11  C   UNL     1      42.466 -10.744   3.882  1.00  0.00     0.020 A 
HETATM   12  C   UNL     1      41.912 -11.074   2.643  1.00  0.00     0.034 A 
HETATM   13  C   UNL     1      41.831 -12.421   2.244  1.00  0.00     0.049 A 
ENDROOT
BRANCH   1  14
HETATM   14  C   UNL     1      42.124 -15.245   1.292  1.00  0.00     0.235 C 
BRANCH  14  15
HETATM   15  C   UNL     1      40.663 -15.077   0.829  1.00  0.00     0.240 C 
HETATM   16  N   UNL     1      40.557 -14.189  -0.227  1.00  0.00    -0.323 N 
HETATM   17  H   UNL     1      41.286 -13.494  -0.360  1.00  0.00     0.169 HD
HETATM   18  O   UNL     1      39.717 -15.639   1.376  1.00  0.00    -0.271 OA
BRANCH  16  19
HETATM   19  C   UNL     1      39.502 -14.101  -1.159  1.00  0.00     0.068 A 
HETATM   20  C   UNL     1      38.765 -12.902  -1.198  1.00  0.00     0.095 A 
HETATM   21  C   UNL     1      37.801 -12.707  -2.193  1.00  0.00     0.039 A 
HETATM   22  C   UNL     1      37.549 -13.715  -3.125  1.00  0.00     0.003 A 
HETATM   23  C   UNL     1      38.255 -14.915  -3.066  1.00  0.00     0.002 A 
HETATM   24  C   UNL     1      39.231 -15.108  -2.086  1.00  0.00     0.032 A 
BRANCH  20  25
HETATM   25  O   UNL     1      39.072 -11.966  -0.236  1.00  0.00    -0.349 OA
BRANCH  25  26
HETATM   26  C   UNL     1      37.948 -11.420   0.460  1.00  0.00     0.171 C 
HETATM   27  C   UNL     1      38.127 -11.701   1.941  1.00  0.00     0.034 C 
ENDBRANCH  25  26
ENDBRANCH  20  25
ENDBRANCH  16  19
ENDBRANCH  14  15
ENDBRANCH   1  14
BRANCH  12  28
HETATM   28  C   UNL     1      41.451 -10.030   1.686  1.00  0.00     0.252 C 
HETATM   29  N   UNL     1      41.728 -10.250   0.354  1.00  0.00    -0.352 N 
HETATM   30  H   UNL     1      42.280 -11.049   0.076  1.00  0.00     0.163 HD
HETATM   31  O   UNL     1      40.878  -9.031   2.105  1.00  0.00    -0.268 OA
BRANCH  29  32
HETATM   32  C   UNL     1      41.293  -9.326  -0.671  1.00  0.00     0.084 C 
HETATM   33  C   UNL     1      42.353  -8.284  -1.008  1.00  0.00     0.025 C 
HETATM   34  C   UNL     1      41.878  -7.742  -2.346  1.00  0.00     0.002 C 
HETATM   35  C   UNL     1      41.349  -8.966  -3.086  1.00  0.00     0.002 C 
HETATM   36  C   UNL     1      41.025 -10.010  -2.015  1.00  0.00     0.025 C 
ENDBRANCH  29  32
ENDBRANCH  12  28
TORSDOF 7
ENDMDL
