MODEL 1
REMARK VINA RESULT:      -9.2      0.000      0.000
REMARK  7 active torsions:
REMARK  status: ('A' for Active; 'I' for Inactive)
REMARK       I    between atoms: C_2  and  N_3 
REMARK    1  A    between atoms: N_3  and  C_4 
REMARK    2  A    between atoms: C_6  and  N_7 
REMARK       I    between atoms: N_7  and  C_8 
REMARK    3  A    between atoms: C_8  and  C_9 
REMARK       I    between atoms: C_9  and  N_10 
REMARK    4  A    between atoms: N_10  and  C_11 
REMARK    5  A    between atoms: C_11  and  C_12 
REMARK    6  A    between atoms: C_12  and  O_13 
REMARK    7  A    between atoms: C_12  and  C_14 
ROOT
HETATM    1  C   UNL     1      42.198 -13.940   6.386  1.00  0.00     0.309 C 
HETATM    2  N   UNL     1      42.915 -14.800   7.180  1.00  0.00    -0.350 N 
HETATM    3  O   UNL     1      41.240 -14.229   5.681  1.00  0.00    -0.262 OA
HETATM    4  H   UNL     1      43.797 -14.445   7.550  1.00  0.00     0.163 HD
ENDROOT
BRANCH   1   5
HETATM    5  C   UNL     1      42.737 -12.492   6.391  1.00  0.00     0.313 C 
HETATM    6  N   UNL     1      43.574 -12.259   7.461  1.00  0.00    -0.319 N 
HETATM    7  H   UNL     1      43.714 -13.068   8.065  1.00  0.00     0.169 HD
HETATM    8  O   UNL     1      42.367 -11.720   5.518  1.00  0.00    -0.262 OA
BRANCH   6   9
HETATM    9  C   UNL     1      44.170 -11.043   7.837  1.00  0.00     0.037 A 
HETATM   10  C   UNL     1      43.490 -10.023   8.508  1.00  0.00     0.059 A 
HETATM   11  C   UNL     1      44.152  -8.857   8.923  1.00  0.00     0.036 A 
HETATM   12  C   UNL     1      45.500  -8.700   8.606  1.00  0.00     0.029 A 
HETATM   13  C   UNL     1      46.183  -9.703   7.913  1.00  0.00     0.004 A 
HETATM   14  C   UNL     1      45.522 -10.871   7.535  1.00  0.00     0.029 A 
BRANCH  11  15
HETATM   15  N   UNL     1      43.374  -7.899   9.597  1.00  0.00    -0.327 N 
HETATM   16  C   UNL     1      43.126  -7.672  10.917  1.00  0.00     0.218 C 
HETATM   17  C   UNL     1      43.517  -8.676  11.964  1.00  0.00     0.117 C 
HETATM   18  O   UNL     1      42.518  -6.645  11.236  1.00  0.00    -0.274 OA
HETATM   19  H   UNL     1      42.868  -7.242   9.013  1.00  0.00     0.169 HD
ENDBRANCH  11  15
ENDBRANCH   6   9
ENDBRANCH   1   5
BRANCH   2  20
HETATM   20  C   UNL     1      42.741 -16.240   7.116  1.00  0.00     0.159 C 
BRANCH  20  21
HETATM   21  C   UNL     1      43.958 -16.929   6.477  1.00  0.00     0.171 C 
BRANCH  21  22
HETATM   22  O   UNL     1      45.112 -16.099   6.684  1.00  0.00    -0.389 OA
HETATM   23  H   UNL     1      45.457 -15.904   5.795  1.00  0.00     0.210 HD
ENDBRANCH  21  22
BRANCH  21  24
HETATM   24  C   UNL     1      43.746 -17.212   5.021  1.00  0.00     0.000 A 
HETATM   25  C   UNL     1      43.781 -18.499   4.395  1.00  0.00     0.001 A 
HETATM   26  C   UNL     1      43.532 -18.316   3.029  1.00  0.00     0.044 A 
HETATM   27  C   UNL     1      44.002 -19.808   4.875  1.00  0.00     0.014 A 
HETATM   28  C   UNL     1      43.507 -19.395   2.131  1.00  0.00     0.030 A 
HETATM   29  N   UNL     1      43.344 -16.964   2.837  1.00  0.00    -0.360 N 
HETATM   30  C   UNL     1      43.731 -20.681   2.633  1.00  0.00     0.002 A 
HETATM   31  C   UNL     1      43.973 -20.887   3.986  1.00  0.00     0.001 A 
HETATM   32  C   UNL     1      43.050 -16.305   1.584  1.00  0.00     0.155 C 
HETATM   33  C   UNL     1      43.471 -16.294   4.026  1.00  0.00     0.101 A 
ENDBRANCH  21  24
ENDBRANCH  20  21
ENDBRANCH   2  20
TORSDOF 7
ENDMDL
MODEL 2
REMARK VINA RESULT:      -8.9      2.548      4.080
REMARK  7 active torsions:
REMARK  status: ('A' for Active; 'I' for Inactive)
REMARK       I    between atoms: C_2  and  N_3 
REMARK    1  A    between atoms: N_3  and  C_4 
REMARK    2  A    between atoms: C_6  and  N_7 
REMARK       I    between atoms: N_7  and  C_8 
REMARK    3  A    between atoms: C_8  and  C_9 
REMARK       I    between atoms: C_9  and  N_10 
REMARK    4  A    between atoms: N_10  and  C_11 
REMARK    5  A    between atoms: C_11  and  C_12 
REMARK    6  A    between atoms: C_12  and  O_13 
REMARK    7  A    between atoms: C_12  and  C_14 
ROOT
HETATM    1  C   UNL     1      42.895 -13.542   2.327  1.00  0.00     0.309 C 
HETATM    2  N   UNL     1      41.554 -13.607   2.036  1.00  0.00    -0.350 N 
HETATM    3  O   UNL     1      43.769 -14.286   1.901  1.00  0.00    -0.262 OA
HETATM    4  H   UNL     1      40.937 -13.043   2.618  1.00  0.00     0.163 HD
ENDROOT
BRANCH   1   5
HETATM    5  C   UNL     1      43.259 -12.430   3.335  1.00  0.00     0.313 C 
HETATM    6  N   UNL     1      42.352 -12.358   4.371  1.00  0.00    -0.319 N 
HETATM    7  H   UNL     1      41.602 -13.046   4.318  1.00  0.00     0.169 HD
HETATM    8  O   UNL     1      44.240 -11.732   3.118  1.00  0.00    -0.262 OA
BRANCH   6   9
HETATM    9  C   UNL     1      42.311 -11.416   5.413  1.00  0.00     0.037 A 
HETATM   10  C   UNL     1      43.025 -11.551   6.607  1.00  0.00     0.059 A 
HETATM   11  C   UNL     1      43.004 -10.545   7.586  1.00  0.00     0.036 A 
HETATM   12  C   UNL     1      42.210  -9.419   7.377  1.00  0.00     0.029 A 
HETATM   13  C   UNL     1      41.472  -9.286   6.198  1.00  0.00     0.004 A 
HETATM   14  C   UNL     1      41.527 -10.278   5.219  1.00  0.00     0.029 A 
BRANCH  11  15
HETATM   15  N   UNL     1      43.766 -10.780   8.744  1.00  0.00    -0.327 N 
HETATM   16  C   UNL     1      44.964 -10.299   9.178  1.00  0.00     0.218 C 
HETATM   17  C   UNL     1      45.865  -9.521   8.261  1.00  0.00     0.117 C 
HETATM   18  O   UNL     1      45.326 -10.564  10.328  1.00  0.00    -0.274 OA
HETATM   19  H   UNL     1      43.383 -11.452   9.402  1.00  0.00     0.169 HD
ENDBRANCH  11  15
ENDBRANCH   6   9
ENDBRANCH   1   5
BRANCH   2  20
HETATM   20  C   UNL     1      40.970 -14.731   1.324  1.00  0.00     0.159 C 
BRANCH  20  21
HETATM   21  C   UNL     1      40.185 -15.653   2.272  1.00  0.00     0.171 C 
BRANCH  21  22
HETATM   22  O   UNL     1      38.975 -14.983   2.660  1.00  0.00    -0.389 OA
HETATM   23  H   UNL     1      38.677 -14.500   1.870  1.00  0.00     0.210 HD
ENDBRANCH  21  22
BRANCH  21  24
HETATM   24  C   UNL     1      40.993 -16.052   3.468  1.00  0.00     0.000 A 
HETATM   25  C   UNL     1      42.115 -16.944   3.474  1.00  0.00     0.001 A 
HETATM   26  C   UNL     1      42.575 -17.040   4.792  1.00  0.00     0.044 A 
HETATM   27  C   UNL     1      42.778 -17.676   2.467  1.00  0.00     0.014 A 
HETATM   28  C   UNL     1      43.670 -17.851   5.135  1.00  0.00     0.030 A 
HETATM   29  N   UNL     1      41.766 -16.228   5.558  1.00  0.00    -0.360 N 
HETATM   30  C   UNL     1      44.308 -18.568   4.118  1.00  0.00     0.002 A 
HETATM   31  C   UNL     1      43.871 -18.481   2.801  1.00  0.00     0.001 A 
HETATM   32  C   UNL     1      41.872 -16.004   6.983  1.00  0.00     0.155 C 
HETATM   33  C   UNL     1      40.814 -15.633   4.772  1.00  0.00     0.101 A 
ENDBRANCH  21  24
ENDBRANCH  20  21
ENDBRANCH   2  20
TORSDOF 7
ENDMDL
MODEL 3
REMARK VINA RESULT:      -8.8      2.484      3.843
REMARK  7 active torsions:
REMARK  status: ('A' for Active; 'I' for Inactive)
REMARK       I    between atoms: C_2  and  N_3 
REMARK    1  A    between atoms: N_3  and  C_4 
REMARK    2  A    between atoms: C_6  and  N_7 
REMARK       I    between atoms: N_7  and  C_8 
REMARK    3  A    between atoms: C_8  and  C_9 
REMARK       I    between atoms: C_9  and  N_10 
REMARK    4  A    between atoms: N_10  and  C_11 
REMARK    5  A    between atoms: C_11  and  C_12 
REMARK    6  A    between atoms: C_12  and  O_13 
REMARK    7  A    between atoms: C_12  and  C_14 
ROOT
HETATM    1  C   UNL     1      42.829 -13.465   2.282  1.00  0.00     0.309 C 
HETATM    2  N   UNL     1      41.505 -13.567   1.935  1.00  0.00    -0.350 N 
HETATM    3  O   UNL     1      43.726 -14.237   1.966  1.00  0.00    -0.262 OA
HETATM    4  H   UNL     1      40.858 -12.958   2.434  1.00  0.00     0.163 HD
ENDROOT
BRANCH   1   5
HETATM    5  C   UNL     1      43.141 -12.264   3.201  1.00  0.00     0.313 C 
HETATM    6  N   UNL     1      43.481 -12.666   4.475  1.00  0.00    -0.319 N 
HETATM    7  H   UNL     1      43.485 -13.677   4.607  1.00  0.00     0.169 HD
HETATM    8  O   UNL     1      43.031 -11.131   2.753  1.00  0.00    -0.262 OA
BRANCH   6   9
HETATM    9  C   UNL     1      43.735 -11.854   5.593  1.00  0.00     0.037 A 
HETATM   10  C   UNL     1      42.735 -11.203   6.321  1.00  0.00     0.059 A 
HETATM   11  C   UNL     1      43.039 -10.461   7.473  1.00  0.00     0.036 A 
HETATM   12  C   UNL     1      44.371 -10.332   7.858  1.00  0.00     0.029 A 
HETATM   13  C   UNL     1      45.382 -10.957   7.123  1.00  0.00     0.004 A 
HETATM   14  C   UNL     1      45.064 -11.719   5.999  1.00  0.00     0.029 A 
BRANCH  11  15
HETATM   15  N   UNL     1      41.955  -9.854   8.133  1.00  0.00    -0.327 N 
HETATM   16  C   UNL     1      41.304  -8.672   7.951  1.00  0.00     0.218 C 
HETATM   17  C   UNL     1      41.865  -7.610   7.047  1.00  0.00     0.117 C 
HETATM   18  O   UNL     1      40.268  -8.463   8.588  1.00  0.00    -0.274 OA
HETATM   19  H   UNL     1      41.568 -10.366   8.920  1.00  0.00     0.169 HD
ENDBRANCH  11  15
ENDBRANCH   6   9
ENDBRANCH   1   5
BRANCH   2  20
HETATM   20  C   UNL     1      40.960 -14.755   1.301  1.00  0.00     0.159 C 
BRANCH  20  21
HETATM   21  C   UNL     1      40.165 -15.614   2.299  1.00  0.00     0.171 C 
BRANCH  21  22
HETATM   22  O   UNL     1      38.993 -14.885   2.695  1.00  0.00    -0.389 OA
HETATM   23  H   UNL     1      38.251 -15.508   2.599  1.00  0.00     0.210 HD
ENDBRANCH  21  22
BRANCH  21  24
HETATM   24  C   UNL     1      40.989 -16.004   3.488  1.00  0.00     0.000 A 
HETATM   25  C   UNL     1      42.106 -16.902   3.487  1.00  0.00     0.001 A 
HETATM   26  C   UNL     1      42.585 -16.987   4.799  1.00  0.00     0.044 A 
HETATM   27  C   UNL     1      42.750 -17.649   2.479  1.00  0.00     0.014 A 
HETATM   28  C   UNL     1      43.681 -17.799   5.135  1.00  0.00     0.030 A 
HETATM   29  N   UNL     1      41.792 -16.161   5.567  1.00  0.00    -0.360 N 
HETATM   30  C   UNL     1      44.299 -18.531   4.116  1.00  0.00     0.002 A 
HETATM   31  C   UNL     1      43.844 -18.457   2.805  1.00  0.00     0.001 A 
HETATM   32  C   UNL     1      41.921 -15.922   6.988  1.00  0.00     0.155 C 
HETATM   33  C   UNL     1      40.832 -15.569   4.790  1.00  0.00     0.101 A 
ENDBRANCH  21  24
ENDBRANCH  20  21
ENDBRANCH   2  20
TORSDOF 7
ENDMDL
MODEL 4
REMARK VINA RESULT:      -8.7      2.108      3.327
REMARK  7 active torsions:
REMARK  status: ('A' for Active; 'I' for Inactive)
REMARK       I    between atoms: C_2  and  N_3 
REMARK    1  A    between atoms: N_3  and  C_4 
REMARK    2  A    between atoms: C_6  and  N_7 
REMARK       I    between atoms: N_7  and  C_8 
REMARK    3  A    between atoms: C_8  and  C_9 
REMARK       I    between atoms: C_9  and  N_10 
REMARK    4  A    between atoms: N_10  and  C_11 
REMARK    5  A    between atoms: C_11  and  C_12 
REMARK    6  A    between atoms: C_12  and  O_13 
REMARK    7  A    between atoms: C_12  and  C_14 
ROOT
HETATM    1  C   UNL     1      41.696 -12.453   3.193  1.00  0.00     0.309 C 
HETATM    2  N   UNL     1      42.107 -13.570   2.507  1.00  0.00    -0.350 N 
HETATM    3  O   UNL     1      40.549 -12.036   3.282  1.00  0.00    -0.262 OA
HETATM    4  H   UNL     1      43.112 -13.671   2.369  1.00  0.00     0.163 HD
ENDROOT
BRANCH   1   5
HETATM    5  C   UNL     1      42.851 -11.667   3.851  1.00  0.00     0.313 C 
HETATM    6  N   UNL     1      42.914 -11.889   5.211  1.00  0.00    -0.319 N 
HETATM    7  H   UNL     1      42.209 -12.536   5.561  1.00  0.00     0.169 HD
HETATM    8  O   UNL     1      43.540 -10.935   3.156  1.00  0.00    -0.262 OA
BRANCH   6   9
HETATM    9  C   UNL     1      43.769 -11.276   6.142  1.00  0.00     0.037 A 
HETATM   10  C   UNL     1      43.332 -10.379   7.121  1.00  0.00     0.059 A 
HETATM   11  C   UNL     1      44.219  -9.850   8.072  1.00  0.00     0.036 A 
HETATM   12  C   UNL     1      45.568 -10.190   7.996  1.00  0.00     0.029 A 
HETATM   13  C   UNL     1      46.020 -11.066   7.005  1.00  0.00     0.004 A 
HETATM   14  C   UNL     1      45.123 -11.611   6.087  1.00  0.00     0.029 A 
BRANCH  11  15
HETATM   15  N   UNL     1      43.671  -8.964   9.017  1.00  0.00    -0.327 N 
HETATM   16  C   UNL     1      43.529  -9.025  10.370  1.00  0.00     0.218 C 
HETATM   17  C   UNL     1      43.763 -10.309  11.117  1.00  0.00     0.117 C 
HETATM   18  O   UNL     1      43.146  -8.017  10.970  1.00  0.00    -0.274 OA
HETATM   19  H   UNL     1      43.278  -8.105   8.647  1.00  0.00     0.169 HD
ENDBRANCH  11  15
ENDBRANCH   6   9
ENDBRANCH   1   5
BRANCH   2  20
HETATM   20  C   UNL     1      41.226 -14.295   1.608  1.00  0.00     0.159 C 
BRANCH  20  21
HETATM   21  C   UNL     1      40.447 -15.396   2.347  1.00  0.00     0.171 C 
BRANCH  21  22
HETATM   22  O   UNL     1      39.164 -14.870   2.726  1.00  0.00    -0.389 OA
HETATM   23  H   UNL     1      39.174 -14.829   3.698  1.00  0.00     0.210 HD
ENDBRANCH  21  22
BRANCH  21  24
HETATM   24  C   UNL     1      41.194 -15.913   3.538  1.00  0.00     0.000 A 
HETATM   25  C   UNL     1      42.258 -16.873   3.519  1.00  0.00     0.001 A 
HETATM   26  C   UNL     1      42.673 -17.074   4.841  1.00  0.00     0.044 A 
HETATM   27  C   UNL     1      42.904 -17.586   2.488  1.00  0.00     0.014 A 
HETATM   28  C   UNL     1      43.706 -17.970   5.162  1.00  0.00     0.030 A 
HETATM   29  N   UNL     1      41.894 -16.258   5.632  1.00  0.00    -0.360 N 
HETATM   30  C   UNL     1      44.327 -18.666   4.121  1.00  0.00     0.002 A 
HETATM   31  C   UNL     1      43.935 -18.477   2.801  1.00  0.00     0.001 A 
HETATM   32  C   UNL     1      41.973 -16.123   7.070  1.00  0.00     0.155 C 
HETATM   33  C   UNL     1      41.004 -15.559   4.860  1.00  0.00     0.101 A 
ENDBRANCH  21  24
ENDBRANCH  20  21
ENDBRANCH   2  20
TORSDOF 7
ENDMDL
MODEL 5
REMARK VINA RESULT:      -8.6      2.002      3.025
REMARK  7 active torsions:
REMARK  status: ('A' for Active; 'I' for Inactive)
REMARK       I    between atoms: C_2  and  N_3 
REMARK    1  A    between atoms: N_3  and  C_4 
REMARK    2  A    between atoms: C_6  and  N_7 
REMARK       I    between atoms: N_7  and  C_8 
REMARK    3  A    between atoms: C_8  and  C_9 
REMARK       I    between atoms: C_9  and  N_10 
REMARK    4  A    between atoms: N_10  and  C_11 
REMARK    5  A    between atoms: C_11  and  C_12 
REMARK    6  A    between atoms: C_12  and  O_13 
REMARK    7  A    between atoms: C_12  and  C_14 
ROOT
HETATM    1  C   UNL     1      43.295 -11.620   4.182  1.00  0.00     0.309 C 
HETATM    2  N   UNL     1      42.313 -12.559   3.984  1.00  0.00    -0.350 N 
HETATM    3  O   UNL     1      44.240 -11.389   3.439  1.00  0.00    -0.262 OA
HETATM    4  H   UNL     1      41.712 -12.760   4.782  1.00  0.00     0.163 HD
ENDROOT
BRANCH   1   5
HETATM    5  C   UNL     1      43.161 -10.850   5.514  1.00  0.00     0.313 C 
HETATM    6  N   UNL     1      44.271 -11.014   6.316  1.00  0.00    -0.319 N 
HETATM    7  H   UNL     1      44.999 -11.597   5.906  1.00  0.00     0.169 HD
HETATM    8  O   UNL     1      42.130 -10.232   5.739  1.00  0.00    -0.262 OA
BRANCH   6   9
HETATM    9  C   UNL     1      44.461 -10.541   7.625  1.00  0.00     0.037 A 
HETATM   10  C   UNL     1      43.510 -10.670   8.641  1.00  0.00     0.059 A 
HETATM   11  C   UNL     1      43.780 -10.243   9.951  1.00  0.00     0.036 A 
HETATM   12  C   UNL     1      45.002  -9.631  10.220  1.00  0.00     0.029 A 
HETATM   13  C   UNL     1      45.951  -9.473   9.205  1.00  0.00     0.004 A 
HETATM   14  C   UNL     1      45.683  -9.932   7.916  1.00  0.00     0.029 A 
BRANCH  11  15
HETATM   15  N   UNL     1      42.756 -10.429  10.896  1.00  0.00    -0.327 N 
HETATM   16  C   UNL     1      41.695  -9.663  11.273  1.00  0.00     0.218 C 
HETATM   17  C   UNL     1      41.580  -8.229  10.839  1.00  0.00     0.117 C 
HETATM   18  O   UNL     1      40.852 -10.152  12.031  1.00  0.00    -0.274 OA
HETATM   19  H   UNL     1      42.795 -11.288  11.435  1.00  0.00     0.169 HD
ENDBRANCH  11  15
ENDBRANCH   6   9
ENDBRANCH   1   5
BRANCH   2  20
HETATM   20  C   UNL     1      42.399 -13.560   2.935  1.00  0.00     0.159 C 
BRANCH  20  21
HETATM   21  C   UNL     1      41.555 -14.802   3.269  1.00  0.00     0.171 C 
BRANCH  21  22
HETATM   22  O   UNL     1      40.359 -14.373   3.938  1.00  0.00    -0.389 OA
HETATM   23  H   UNL     1      40.648 -13.722   4.602  1.00  0.00     0.210 HD
ENDBRANCH  21  22
BRANCH  21  24
HETATM   24  C   UNL     1      42.314 -15.794   4.095  1.00  0.00     0.000 A 
HETATM   25  C   UNL     1      42.800 -17.068   3.655  1.00  0.00     0.001 A 
HETATM   26  C   UNL     1      43.451 -17.672   4.737  1.00  0.00     0.044 A 
HETATM   27  C   UNL     1      42.743 -17.757   2.425  1.00  0.00     0.014 A 
HETATM   28  C   UNL     1      44.037 -18.944   4.629  1.00  0.00     0.030 A 
HETATM   29  N   UNL     1      43.370 -16.791   5.794  1.00  0.00    -0.360 N 
HETATM   30  C   UNL     1      43.964 -19.606   3.400  1.00  0.00     0.002 A 
HETATM   31  C   UNL     1      43.328 -19.022   2.311  1.00  0.00     0.001 A 
HETATM   32  C   UNL     1      43.913 -16.985   7.120  1.00  0.00     0.155 C 
HETATM   33  C   UNL     1      42.689 -15.663   5.418  1.00  0.00     0.101 A 
ENDBRANCH  21  24
ENDBRANCH  20  21
ENDBRANCH   2  20
TORSDOF 7
ENDMDL
MODEL 6
REMARK VINA RESULT:      -8.5      2.217      3.165
REMARK  7 active torsions:
REMARK  status: ('A' for Active; 'I' for Inactive)
REMARK       I    between atoms: C_2  and  N_3 
REMARK    1  A    between atoms: N_3  and  C_4 
REMARK    2  A    between atoms: C_6  and  N_7 
REMARK       I    between atoms: N_7  and  C_8 
REMARK    3  A    between atoms: C_8  and  C_9 
REMARK       I    between atoms: C_9  and  N_10 
REMARK    4  A    between atoms: N_10  and  C_11 
REMARK    5  A    between atoms: C_11  and  C_12 
REMARK    6  A    between atoms: C_12  and  O_13 
REMARK    7  A    between atoms: C_12  and  C_14 
ROOT
HETATM    1  C   UNL     1      44.392 -11.971   7.172  1.00  0.00     0.309 C 
HETATM    2  N   UNL     1      43.540 -13.032   7.358  1.00  0.00    -0.350 N 
HETATM    3  O   UNL     1      45.117 -11.782   6.204  1.00  0.00    -0.262 OA
HETATM    4  H   UNL     1      43.155 -13.145   8.295  1.00  0.00     0.163 HD
ENDROOT
BRANCH   1   5
HETATM    5  C   UNL     1      44.426 -10.985   8.360  1.00  0.00     0.313 C 
HETATM    6  N   UNL     1      43.233 -10.306   8.498  1.00  0.00    -0.319 N 
HETATM    7  H   UNL     1      42.524 -10.566   7.815  1.00  0.00     0.169 HD
HETATM    8  O   UNL     1      45.456 -10.876   9.009  1.00  0.00    -0.262 OA
BRANCH   6   9
HETATM    9  C   UNL     1      42.933  -9.274   9.403  1.00  0.00     0.037 A 
HETATM   10  C   UNL     1      42.512  -9.494  10.718  1.00  0.00     0.059 A 
HETATM   11  C   UNL     1      42.294  -8.425  11.601  1.00  0.00     0.036 A 
HETATM   12  C   UNL     1      42.448  -7.122  11.132  1.00  0.00     0.029 A 
HETATM   13  C   UNL     1      42.843  -6.890   9.811  1.00  0.00     0.004 A 
HETATM   14  C   UNL     1      43.089  -7.961   8.953  1.00  0.00     0.029 A 
BRANCH  11  15
HETATM   15  N   UNL     1      41.882  -8.761  12.903  1.00  0.00    -0.327 N 
HETATM   16  C   UNL     1      42.142  -8.219  14.125  1.00  0.00     0.218 C 
HETATM   17  C   UNL     1      43.223  -7.190  14.302  1.00  0.00     0.117 C 
HETATM   18  O   UNL     1      41.509  -8.630  15.101  1.00  0.00    -0.274 OA
HETATM   19  H   UNL     1      41.284  -9.577  12.986  1.00  0.00     0.169 HD
ENDBRANCH  11  15
ENDBRANCH   6   9
ENDBRANCH   1   5
BRANCH   2  20
HETATM   20  C   UNL     1      43.553 -14.197   6.490  1.00  0.00     0.159 C 
BRANCH  20  21
HETATM   21  C   UNL     1      42.182 -14.892   6.456  1.00  0.00     0.171 C 
BRANCH  21  22
HETATM   22  O   UNL     1      42.161 -15.908   7.471  1.00  0.00    -0.389 OA
HETATM   23  H   UNL     1      41.451 -15.651   8.085  1.00  0.00     0.210 HD
ENDBRANCH  21  22
BRANCH  21  24
HETATM   24  C   UNL     1      41.874 -15.465   5.106  1.00  0.00     0.000 A 
HETATM   25  C   UNL     1      42.575 -16.533   4.459  1.00  0.00     0.001 A 
HETATM   26  C   UNL     1      41.964 -16.755   3.220  1.00  0.00     0.044 A 
HETATM   27  C   UNL     1      43.679 -17.332   4.825  1.00  0.00     0.014 A 
HETATM   28  C   UNL     1      42.426 -17.742   2.334  1.00  0.00     0.030 A 
HETATM   29  N   UNL     1      40.922 -15.858   3.123  1.00  0.00    -0.360 N 
HETATM   30  C   UNL     1      43.524 -18.518   2.720  1.00  0.00     0.002 A 
HETATM   31  C   UNL     1      44.142 -18.319   3.949  1.00  0.00     0.001 A 
HETATM   32  C   UNL     1      40.000 -15.725   2.016  1.00  0.00     0.155 C 
HETATM   33  C   UNL     1      40.861 -15.080   4.249  1.00  0.00     0.101 A 
ENDBRANCH  21  24
ENDBRANCH  20  21
ENDBRANCH   2  20
TORSDOF 7
ENDMDL
MODEL 7
REMARK VINA RESULT:      -8.4      2.364      4.007
REMARK  7 active torsions:
REMARK  status: ('A' for Active; 'I' for Inactive)
REMARK       I    between atoms: C_2  and  N_3 
REMARK    1  A    between atoms: N_3  and  C_4 
REMARK    2  A    between atoms: C_6  and  N_7 
REMARK       I    between atoms: N_7  and  C_8 
REMARK    3  A    between atoms: C_8  and  C_9 
REMARK       I    between atoms: C_9  and  N_10 
REMARK    4  A    between atoms: N_10  and  C_11 
REMARK    5  A    between atoms: C_11  and  C_12 
REMARK    6  A    between atoms: C_12  and  O_13 
REMARK    7  A    between atoms: C_12  and  C_14 
ROOT
HETATM    1  C   UNL     1      44.679 -11.087   6.230  1.00  0.00     0.309 C 
HETATM    2  N   UNL     1      43.474 -11.379   5.640  1.00  0.00    -0.350 N 
HETATM    3  O   UNL     1      45.778 -11.117   5.691  1.00  0.00    -0.262 OA
HETATM    4  H   UNL     1      42.680 -11.496   6.269  1.00  0.00     0.163 HD
ENDROOT
BRANCH   1   5
HETATM    5  C   UNL     1      44.571 -10.741   7.731  1.00  0.00     0.313 C 
HETATM    6  N   UNL     1      43.470  -9.956   7.999  1.00  0.00    -0.319 N 
HETATM    7  H   UNL     1      42.902  -9.740   7.181  1.00  0.00     0.169 HD
HETATM    8  O   UNL     1      45.438 -11.141   8.494  1.00  0.00    -0.262 OA
BRANCH   6   9
HETATM    9  C   UNL     1      43.106  -9.377   9.227  1.00  0.00     0.037 A 
HETATM   10  C   UNL     1      42.392 -10.053  10.220  1.00  0.00     0.059 A 
HETATM   11  C   UNL     1      42.116  -9.450  11.457  1.00  0.00     0.036 A 
HETATM   12  C   UNL     1      42.520  -8.134  11.669  1.00  0.00     0.029 A 
HETATM   13  C   UNL     1      43.212  -7.440  10.673  1.00  0.00     0.004 A 
HETATM   14  C   UNL     1      43.509  -8.061   9.460  1.00  0.00     0.029 A 
BRANCH  11  15
HETATM   15  N   UNL     1      41.398 -10.224  12.387  1.00  0.00    -0.327 N 
HETATM   16  C   UNL     1      40.122 -10.156  12.858  1.00  0.00     0.218 C 
HETATM   17  C   UNL     1      39.258  -8.957  12.586  1.00  0.00     0.117 C 
HETATM   18  O   UNL     1      39.704 -11.077  13.565  1.00  0.00    -0.274 OA
HETATM   19  H   UNL     1      41.910 -10.982  12.827  1.00  0.00     0.169 HD
ENDBRANCH  11  15
ENDBRANCH   6   9
ENDBRANCH   1   5
BRANCH   2  20
HETATM   20  C   UNL     1      43.382 -11.977   4.319  1.00  0.00     0.159 C 
BRANCH  20  21
HETATM   21  C   UNL     1      42.283 -13.050   4.260  1.00  0.00     0.171 C 
BRANCH  21  22
HETATM   22  O   UNL     1      41.172 -12.610   5.058  1.00  0.00    -0.389 OA
HETATM   23  H   UNL     1      40.377 -12.949   4.611  1.00  0.00     0.210 HD
ENDBRANCH  21  22
BRANCH  21  24
HETATM   24  C   UNL     1      42.777 -14.390   4.710  1.00  0.00     0.000 A 
HETATM   25  C   UNL     1      43.011 -15.531   3.877  1.00  0.00     0.001 A 
HETATM   26  C   UNL     1      43.468 -16.571   4.695  1.00  0.00     0.044 A 
HETATM   27  C   UNL     1      42.873 -15.767   2.492  1.00  0.00     0.014 A 
HETATM   28  C   UNL     1      43.783 -17.837   4.175  1.00  0.00     0.030 A 
HETATM   29  N   UNL     1      43.518 -16.074   5.980  1.00  0.00    -0.360 N 
HETATM   30  C   UNL     1      43.635 -18.044   2.800  1.00  0.00     0.002 A 
HETATM   31  C   UNL     1      43.189 -17.024   1.967  1.00  0.00     0.001 A 
HETATM   32  C   UNL     1      43.942 -16.788   7.164  1.00  0.00     0.155 C 
HETATM   33  C   UNL     1      43.105 -14.767   5.998  1.00  0.00     0.101 A 
ENDBRANCH  21  24
ENDBRANCH  20  21
ENDBRANCH   2  20
TORSDOF 7
ENDMDL
MODEL 8
REMARK VINA RESULT:      -8.4      2.143      2.930
REMARK  7 active torsions:
REMARK  status: ('A' for Active; 'I' for Inactive)
REMARK       I    between atoms: C_2  and  N_3 
REMARK    1  A    between atoms: N_3  and  C_4 
REMARK    2  A    between atoms: C_6  and  N_7 
REMARK       I    between atoms: N_7  and  C_8 
REMARK    3  A    between atoms: C_8  and  C_9 
REMARK       I    between atoms: C_9  and  N_10 
REMARK    4  A    between atoms: N_10  and  C_11 
REMARK    5  A    between atoms: C_11  and  C_12 
REMARK    6  A    between atoms: C_12  and  O_13 
REMARK    7  A    between atoms: C_12  and  C_14 
ROOT
HETATM    1  C   UNL     1      42.592 -12.604   3.460  1.00  0.00     0.309 C 
HETATM    2  N   UNL     1      42.066 -13.769   3.964  1.00  0.00    -0.350 N 
HETATM    3  O   UNL     1      42.802 -12.352   2.281  1.00  0.00    -0.262 OA
HETATM    4  H   UNL     1      42.136 -13.897   4.973  1.00  0.00     0.163 HD
ENDROOT
BRANCH   1   5
HETATM    5  C   UNL     1      42.979 -11.576   4.545  1.00  0.00     0.313 C 
HETATM    6  N   UNL     1      43.895 -12.091   5.438  1.00  0.00    -0.319 N 
HETATM    7  H   UNL     1      44.178 -13.049   5.239  1.00  0.00     0.169 HD
HETATM    8  O   UNL     1      42.445 -10.476   4.535  1.00  0.00    -0.262 OA
BRANCH   6   9
HETATM    9  C   UNL     1      44.400 -11.480   6.598  1.00  0.00     0.037 A 
HETATM   10  C   UNL     1      43.647 -11.278   7.758  1.00  0.00     0.059 A 
HETATM   11  C   UNL     1      44.222 -10.726   8.913  1.00  0.00     0.036 A 
HETATM   12  C   UNL     1      45.556 -10.326   8.875  1.00  0.00     0.029 A 
HETATM   13  C   UNL     1      46.312 -10.499   7.712  1.00  0.00     0.004 A 
HETATM   14  C   UNL     1      45.737 -11.079   6.581  1.00  0.00     0.029 A 
BRANCH  11  15
HETATM   15  N   UNL     1      43.375 -10.576  10.026  1.00  0.00    -0.327 N 
HETATM   16  C   UNL     1      42.598  -9.547  10.465  1.00  0.00     0.218 C 
HETATM   17  C   UNL     1      42.724  -8.172   9.871  1.00  0.00     0.117 C 
HETATM   18  O   UNL     1      41.824  -9.750  11.405  1.00  0.00    -0.274 OA
HETATM   19  H   UNL     1      43.324 -11.367  10.659  1.00  0.00     0.169 HD
ENDBRANCH  11  15
ENDBRANCH   6   9
ENDBRANCH   1   5
BRANCH   2  20
HETATM   20  C   UNL     1      41.883 -14.954   3.144  1.00  0.00     0.159 C 
BRANCH  20  21
HETATM   21  C   UNL     1      43.227 -15.509   2.645  1.00  0.00     0.171 C 
BRANCH  21  22
HETATM   22  O   UNL     1      43.317 -15.281   1.230  1.00  0.00    -0.389 OA
HETATM   23  H   UNL     1      44.230 -14.987   1.069  1.00  0.00     0.210 HD
ENDBRANCH  21  22
BRANCH  21  24
HETATM   24  C   UNL     1      43.393 -16.962   2.973  1.00  0.00     0.000 A 
HETATM   25  C   UNL     1      43.440 -17.534   4.285  1.00  0.00     0.001 A 
HETATM   26  C   UNL     1      43.605 -18.917   4.141  1.00  0.00     0.044 A 
HETATM   27  C   UNL     1      43.356 -16.992   5.585  1.00  0.00     0.014 A 
HETATM   28  C   UNL     1      43.695 -19.770   5.253  1.00  0.00     0.030 A 
HETATM   29  N   UNL     1      43.646 -19.174   2.787  1.00  0.00    -0.360 N 
HETATM   30  C   UNL     1      43.611 -19.206   6.530  1.00  0.00     0.002 A 
HETATM   31  C   UNL     1      43.441 -17.836   6.696  1.00  0.00     0.001 A 
HETATM   32  C   UNL     1      43.794 -20.470   2.161  1.00  0.00     0.155 C 
HETATM   33  C   UNL     1      43.521 -18.008   2.079  1.00  0.00     0.101 A 
ENDBRANCH  21  24
ENDBRANCH  20  21
ENDBRANCH   2  20
TORSDOF 7
ENDMDL
MODEL 9
REMARK VINA RESULT:      -8.3      2.476     10.546
REMARK  7 active torsions:
REMARK  status: ('A' for Active; 'I' for Inactive)
REMARK       I    between atoms: C_2  and  N_3 
REMARK    1  A    between atoms: N_3  and  C_4 
REMARK    2  A    between atoms: C_6  and  N_7 
REMARK       I    between atoms: N_7  and  C_8 
REMARK    3  A    between atoms: C_8  and  C_9 
REMARK       I    between atoms: C_9  and  N_10 
REMARK    4  A    between atoms: N_10  and  C_11 
REMARK    5  A    between atoms: C_11  and  C_12 
REMARK    6  A    between atoms: C_12  and  O_13 
REMARK    7  A    between atoms: C_12  and  C_14 
ROOT
HETATM    1  C   UNL     1      44.553 -11.375   7.720  1.00  0.00     0.309 C 
HETATM    2  N   UNL     1      43.824 -10.919   8.790  1.00  0.00    -0.350 N 
HETATM    3  O   UNL     1      45.751 -11.206   7.531  1.00  0.00    -0.262 OA
HETATM    4  H   UNL     1      42.810 -10.975   8.703  1.00  0.00     0.163 HD
ENDROOT
BRANCH   1   5
HETATM    5  C   UNL     1      43.709 -12.123   6.665  1.00  0.00     0.313 C 
HETATM    6  N   UNL     1      43.394 -13.402   7.072  1.00  0.00    -0.319 N 
HETATM    7  H   UNL     1      43.749 -13.646   7.995  1.00  0.00     0.169 HD
HETATM    8  O   UNL     1      43.444 -11.560   5.612  1.00  0.00    -0.262 OA
BRANCH   6   9
HETATM    9  C   UNL     1      42.723 -14.396   6.339  1.00  0.00     0.037 A 
HETATM   10  C   UNL     1      43.356 -15.246   5.428  1.00  0.00     0.059 A 
HETATM   11  C   UNL     1      42.651 -16.269   4.774  1.00  0.00     0.036 A 
HETATM   12  C   UNL     1      41.283 -16.396   5.005  1.00  0.00     0.029 A 
HETATM   13  C   UNL     1      40.635 -15.535   5.894  1.00  0.00     0.004 A 
HETATM   14  C   UNL     1      41.353 -14.543   6.562  1.00  0.00     0.029 A 
BRANCH  11  15
HETATM   15  N   UNL     1      43.389 -17.070   3.885  1.00  0.00    -0.327 N 
HETATM   16  C   UNL     1      43.900 -18.329   3.981  1.00  0.00     0.218 C 
HETATM   17  C   UNL     1      43.949 -19.048   5.300  1.00  0.00     0.117 C 
HETATM   18  O   UNL     1      44.378 -18.852   2.969  1.00  0.00    -0.274 OA
HETATM   19  H   UNL     1      43.619 -16.651   2.991  1.00  0.00     0.169 HD
ENDBRANCH  11  15
ENDBRANCH   6   9
ENDBRANCH   1   5
BRANCH   2  20
HETATM   20  C   UNL     1      44.368  -9.977   9.753  1.00  0.00     0.159 C 
BRANCH  20  21
HETATM   21  C   UNL     1      43.821 -10.235  11.167  1.00  0.00     0.171 C 
BRANCH  21  22
HETATM   22  O   UNL     1      43.577 -11.644  11.311  1.00  0.00    -0.389 OA
HETATM   23  H   UNL     1      44.300 -11.980  11.870  1.00  0.00     0.210 HD
ENDBRANCH  21  22
BRANCH  21  24
HETATM   24  C   UNL     1      42.583  -9.439  11.447  1.00  0.00     0.000 A 
HETATM   25  C   UNL     1      42.423  -8.457  12.478  1.00  0.00     0.001 A 
HETATM   26  C   UNL     1      41.119  -7.956  12.390  1.00  0.00     0.044 A 
HETATM   27  C   UNL     1      43.278  -7.952  13.479  1.00  0.00     0.014 A 
HETATM   28  C   UNL     1      40.643  -6.974  13.274  1.00  0.00     0.030 A 
HETATM   29  N   UNL     1      40.513  -8.604  11.335  1.00  0.00    -0.360 N 
HETATM   30  C   UNL     1      41.512  -6.492  14.258  1.00  0.00     0.002 A 
HETATM   31  C   UNL     1      42.813  -6.971  14.360  1.00  0.00     0.001 A 
HETATM   32  C   UNL     1      39.161  -8.403  10.862  1.00  0.00     0.155 C 
HETATM   33  C   UNL     1      41.383  -9.496  10.765  1.00  0.00     0.101 A 
ENDBRANCH  21  24
ENDBRANCH  20  21
ENDBRANCH   2  20
TORSDOF 7
ENDMDL
MODEL 10
REMARK VINA RESULT:      -8.3      2.126      3.604
REMARK  7 active torsions:
REMARK  status: ('A' for Active; 'I' for Inactive)
REMARK       I    between atoms: C_2  and  N_3 
REMARK    1  A    between atoms: N_3  and  C_4 
REMARK    2  A    between atoms: C_6  and  N_7 
REMARK       I    between atoms: N_7  and  C_8 
REMARK    3  A    between atoms: C_8  and  C_9 
REMARK       I    between atoms: C_9  and  N_10 
REMARK    4  A    between atoms: N_10  and  C_11 
REMARK    5  A    between atoms: C_11  and  C_12 
REMARK    6  A    between atoms: C_12  and  O_13 
REMARK    7  A    between atoms: C_12  and  C_14 
ROOT
HETATM    1  C   UNL     1      44.562 -11.653   7.451  1.00  0.00     0.309 C 
HETATM    2  N   UNL     1      43.565 -12.596   7.384  1.00  0.00    -0.350 N 
HETATM    3  O   UNL     1      45.501 -11.531   6.675  1.00  0.00    -0.262 OA
HETATM    4  H   UNL     1      42.972 -12.686   8.208  1.00  0.00     0.163 HD
ENDROOT
BRANCH   1   5
HETATM    5  C   UNL     1      44.454 -10.720   8.676  1.00  0.00     0.313 C 
HETATM    6  N   UNL     1      43.404  -9.834   8.556  1.00  0.00    -0.319 N 
HETATM    7  H   UNL     1      42.864  -9.940   7.699  1.00  0.00     0.169 HD
HETATM    8  O   UNL     1      45.281 -10.820   9.572  1.00  0.00    -0.262 OA
BRANCH   6   9
HETATM    9  C   UNL     1      43.061  -8.785   9.427  1.00  0.00     0.037 A 
HETATM   10  C   UNL     1      42.486  -8.980  10.686  1.00  0.00     0.059 A 
HETATM   11  C   UNL     1      42.229  -7.900  11.545  1.00  0.00     0.036 A 
HETATM   12  C   UNL     1      42.505  -6.609  11.102  1.00  0.00     0.029 A 
HETATM   13  C   UNL     1      43.056  -6.400   9.835  1.00  0.00     0.004 A 
HETATM   14  C   UNL     1      43.337  -7.484   9.004  1.00  0.00     0.029 A 
BRANCH  11  15
HETATM   15  N   UNL     1      41.657  -8.212  12.791  1.00  0.00    -0.327 N 
HETATM   16  C   UNL     1      41.943  -7.821  14.064  1.00  0.00     0.218 C 
HETATM   17  C   UNL     1      43.212  -7.082  14.382  1.00  0.00     0.117 C 
HETATM   18  O   UNL     1      41.163  -8.135  14.968  1.00  0.00    -0.274 OA
HETATM   19  H   UNL     1      40.886  -8.872  12.777  1.00  0.00     0.169 HD
ENDBRANCH  11  15
ENDBRANCH   6   9
ENDBRANCH   1   5
BRANCH   2  20
HETATM   20  C   UNL     1      43.626 -13.723   6.470  1.00  0.00     0.159 C 
BRANCH  20  21
HETATM   21  C   UNL     1      42.801 -14.914   6.985  1.00  0.00     0.171 C 
BRANCH  21  22
HETATM   22  O   UNL     1      43.095 -15.103   8.378  1.00  0.00    -0.389 OA
HETATM   23  H   UNL     1      42.344 -14.714   8.860  1.00  0.00     0.210 HD
ENDBRANCH  21  22
BRANCH  21  24
HETATM   24  C   UNL     1      43.062 -16.163   6.200  1.00  0.00     0.000 A 
HETATM   25  C   UNL     1      43.099 -16.274   4.772  1.00  0.00     0.001 A 
HETATM   26  C   UNL     1      43.374 -17.609   4.456  1.00  0.00     0.044 A 
HETATM   27  C   UNL     1      42.924 -15.349   3.721  1.00  0.00     0.014 A 
HETATM   28  C   UNL     1      43.470 -18.049   3.125  1.00  0.00     0.030 A 
HETATM   29  N   UNL     1      43.507 -18.283   5.651  1.00  0.00    -0.360 N 
HETATM   30  C   UNL     1      43.289 -17.111   2.103  1.00  0.00     0.002 A 
HETATM   31  C   UNL     1      43.022 -15.779   2.394  1.00  0.00     0.001 A 
HETATM   32  C   UNL     1      43.804 -19.688   5.819  1.00  0.00     0.155 C 
HETATM   33  C   UNL     1      43.321 -17.423   6.702  1.00  0.00     0.101 A 
ENDBRANCH  21  24
ENDBRANCH  20  21
ENDBRANCH   2  20
TORSDOF 7
ENDMDL
