MODEL 1
REMARK VINA RESULT:      -8.7      0.000      0.000
REMARK  5 active torsions:
REMARK  status: ('A' for Active; 'I' for Inactive)
REMARK       I    between atoms: C_2  and  N_3 
REMARK    1  A    between atoms: N_3  and  C_4 
REMARK    2  A    between atoms: C_7  and  C_8 
REMARK    3  A    between atoms: C_8  and  N_9 
REMARK    4  A    between atoms: C_12  and  C_13 
REMARK    5  A    between atoms: C_14  and  O_15 
ROOT
HETATM    1  N   UNL     1      40.869 -14.170   1.414  1.00  0.00    -0.060 N 
HETATM    2  H   UNL     1      41.521 -13.428   1.693  1.00  0.00     0.280 HD
HETATM    3  C   UNL     1      41.559 -15.530   1.609  1.00  0.00     0.272 C 
HETATM    4  C   UNL     1      41.983 -15.855   3.059  1.00  0.00     0.190 C 
HETATM    5  O   UNL     1      40.819 -16.016   3.890  1.00  0.00    -0.339 OA
HETATM    6  C   UNL     1      40.515 -14.825   4.487  1.00  0.00     0.077 A 
HETATM    7  C   UNL     1      39.962 -13.788   3.730  1.00  0.00     0.001 A 
HETATM    8  C   UNL     1      39.637 -14.004   2.281  1.00  0.00     0.276 C 
HETATM    9  C   UNL     1      40.773 -14.682   5.847  1.00  0.00     0.037 A 
HETATM   10  C   UNL     1      40.514 -13.463   6.467  1.00  0.00     0.003 A 
HETATM   11  C   UNL     1      39.992 -12.404   5.725  1.00  0.00     0.001 A 
HETATM   12  C   UNL     1      39.711 -12.564   4.365  1.00  0.00     0.012 A 
ENDROOT
BRANCH   1  13
HETATM   13  C   UNL     1      40.589 -13.997  -0.066  1.00  0.00     0.273 C 
BRANCH  13  14
HETATM   14  C   UNL     1      40.763 -12.619  -0.642  1.00  0.00    -0.032 A 
HETATM   15  C   UNL     1      40.994 -11.506   0.173  1.00  0.00     0.011 A 
HETATM   16  C   UNL     1      41.230 -10.245  -0.396  1.00  0.00     0.030 A 
HETATM   17  C   UNL     1      41.247 -10.075  -1.782  1.00  0.00     0.034 A 
HETATM   18  C   UNL     1      40.991 -11.183  -2.596  1.00  0.00     0.030 A 
HETATM   19  C   UNL     1      40.753 -12.441  -2.033  1.00  0.00     0.011 A 
BRANCH  17  20
HETATM   20  N   UNL     1      41.537  -8.858  -2.431  1.00  0.00    -0.328 N 
HETATM   21  C   UNL     1      42.636  -8.041  -2.233  1.00  0.00     0.218 C 
HETATM   22  C   UNL     1      42.677  -6.871  -3.187  1.00  0.00     0.117 C 
HETATM   23  O   UNL     1      43.532  -8.214  -1.414  1.00  0.00    -0.274 OA
HETATM   24  H   UNL     1      40.887  -8.567  -3.151  1.00  0.00     0.169 HD
ENDBRANCH  17  20
ENDBRANCH  13  14
ENDBRANCH   1  13
BRANCH   4  25
HETATM   25  C   UNL     1      42.744 -17.173   3.108  1.00  0.00     0.006 A 
HETATM   26  C   UNL     1      43.691 -17.425   4.118  1.00  0.00     0.077 A 
HETATM   27  C   UNL     1      44.414 -18.623   4.119  1.00  0.00     0.037 A 
HETATM   28  C   UNL     1      44.175 -19.594   3.148  1.00  0.00     0.003 A 
HETATM   29  C   UNL     1      43.206 -19.380   2.175  1.00  0.00     0.001 A 
HETATM   30  C   UNL     1      42.490 -18.183   2.159  1.00  0.00     0.012 A 
BRANCH  26  31
HETATM   31  O   UNL     1      43.883 -16.436   5.049  1.00  0.00    -0.355 OA
HETATM   32  C   UNL     1      43.972 -16.886   6.401  1.00  0.00     0.210 C 
ENDBRANCH  26  31
ENDBRANCH   4  25
TORSDOF 5
ENDMDL
MODEL 2
REMARK VINA RESULT:      -8.5      3.947      6.373
REMARK  5 active torsions:
REMARK  status: ('A' for Active; 'I' for Inactive)
REMARK       I    between atoms: C_2  and  N_3 
REMARK    1  A    between atoms: N_3  and  C_4 
REMARK    2  A    between atoms: C_7  and  C_8 
REMARK    3  A    between atoms: C_8  and  N_9 
REMARK    4  A    between atoms: C_12  and  C_13 
REMARK    5  A    between atoms: C_14  and  O_15 
ROOT
HETATM    1  N   UNL     1      42.468 -12.338   3.849  1.00  0.00    -0.060 N 
HETATM    2  H   UNL     1      41.514 -12.409   4.220  1.00  0.00     0.280 HD
HETATM    3  C   UNL     1      43.276 -11.390   4.752  1.00  0.00     0.272 C 
HETATM    4  C   UNL     1      43.419 -11.840   6.223  1.00  0.00     0.190 C 
HETATM    5  O   UNL     1      44.215 -13.036   6.299  1.00  0.00    -0.339 OA
HETATM    6  C   UNL     1      43.397 -14.131   6.282  1.00  0.00     0.077 A 
HETATM    7  C   UNL     1      42.759 -14.505   5.096  1.00  0.00     0.001 A 
HETATM    8  C   UNL     1      43.024 -13.747   3.827  1.00  0.00     0.276 C 
HETATM    9  C   UNL     1      43.225 -14.846   7.464  1.00  0.00     0.037 A 
HETATM   10  C   UNL     1      42.361 -15.937   7.481  1.00  0.00     0.003 A 
HETATM   11  C   UNL     1      41.688 -16.309   6.317  1.00  0.00     0.001 A 
HETATM   12  C   UNL     1      41.888 -15.602   5.128  1.00  0.00     0.012 A 
ENDROOT
BRANCH   1  13
HETATM   13  C   UNL     1      42.378 -11.706   2.473  1.00  0.00     0.273 C 
BRANCH  13  14
HETATM   14  C   UNL     1      41.372 -12.285   1.517  1.00  0.00    -0.032 A 
HETATM   15  C   UNL     1      40.344 -11.508   0.972  1.00  0.00     0.011 A 
HETATM   16  C   UNL     1      39.467 -12.055   0.023  1.00  0.00     0.030 A 
HETATM   17  C   UNL     1      39.602 -13.378  -0.402  1.00  0.00     0.034 A 
HETATM   18  C   UNL     1      40.614 -14.161   0.162  1.00  0.00     0.030 A 
HETATM   19  C   UNL     1      41.489 -13.622   1.110  1.00  0.00     0.011 A 
BRANCH  17  20
HETATM   20  N   UNL     1      38.803 -13.982  -1.394  1.00  0.00    -0.328 N 
HETATM   21  C   UNL     1      39.095 -14.118  -2.740  1.00  0.00     0.218 C 
HETATM   22  C   UNL     1      38.055 -14.920  -3.486  1.00  0.00     0.117 C 
HETATM   23  O   UNL     1      40.089 -13.689  -3.315  1.00  0.00    -0.274 OA
HETATM   24  H   UNL     1      37.934 -14.395  -1.079  1.00  0.00     0.169 HD
ENDBRANCH  17  20
ENDBRANCH  13  14
ENDBRANCH   1  13
BRANCH   4  25
HETATM   25  C   UNL     1      44.145 -10.776   7.036  1.00  0.00     0.006 A 
HETATM   26  C   UNL     1      43.430  -9.773   7.716  1.00  0.00     0.077 A 
HETATM   27  C   UNL     1      44.116  -8.776   8.420  1.00  0.00     0.037 A 
HETATM   28  C   UNL     1      45.509  -8.791   8.489  1.00  0.00     0.003 A 
HETATM   29  C   UNL     1      46.225  -9.806   7.865  1.00  0.00     0.001 A 
HETATM   30  C   UNL     1      45.549 -10.795   7.151  1.00  0.00     0.012 A 
BRANCH  26  31
HETATM   31  O   UNL     1      42.063  -9.809   7.616  1.00  0.00    -0.355 OA
HETATM   32  C   UNL     1      41.419  -8.535   7.661  1.00  0.00     0.210 C 
ENDBRANCH  26  31
ENDBRANCH   4  25
TORSDOF 5
ENDMDL
MODEL 3
REMARK VINA RESULT:      -8.5      3.344      7.524
REMARK  5 active torsions:
REMARK  status: ('A' for Active; 'I' for Inactive)
REMARK       I    between atoms: C_2  and  N_3 
REMARK    1  A    between atoms: N_3  and  C_4 
REMARK    2  A    between atoms: C_7  and  C_8 
REMARK    3  A    between atoms: C_8  and  N_9 
REMARK    4  A    between atoms: C_12  and  C_13 
REMARK    5  A    between atoms: C_14  and  O_15 
ROOT
HETATM    1  N   UNL     1      41.090 -13.913   4.175  1.00  0.00    -0.060 N 
HETATM    2  H   UNL     1      42.103 -13.750   4.145  1.00  0.00     0.280 HD
HETATM    3  C   UNL     1      40.510 -13.654   2.775  1.00  0.00     0.272 C 
HETATM    4  C   UNL     1      41.058 -14.566   1.653  1.00  0.00     0.190 C 
HETATM    5  O   UNL     1      40.646 -15.926   1.875  1.00  0.00    -0.339 OA
HETATM    6  C   UNL     1      41.615 -16.589   2.575  1.00  0.00     0.077 A 
HETATM    7  C   UNL     1      41.804 -16.314   3.932  1.00  0.00     0.001 A 
HETATM    8  C   UNL     1      40.902 -15.344   4.637  1.00  0.00     0.276 C 
HETATM    9  C   UNL     1      42.391 -17.528   1.902  1.00  0.00     0.037 A 
HETATM   10  C   UNL     1      43.413 -18.182   2.583  1.00  0.00     0.003 A 
HETATM   11  C   UNL     1      43.642 -17.901   3.929  1.00  0.00     0.001 A 
HETATM   12  C   UNL     1      42.840 -16.976   4.605  1.00  0.00     0.012 A 
ENDROOT
BRANCH   1  13
HETATM   13  C   UNL     1      40.492 -12.892   5.123  1.00  0.00     0.273 C 
BRANCH  13  14
HETATM   14  C   UNL     1      41.450 -12.042   5.911  1.00  0.00    -0.032 A 
HETATM   15  C   UNL     1      41.079 -10.791   6.415  1.00  0.00     0.011 A 
HETATM   16  C   UNL     1      41.968 -10.053   7.212  1.00  0.00     0.030 A 
HETATM   17  C   UNL     1      43.234 -10.552   7.525  1.00  0.00     0.034 A 
HETATM   18  C   UNL     1      43.613 -11.792   7.001  1.00  0.00     0.030 A 
HETATM   19  C   UNL     1      42.732 -12.529   6.204  1.00  0.00     0.011 A 
BRANCH  17  20
HETATM   20  N   UNL     1      44.159  -9.904   8.369  1.00  0.00    -0.328 N 
HETATM   21  C   UNL     1      44.456 -10.211   9.685  1.00  0.00     0.218 C 
HETATM   22  C   UNL     1      45.582  -9.375  10.242  1.00  0.00     0.117 C 
HETATM   23  O   UNL     1      43.922 -11.080  10.366  1.00  0.00    -0.274 OA
HETATM   24  H   UNL     1      44.694  -9.152   7.952  1.00  0.00     0.169 HD
ENDBRANCH  17  20
ENDBRANCH  13  14
ENDBRANCH   1  13
BRANCH   4  25
HETATM   25  C   UNL     1      40.490 -14.148   0.303  1.00  0.00     0.006 A 
HETATM   26  C   UNL     1      40.750 -12.871  -0.227  1.00  0.00     0.077 A 
HETATM   27  C   UNL     1      40.181 -12.488  -1.447  1.00  0.00     0.037 A 
HETATM   28  C   UNL     1      39.387 -13.380  -2.168  1.00  0.00     0.003 A 
HETATM   29  C   UNL     1      39.165 -14.663  -1.680  1.00  0.00     0.001 A 
HETATM   30  C   UNL     1      39.718 -15.047  -0.459  1.00  0.00     0.012 A 
BRANCH  26  31
HETATM   31  O   UNL     1      41.540 -12.037   0.523  1.00  0.00    -0.355 OA
HETATM   32  C   UNL     1      41.276 -10.643   0.357  1.00  0.00     0.210 C 
ENDBRANCH  26  31
ENDBRANCH   4  25
TORSDOF 5
ENDMDL
MODEL 4
REMARK VINA RESULT:      -8.3      4.011      8.014
REMARK  5 active torsions:
REMARK  status: ('A' for Active; 'I' for Inactive)
REMARK       I    between atoms: C_2  and  N_3 
REMARK    1  A    between atoms: N_3  and  C_4 
REMARK    2  A    between atoms: C_7  and  C_8 
REMARK    3  A    between atoms: C_8  and  N_9 
REMARK    4  A    between atoms: C_12  and  C_13 
REMARK    5  A    between atoms: C_14  and  O_15 
ROOT
HETATM    1  N   UNL     1      43.226 -12.707   3.117  1.00  0.00    -0.060 N 
HETATM    2  H   UNL     1      43.821 -13.075   2.366  1.00  0.00     0.280 HD
HETATM    3  C   UNL     1      41.909 -12.208   2.500  1.00  0.00     0.272 C 
HETATM    4  C   UNL     1      41.069 -13.285   1.776  1.00  0.00     0.190 C 
HETATM    5  O   UNL     1      40.580 -14.251   2.723  1.00  0.00    -0.339 OA
HETATM    6  C   UNL     1      41.450 -15.302   2.793  1.00  0.00     0.077 A 
HETATM    7  C   UNL     1      42.683 -15.144   3.431  1.00  0.00     0.001 A 
HETATM    8  C   UNL     1      43.025 -13.844   4.098  1.00  0.00     0.276 C 
HETATM    9  C   UNL     1      41.073 -16.512   2.217  1.00  0.00     0.037 A 
HETATM   10  C   UNL     1      41.961 -17.583   2.236  1.00  0.00     0.003 A 
HETATM   11  C   UNL     1      43.210 -17.440   2.839  1.00  0.00     0.001 A 
HETATM   12  C   UNL     1      43.571 -16.229   3.439  1.00  0.00     0.012 A 
ENDROOT
BRANCH   1  13
HETATM   13  C   UNL     1      43.940 -11.512   3.720  1.00  0.00     0.273 C 
BRANCH  13  14
HETATM   14  C   UNL     1      43.815 -11.316   5.205  1.00  0.00    -0.032 A 
HETATM   15  C   UNL     1      44.799 -11.765   6.092  1.00  0.00     0.011 A 
HETATM   16  C   UNL     1      44.693 -11.500   7.466  1.00  0.00     0.030 A 
HETATM   17  C   UNL     1      43.611 -10.778   7.976  1.00  0.00     0.034 A 
HETATM   18  C   UNL     1      42.616 -10.350   7.093  1.00  0.00     0.030 A 
HETATM   19  C   UNL     1      42.716 -10.614   5.723  1.00  0.00     0.011 A 
BRANCH  17  20
HETATM   20  N   UNL     1      43.464 -10.416   9.331  1.00  0.00    -0.328 N 
HETATM   21  C   UNL     1      44.337  -9.669  10.101  1.00  0.00     0.218 C 
HETATM   22  C   UNL     1      43.800  -9.381  11.483  1.00  0.00     0.117 C 
HETATM   23  O   UNL     1      45.425  -9.229   9.746  1.00  0.00    -0.274 OA
HETATM   24  H   UNL     1      42.604 -10.705   9.780  1.00  0.00     0.169 HD
ENDBRANCH  17  20
ENDBRANCH  13  14
ENDBRANCH   1  13
BRANCH   4  25
HETATM   25  C   UNL     1      39.847 -12.653   1.121  1.00  0.00     0.006 A 
HETATM   26  C   UNL     1      39.546 -12.894  -0.232  1.00  0.00     0.077 A 
HETATM   27  C   UNL     1      38.445 -12.268  -0.828  1.00  0.00     0.037 A 
HETATM   28  C   UNL     1      37.613 -11.436  -0.079  1.00  0.00     0.003 A 
HETATM   29  C   UNL     1      37.870 -11.231   1.272  1.00  0.00     0.001 A 
HETATM   30  C   UNL     1      38.972 -11.841   1.870  1.00  0.00     0.012 A 
BRANCH  26  31
HETATM   31  O   UNL     1      40.396 -13.723  -0.918  1.00  0.00    -0.355 OA
HETATM   32  C   UNL     1      40.146 -13.818  -2.321  1.00  0.00     0.210 C 
ENDBRANCH  26  31
ENDBRANCH   4  25
TORSDOF 5
ENDMDL
MODEL 5
REMARK VINA RESULT:      -8.1      4.814      8.681
REMARK  5 active torsions:
REMARK  status: ('A' for Active; 'I' for Inactive)
REMARK       I    between atoms: C_2  and  N_3 
REMARK    1  A    between atoms: N_3  and  C_4 
REMARK    2  A    between atoms: C_7  and  C_8 
REMARK    3  A    between atoms: C_8  and  N_9 
REMARK    4  A    between atoms: C_12  and  C_13 
REMARK    5  A    between atoms: C_14  and  O_15 
ROOT
HETATM    1  N   UNL     1      44.166 -12.452   5.626  1.00  0.00    -0.060 N 
HETATM    2  H   UNL     1      44.726 -12.971   4.941  1.00  0.00     0.280 HD
HETATM    3  C   UNL     1      42.856 -12.007   4.955  1.00  0.00     0.272 C 
HETATM    4  C   UNL     1      41.953 -13.153   4.444  1.00  0.00     0.190 C 
HETATM    5  O   UNL     1      41.448 -13.917   5.553  1.00  0.00    -0.339 OA
HETATM    6  C   UNL     1      42.274 -14.980   5.789  1.00  0.00     0.077 A 
HETATM    7  C   UNL     1      43.529 -14.771   6.369  1.00  0.00     0.001 A 
HETATM    8  C   UNL     1      43.941 -13.391   6.794  1.00  0.00     0.276 C 
HETATM    9  C   UNL     1      41.832 -16.252   5.439  1.00  0.00     0.037 A 
HETATM   10  C   UNL     1      42.674 -17.343   5.628  1.00  0.00     0.003 A 
HETATM   11  C   UNL     1      43.943 -17.155   6.175  1.00  0.00     0.001 A 
HETATM   12  C   UNL     1      44.369 -15.877   6.549  1.00  0.00     0.012 A 
ENDROOT
BRANCH   1  13
HETATM   13  C   UNL     1      44.944 -11.205   6.000  1.00  0.00     0.273 C 
BRANCH  13  14
HETATM   14  C   UNL     1      44.664 -10.599   7.347  1.00  0.00    -0.032 A 
HETATM   15  C   UNL     1      45.618 -10.608   8.371  1.00  0.00     0.011 A 
HETATM   16  C   UNL     1      45.358  -9.967   9.592  1.00  0.00     0.030 A 
HETATM   17  C   UNL     1      44.149  -9.302   9.810  1.00  0.00     0.034 A 
HETATM   18  C   UNL     1      43.186  -9.315   8.796  1.00  0.00     0.030 A 
HETATM   19  C   UNL     1      43.440  -9.954   7.578  1.00  0.00     0.011 A 
BRANCH  17  20
HETATM   20  N   UNL     1      43.837  -8.583  10.981  1.00  0.00    -0.328 N 
HETATM   21  C   UNL     1      43.201  -9.057  12.114  1.00  0.00     0.218 C 
HETATM   22  C   UNL     1      43.134  -8.032  13.221  1.00  0.00     0.117 C 
HETATM   23  O   UNL     1      42.751 -10.187  12.276  1.00  0.00    -0.274 OA
HETATM   24  H   UNL     1      44.146  -7.619  11.010  1.00  0.00     0.169 HD
ENDBRANCH  17  20
ENDBRANCH  13  14
ENDBRANCH   1  13
BRANCH   4  25
HETATM   25  C   UNL     1      40.743 -12.588   3.710  1.00  0.00     0.006 A 
HETATM   26  C   UNL     1      40.186 -13.262   2.608  1.00  0.00     0.077 A 
HETATM   27  C   UNL     1      39.104 -12.705   1.918  1.00  0.00     0.037 A 
HETATM   28  C   UNL     1      38.540 -11.501   2.341  1.00  0.00     0.003 A 
HETATM   29  C   UNL     1      39.048 -10.852   3.460  1.00  0.00     0.001 A 
HETATM   30  C   UNL     1      40.134 -11.394   4.145  1.00  0.00     0.012 A 
BRANCH  26  31
HETATM   31  O   UNL     1      40.779 -14.443   2.239  1.00  0.00    -0.355 OA
HETATM   32  C   UNL     1      39.927 -15.588   2.286  1.00  0.00     0.210 C 
ENDBRANCH  26  31
ENDBRANCH   4  25
TORSDOF 5
ENDMDL
MODEL 6
REMARK VINA RESULT:      -8.1      4.761      7.687
REMARK  5 active torsions:
REMARK  status: ('A' for Active; 'I' for Inactive)
REMARK       I    between atoms: C_2  and  N_3 
REMARK    1  A    between atoms: N_3  and  C_4 
REMARK    2  A    between atoms: C_7  and  C_8 
REMARK    3  A    between atoms: C_8  and  N_9 
REMARK    4  A    between atoms: C_12  and  C_13 
REMARK    5  A    between atoms: C_14  and  O_15 
ROOT
HETATM    1  N   UNL     1      43.347 -12.163   5.644  1.00  0.00    -0.060 N 
HETATM    2  H   UNL     1      42.563 -12.200   6.305  1.00  0.00     0.280 HD
HETATM    3  C   UNL     1      43.677 -13.596   5.192  1.00  0.00     0.272 C 
HETATM    4  C   UNL     1      42.534 -14.338   4.461  1.00  0.00     0.190 C 
HETATM    5  O   UNL     1      42.263 -13.707   3.197  1.00  0.00    -0.339 OA
HETATM    6  C   UNL     1      41.262 -12.789   3.351  1.00  0.00     0.077 A 
HETATM    7  C   UNL     1      41.516 -11.586   4.016  1.00  0.00     0.001 A 
HETATM    8  C   UNL     1      42.901 -11.273   4.502  1.00  0.00     0.276 C 
HETATM    9  C   UNL     1      40.005 -13.088   2.832  1.00  0.00     0.037 A 
HETATM   10  C   UNL     1      38.960 -12.189   3.016  1.00  0.00     0.003 A 
HETATM   11  C   UNL     1      39.181 -10.997   3.705  1.00  0.00     0.001 A 
HETATM   12  C   UNL     1      40.453 -10.692   4.199  1.00  0.00     0.012 A 
ENDROOT
BRANCH   1  13
HETATM   13  C   UNL     1      44.550 -11.623   6.393  1.00  0.00     0.273 C 
BRANCH  13  14
HETATM   14  C   UNL     1      44.280 -10.708   7.555  1.00  0.00    -0.032 A 
HETATM   15  C   UNL     1      43.029 -10.112   7.747  1.00  0.00     0.011 A 
HETATM   16  C   UNL     1      42.784  -9.324   8.883  1.00  0.00     0.030 A 
HETATM   17  C   UNL     1      43.775  -9.125   9.846  1.00  0.00     0.034 A 
HETATM   18  C   UNL     1      45.032  -9.700   9.641  1.00  0.00     0.030 A 
HETATM   19  C   UNL     1      45.283 -10.484   8.510  1.00  0.00     0.011 A 
BRANCH  17  20
HETATM   20  N   UNL     1      43.589  -8.402  11.042  1.00  0.00    -0.328 N 
HETATM   21  C   UNL     1      43.146  -8.889  12.258  1.00  0.00     0.218 C 
HETATM   22  C   UNL     1      43.176  -7.849  13.352  1.00  0.00     0.117 C 
HETATM   23  O   UNL     1      42.788 -10.038  12.494  1.00  0.00    -0.274 OA
HETATM   24  H   UNL     1      43.844  -7.422  11.017  1.00  0.00     0.169 HD
ENDBRANCH  17  20
ENDBRANCH  13  14
ENDBRANCH   1  13
BRANCH   4  25
HETATM   25  C   UNL     1      42.942 -15.773   4.158  1.00  0.00     0.006 A 
HETATM   26  C   UNL     1      43.119 -16.710   5.194  1.00  0.00     0.077 A 
HETATM   27  C   UNL     1      43.539 -18.012   4.899  1.00  0.00     0.037 A 
HETATM   28  C   UNL     1      43.745 -18.406   3.577  1.00  0.00     0.003 A 
HETATM   29  C   UNL     1      43.525 -17.505   2.541  1.00  0.00     0.001 A 
HETATM   30  C   UNL     1      43.118 -16.203   2.828  1.00  0.00     0.012 A 
BRANCH  26  31
HETATM   31  O   UNL     1      42.899 -16.268   6.473  1.00  0.00    -0.355 OA
HETATM   32  C   UNL     1      43.820 -16.756   7.449  1.00  0.00     0.210 C 
ENDBRANCH  26  31
ENDBRANCH   4  25
TORSDOF 5
ENDMDL
MODEL 7
REMARK VINA RESULT:      -7.9     15.904     17.688
REMARK  5 active torsions:
REMARK  status: ('A' for Active; 'I' for Inactive)
REMARK       I    between atoms: C_2  and  N_3 
REMARK    1  A    between atoms: N_3  and  C_4 
REMARK    2  A    between atoms: C_7  and  C_8 
REMARK    3  A    between atoms: C_8  and  N_9 
REMARK    4  A    between atoms: C_12  and  C_13 
REMARK    5  A    between atoms: C_14  and  O_15 
ROOT
HETATM    1  N   UNL     1      46.748 -28.888   0.309  1.00  0.00    -0.060 N 
HETATM    2  H   UNL     1      47.345 -29.706   0.141  1.00  0.00     0.280 HD
HETATM    3  C   UNL     1      45.302 -29.369   0.514  1.00  0.00     0.272 C 
HETATM    4  C   UNL     1      45.084 -30.314   1.718  1.00  0.00     0.190 C 
HETATM    5  O   UNL     1      45.316 -29.607   2.949  1.00  0.00    -0.339 OA
HETATM    6  C   UNL     1      46.614 -29.782   3.339  1.00  0.00     0.077 A 
HETATM    7  C   UNL     1      47.641 -29.132   2.649  1.00  0.00     0.001 A 
HETATM    8  C   UNL     1      47.316 -28.189   1.528  1.00  0.00     0.276 C 
HETATM    9  C   UNL     1      46.873 -30.616   4.423  1.00  0.00     0.037 A 
HETATM   10  C   UNL     1      48.190 -30.845   4.809  1.00  0.00     0.003 A 
HETATM   11  C   UNL     1      49.234 -30.232   4.116  1.00  0.00     0.001 A 
HETATM   12  C   UNL     1      48.964 -29.375   3.045  1.00  0.00     0.012 A 
ENDROOT
BRANCH   1  13
HETATM   13  C   UNL     1      46.782 -28.034  -0.943  1.00  0.00     0.273 C 
BRANCH  13  14
HETATM   14  C   UNL     1      46.295 -28.665  -2.219  1.00  0.00    -0.032 A 
HETATM   15  C   UNL     1      46.622 -29.983  -2.558  1.00  0.00     0.011 A 
HETATM   16  C   UNL     1      46.091 -30.571  -3.716  1.00  0.00     0.030 A 
HETATM   17  C   UNL     1      45.223 -29.861  -4.548  1.00  0.00     0.034 A 
HETATM   18  C   UNL     1      44.916 -28.536  -4.222  1.00  0.00     0.030 A 
HETATM   19  C   UNL     1      45.445 -27.945  -3.070  1.00  0.00     0.011 A 
BRANCH  17  20
HETATM   20  N   UNL     1      44.599 -30.399  -5.692  1.00  0.00    -0.328 N 
HETATM   21  C   UNL     1      45.157 -31.242  -6.636  1.00  0.00     0.218 C 
HETATM   22  C   UNL     1      44.158 -31.711  -7.667  1.00  0.00     0.117 C 
HETATM   23  O   UNL     1      46.320 -31.631  -6.665  1.00  0.00    -0.274 OA
HETATM   24  H   UNL     1      43.619 -30.173  -5.816  1.00  0.00     0.169 HD
ENDBRANCH  17  20
ENDBRANCH  13  14
ENDBRANCH   1  13
BRANCH   4  25
HETATM   25  C   UNL     1      43.642 -30.802   1.755  1.00  0.00     0.006 A 
HETATM   26  C   UNL     1      43.238 -31.922   1.006  1.00  0.00     0.077 A 
HETATM   27  C   UNL     1      41.898 -32.328   1.017  1.00  0.00     0.037 A 
HETATM   28  C   UNL     1      40.962 -31.654   1.801  1.00  0.00     0.003 A 
HETATM   29  C   UNL     1      41.358 -30.578   2.586  1.00  0.00     0.001 A 
HETATM   30  C   UNL     1      42.689 -30.160   2.570  1.00  0.00     0.012 A 
BRANCH  26  31
HETATM   31  O   UNL     1      44.201 -32.547   0.256  1.00  0.00    -0.355 OA
HETATM   32  C   UNL     1      44.005 -32.484  -1.157  1.00  0.00     0.210 C 
ENDBRANCH  26  31
ENDBRANCH   4  25
TORSDOF 5
ENDMDL
MODEL 8
REMARK VINA RESULT:      -7.9      5.395      8.608
REMARK  5 active torsions:
REMARK  status: ('A' for Active; 'I' for Inactive)
REMARK       I    between atoms: C_2  and  N_3 
REMARK    1  A    between atoms: N_3  and  C_4 
REMARK    2  A    between atoms: C_7  and  C_8 
REMARK    3  A    between atoms: C_8  and  N_9 
REMARK    4  A    between atoms: C_12  and  C_13 
REMARK    5  A    between atoms: C_14  and  O_15 
ROOT
HETATM    1  N   UNL     1      43.016 -11.531   6.688  1.00  0.00    -0.060 N 
HETATM    2  H   UNL     1      42.229 -11.813   7.283  1.00  0.00     0.280 HD
HETATM    3  C   UNL     1      43.316 -12.669   5.698  1.00  0.00     0.272 C 
HETATM    4  C   UNL     1      42.160 -13.031   4.738  1.00  0.00     0.190 C 
HETATM    5  O   UNL     1      41.908 -11.941   3.834  1.00  0.00    -0.339 OA
HETATM    6  C   UNL     1      40.927 -11.140   4.348  1.00  0.00     0.077 A 
HETATM    7  C   UNL     1      41.204 -10.311   5.438  1.00  0.00     0.001 A 
HETATM    8  C   UNL     1      42.595 -10.248   6.001  1.00  0.00     0.276 C 
HETATM    9  C   UNL     1      39.666 -11.179   3.759  1.00  0.00     0.037 A 
HETATM   10  C   UNL     1      38.639 -10.406   4.294  1.00  0.00     0.003 A 
HETATM   11  C   UNL     1      38.884  -9.595   5.401  1.00  0.00     0.001 A 
HETATM   12  C   UNL     1      40.161  -9.541   5.970  1.00  0.00     0.012 A 
ENDROOT
BRANCH   1  13
HETATM   13  C   UNL     1      44.228 -11.362   7.584  1.00  0.00     0.273 C 
BRANCH  13  14
HETATM   14  C   UNL     1      44.045 -10.558   8.842  1.00  0.00    -0.032 A 
HETATM   15  C   UNL     1      45.088 -10.377   9.756  1.00  0.00     0.011 A 
HETATM   16  C   UNL     1      44.912  -9.559  10.883  1.00  0.00     0.030 A 
HETATM   17  C   UNL     1      43.699  -8.904  11.112  1.00  0.00     0.034 A 
HETATM   18  C   UNL     1      42.650  -9.106  10.211  1.00  0.00     0.030 A 
HETATM   19  C   UNL     1      42.820  -9.922   9.088  1.00  0.00     0.011 A 
BRANCH  17  20
HETATM   20  N   UNL     1      43.463  -8.018  12.182  1.00  0.00    -0.328 N 
HETATM   21  C   UNL     1      42.865  -8.306  13.396  1.00  0.00     0.218 C 
HETATM   22  C   UNL     1      42.881  -7.135  14.350  1.00  0.00     0.117 C 
HETATM   23  O   UNL     1      42.388  -9.384  13.733  1.00  0.00    -0.274 OA
HETATM   24  H   UNL     1      43.804  -7.072  12.063  1.00  0.00     0.169 HD
ENDBRANCH  17  20
ENDBRANCH  13  14
ENDBRANCH   1  13
BRANCH   4  25
HETATM   25  C   UNL     1      42.537 -14.234   3.882  1.00  0.00     0.006 A 
HETATM   26  C   UNL     1      42.322 -15.546   4.343  1.00  0.00     0.077 A 
HETATM   27  C   UNL     1      42.718 -16.638   3.563  1.00  0.00     0.037 A 
HETATM   28  C   UNL     1      43.289 -16.439   2.306  1.00  0.00     0.003 A 
HETATM   29  C   UNL     1      43.460 -15.149   1.817  1.00  0.00     0.001 A 
HETATM   30  C   UNL     1      43.080 -14.055   2.594  1.00  0.00     0.012 A 
BRANCH  26  31
HETATM   31  O   UNL     1      41.754 -15.682   5.584  1.00  0.00    -0.355 OA
HETATM   32  C   UNL     1      40.471 -16.308   5.597  1.00  0.00     0.210 C 
ENDBRANCH  26  31
ENDBRANCH   4  25
TORSDOF 5
ENDMDL
MODEL 9
REMARK VINA RESULT:      -7.8      5.295      9.524
REMARK  5 active torsions:
REMARK  status: ('A' for Active; 'I' for Inactive)
REMARK       I    between atoms: C_2  and  N_3 
REMARK    1  A    between atoms: N_3  and  C_4 
REMARK    2  A    between atoms: C_7  and  C_8 
REMARK    3  A    between atoms: C_8  and  N_9 
REMARK    4  A    between atoms: C_12  and  C_13 
REMARK    5  A    between atoms: C_14  and  O_15 
ROOT
HETATM    1  N   UNL     1      40.822 -10.826   7.036  1.00  0.00    -0.060 N 
HETATM    2  H   UNL     1      41.133 -11.618   7.610  1.00  0.00     0.280 HD
HETATM    3  C   UNL     1      40.114  -9.808   7.946  1.00  0.00     0.272 C 
HETATM    4  C   UNL     1      40.987  -9.206   9.070  1.00  0.00     0.190 C 
HETATM    5  O   UNL     1      42.029  -8.391   8.505  1.00  0.00    -0.339 OA
HETATM    6  C   UNL     1      43.159  -9.142   8.341  1.00  0.00     0.077 A 
HETATM    7  C   UNL     1      43.215 -10.103   7.327  1.00  0.00     0.001 A 
HETATM    8  C   UNL     1      42.064 -10.263   6.376  1.00  0.00     0.276 C 
HETATM    9  C   UNL     1      44.230  -8.922   9.202  1.00  0.00     0.037 A 
HETATM   10  C   UNL     1      45.373  -9.707   9.083  1.00  0.00     0.003 A 
HETATM   11  C   UNL     1      45.440 -10.694   8.100  1.00  0.00     0.001 A 
HETATM   12  C   UNL     1      44.370 -10.890   7.221  1.00  0.00     0.012 A 
ENDROOT
BRANCH   1  13
HETATM   13  C   UNL     1      39.802 -11.353   6.045  1.00  0.00     0.273 C 
BRANCH  13  14
HETATM   14  C   UNL     1      40.125 -12.647   5.351  1.00  0.00    -0.032 A 
HETATM   15  C   UNL     1      39.914 -12.817   3.978  1.00  0.00     0.011 A 
HETATM   16  C   UNL     1      40.296 -14.009   3.343  1.00  0.00     0.030 A 
HETATM   17  C   UNL     1      40.900 -15.044   4.061  1.00  0.00     0.034 A 
HETATM   18  C   UNL     1      41.088 -14.883   5.436  1.00  0.00     0.030 A 
HETATM   19  C   UNL     1      40.706 -13.698   6.075  1.00  0.00     0.011 A 
BRANCH  17  20
HETATM   20  N   UNL     1      41.369 -16.243   3.486  1.00  0.00    -0.328 N 
HETATM   21  C   UNL     1      42.559 -16.441   2.809  1.00  0.00     0.218 C 
HETATM   22  C   UNL     1      42.783 -17.885   2.429  1.00  0.00     0.117 C 
HETATM   23  O   UNL     1      43.398 -15.586   2.548  1.00  0.00    -0.274 OA
HETATM   24  H   UNL     1      40.785 -17.060   3.616  1.00  0.00     0.169 HD
ENDBRANCH  17  20
ENDBRANCH  13  14
ENDBRANCH   1  13
BRANCH   4  25
HETATM   25  C   UNL     1      40.152  -8.297   9.962  1.00  0.00     0.006 A 
HETATM   26  C   UNL     1      39.836  -8.670  11.282  1.00  0.00     0.077 A 
HETATM   27  C   UNL     1      39.029  -7.843  12.071  1.00  0.00     0.037 A 
HETATM   28  C   UNL     1      38.566  -6.624  11.575  1.00  0.00     0.003 A 
HETATM   29  C   UNL     1      38.915  -6.220  10.291  1.00  0.00     0.001 A 
HETATM   30  C   UNL     1      39.708  -7.044   9.494  1.00  0.00     0.012 A 
BRANCH  26  31
HETATM   31  O   UNL     1      40.320  -9.877  11.718  1.00  0.00    -0.355 OA
HETATM   32  C   UNL     1      39.751 -10.352  12.938  1.00  0.00     0.210 C 
ENDBRANCH  26  31
ENDBRANCH   4  25
TORSDOF 5
ENDMDL
MODEL 10
REMARK VINA RESULT:      -7.8      5.895      9.511
REMARK  5 active torsions:
REMARK  status: ('A' for Active; 'I' for Inactive)
REMARK       I    between atoms: C_2  and  N_3 
REMARK    1  A    between atoms: N_3  and  C_4 
REMARK    2  A    between atoms: C_7  and  C_8 
REMARK    3  A    between atoms: C_8  and  N_9 
REMARK    4  A    between atoms: C_12  and  C_13 
REMARK    5  A    between atoms: C_14  and  O_15 
ROOT
HETATM    1  N   UNL     1      41.247 -10.052   7.719  1.00  0.00    -0.060 N 
HETATM    2  H   UNL     1      41.505 -10.944   8.156  1.00  0.00     0.280 HD
HETATM    3  C   UNL     1      41.260  -8.956   8.797  1.00  0.00     0.272 C 
HETATM    4  C   UNL     1      42.624  -8.718   9.482  1.00  0.00     0.190 C 
HETATM    5  O   UNL     1      43.567  -8.184   8.536  1.00  0.00    -0.339 OA
HETATM    6  C   UNL     1      44.282  -9.206   7.977  1.00  0.00     0.077 A 
HETATM    7  C   UNL     1      43.673 -10.056   7.050  1.00  0.00     0.001 A 
HETATM    8  C   UNL     1      42.258  -9.808   6.617  1.00  0.00     0.276 C 
HETATM    9  C   UNL     1      45.612  -9.367   8.357  1.00  0.00     0.037 A 
HETATM   10  C   UNL     1      46.346 -10.428   7.836  1.00  0.00     0.003 A 
HETATM   11  C   UNL     1      45.750 -11.309   6.934  1.00  0.00     0.001 A 
HETATM   12  C   UNL     1      44.422 -11.124   6.537  1.00  0.00     0.012 A 
ENDROOT
BRANCH   1  13
HETATM   13  C   UNL     1      39.825 -10.189   7.210  1.00  0.00     0.273 C 
BRANCH  13  14
HETATM   14  C   UNL     1      39.602 -11.090   6.027  1.00  0.00    -0.032 A 
HETATM   15  C   UNL     1      39.153 -10.594   4.799  1.00  0.00     0.011 A 
HETATM   16  C   UNL     1      39.028 -11.446   3.690  1.00  0.00     0.030 A 
HETATM   17  C   UNL     1      39.354 -12.800   3.786  1.00  0.00     0.034 A 
HETATM   18  C   UNL     1      39.780 -13.300   5.020  1.00  0.00     0.030 A 
HETATM   19  C   UNL     1      39.904 -12.456   6.128  1.00  0.00     0.011 A 
BRANCH  17  20
HETATM   20  N   UNL     1      39.316 -13.706   2.707  1.00  0.00    -0.328 N 
HETATM   21  C   UNL     1      40.365 -14.078   1.884  1.00  0.00     0.218 C 
HETATM   22  C   UNL     1      39.984 -15.159   0.901  1.00  0.00     0.117 C 
HETATM   23  O   UNL     1      41.510 -13.641   1.924  1.00  0.00    -0.274 OA
HETATM   24  H   UNL     1      38.429 -14.164   2.537  1.00  0.00     0.169 HD
ENDBRANCH  17  20
ENDBRANCH  13  14
ENDBRANCH   1  13
BRANCH   4  25
HETATM   25  C   UNL     1      42.487  -7.688  10.596  1.00  0.00     0.006 A 
HETATM   26  C   UNL     1      42.389  -8.087  11.942  1.00  0.00     0.077 A 
HETATM   27  C   UNL     1      42.217  -7.129  12.947  1.00  0.00     0.037 A 
HETATM   28  C   UNL     1      42.184  -5.771  12.631  1.00  0.00     0.003 A 
HETATM   29  C   UNL     1      42.332  -5.361  11.311  1.00  0.00     0.001 A 
HETATM   30  C   UNL     1      42.491  -6.310  10.303  1.00  0.00     0.012 A 
BRANCH  26  31
HETATM   31  O   UNL     1      42.431  -9.435  12.194  1.00  0.00    -0.355 OA
HETATM   32  C   UNL     1      41.242  -9.980  12.768  1.00  0.00     0.210 C 
ENDBRANCH  26  31
ENDBRANCH   4  25
TORSDOF 5
ENDMDL
