MODEL 1
REMARK VINA RESULT:      -9.6      0.000      0.000
REMARK  5 active torsions:
REMARK  status: ('A' for Active; 'I' for Inactive)
REMARK    1  A    between atoms: C_5  and  C_6 
REMARK    2  A    between atoms: C_10  and  C_11 
REMARK       I    between atoms: C_11  and  N_12 
REMARK    3  A    between atoms: N_12  and  N_13 
REMARK       I    between atoms: N_13  and  C_14 
REMARK       I    between atoms: C_14  and  N_15 
REMARK    4  A    between atoms: N_15  and  C_16 
REMARK    5  A    between atoms: C_16  and  C_17 
ROOT
HETATM    1  C   UNL     1      44.499 -11.018   8.621  1.00  0.00     0.288 C 
HETATM    2  N   UNL     1      43.476 -11.758   8.072  1.00  0.00    -0.261 N 
HETATM    3  O   UNL     1      45.669 -11.141   8.266  1.00  0.00    -0.264 OA
HETATM    4  H   UNL     1      42.497 -11.607   8.306  1.00  0.00     0.190 HD
ENDROOT
BRANCH   2   5
HETATM    5  N   UNL     1      43.698 -12.512   6.910  1.00  0.00    -0.249 N 
HETATM    6  C   UNL     1      43.596 -13.879   7.056  1.00  0.00     0.334 C 
HETATM    7  N   UNL     1      43.867 -14.558   5.895  1.00  0.00    -0.341 N 
HETATM    8  O   UNL     1      43.257 -14.408   8.111  1.00  0.00    -0.246 OA
HETATM    9  H   UNL     1      43.651 -14.033   5.059  1.00  0.00     0.164 HD
HETATM   10  H   UNL     1      44.373 -12.127   6.255  1.00  0.00     0.192 HD
BRANCH   7  11
HETATM   11  C   UNL     1      43.623 -15.986   5.865  1.00  0.00     0.129 C 
BRANCH  11  12
HETATM   12  C   UNL     1      43.664 -16.619   4.468  1.00  0.00     0.004 C 
HETATM   13  C   UNL     1      42.328 -16.477   3.721  1.00  0.00     0.010 C 
HETATM   14  C   UNL     1      42.371 -17.079   2.305  1.00  0.00    -0.018 C 
HETATM   15  C   UNL     1      42.884 -18.526   2.340  1.00  0.00     0.004 C 
HETATM   16  C   UNL     1      43.190 -16.212   1.343  1.00  0.00     0.010 C 
HETATM   17  C   UNL     1      44.200 -18.679   3.100  1.00  0.00     0.001 C 
HETATM   18  C   UNL     1      44.113 -18.087   4.505  1.00  0.00     0.006 C 
ENDBRANCH  11  12
ENDBRANCH   7  11
ENDBRANCH   2   5
BRANCH   1  19
HETATM   19  C   UNL     1      44.086 -10.083   9.635  1.00  0.00     0.121 A 
HETATM   20  N   UNL     1      43.957  -8.745   9.387  1.00  0.00    -0.272 N 
HETATM   21  N   UNL     1      43.513  -8.032  10.434  1.00  0.00    -0.174 NA
HETATM   22  H   UNL     1      44.142  -8.266   8.511  1.00  0.00     0.189 HD
HETATM   23  C   UNL     1      43.363  -8.931  11.420  1.00  0.00     0.089 A 
HETATM   24  C   UNL     1      43.722 -10.228  10.958  1.00  0.00     0.071 A 
BRANCH  23  25
HETATM   25  C   UNL     1      42.865  -8.560  12.749  1.00  0.00    -0.006 A 
HETATM   26  C   UNL     1      43.396  -7.454  13.426  1.00  0.00     0.014 A 
HETATM   27  C   UNL     1      42.897  -7.070  14.675  1.00  0.00     0.007 A 
HETATM   28  C   UNL     1      41.863  -7.793  15.278  1.00  0.00    -0.062 A 
HETATM   29  C   UNL     1      41.297  -7.375  16.603  1.00  0.00     0.048 C 
HETATM   30  C   UNL     1      41.334  -8.902  14.611  1.00  0.00     0.007 A 
HETATM   31  C   UNL     1      41.832  -9.283  13.360  1.00  0.00     0.014 A 
ENDBRANCH  23  25
ENDBRANCH   1  19
TORSDOF 5
ENDMDL
MODEL 2
REMARK VINA RESULT:      -9.5      1.439     11.365
REMARK  5 active torsions:
REMARK  status: ('A' for Active; 'I' for Inactive)
REMARK    1  A    between atoms: C_5  and  C_6 
REMARK    2  A    between atoms: C_10  and  C_11 
REMARK       I    between atoms: C_11  and  N_12 
REMARK    3  A    between atoms: N_12  and  N_13 
REMARK       I    between atoms: N_13  and  C_14 
REMARK       I    between atoms: C_14  and  N_15 
REMARK    4  A    between atoms: N_15  and  C_16 
REMARK    5  A    between atoms: C_16  and  C_17 
ROOT
HETATM    1  C   UNL     1      42.684 -12.513   6.417  1.00  0.00     0.288 C 
HETATM    2  N   UNL     1      43.260 -12.047   7.578  1.00  0.00    -0.261 N 
HETATM    3  O   UNL     1      41.879 -11.851   5.766  1.00  0.00    -0.264 OA
HETATM    4  H   UNL     1      43.983 -12.557   8.080  1.00  0.00     0.190 HD
ENDROOT
BRANCH   2   5
HETATM    5  N   UNL     1      43.133 -10.695   7.933  1.00  0.00    -0.249 N 
HETATM    6  C   UNL     1      43.491 -10.382   9.226  1.00  0.00     0.334 C 
HETATM    7  N   UNL     1      43.300  -9.055   9.522  1.00  0.00    -0.341 N 
HETATM    8  O   UNL     1      43.964 -11.208  10.001  1.00  0.00    -0.246 OA
HETATM    9  H   UNL     1      43.382  -8.446   8.720  1.00  0.00     0.164 HD
HETATM   10  H   UNL     1      42.372 -10.191   7.487  1.00  0.00     0.192 HD
BRANCH   7  11
HETATM   11  C   UNL     1      43.802  -8.558  10.788  1.00  0.00     0.129 C 
BRANCH  11  12
HETATM   12  C   UNL     1      42.844  -8.732  11.974  1.00  0.00     0.004 C 
HETATM   13  C   UNL     1      41.382  -8.446  11.595  1.00  0.00     0.010 C 
HETATM   14  C   UNL     1      40.411  -8.652  12.770  1.00  0.00    -0.018 C 
HETATM   15  C   UNL     1      40.871  -7.865  14.006  1.00  0.00     0.004 C 
HETATM   16  C   UNL     1      40.210 -10.137  13.089  1.00  0.00     0.010 C 
HETATM   17  C   UNL     1      42.330  -8.127  14.377  1.00  0.00     0.001 C 
HETATM   18  C   UNL     1      43.263  -7.895  13.191  1.00  0.00     0.006 C 
ENDBRANCH  11  12
ENDBRANCH   7  11
ENDBRANCH   2   5
BRANCH   1  19
HETATM   19  C   UNL     1      43.109 -13.831   6.024  1.00  0.00     0.121 A 
HETATM   20  N   UNL     1      43.864 -14.628   6.837  1.00  0.00    -0.272 N 
HETATM   21  N   UNL     1      44.125 -15.843   6.329  1.00  0.00    -0.174 NA
HETATM   22  H   UNL     1      44.215 -14.399   7.762  1.00  0.00     0.189 HD
HETATM   23  C   UNL     1      43.536 -15.841   5.122  1.00  0.00     0.089 A 
HETATM   24  C   UNL     1      42.896 -14.591   4.892  1.00  0.00     0.071 A 
BRANCH  23  25
HETATM   25  C   UNL     1      43.564 -17.009   4.235  1.00  0.00    -0.006 A 
HETATM   26  C   UNL     1      44.225 -18.182   4.621  1.00  0.00     0.014 A 
HETATM   27  C   UNL     1      44.219 -19.313   3.798  1.00  0.00     0.007 A 
HETATM   28  C   UNL     1      43.561 -19.289   2.565  1.00  0.00    -0.062 A 
HETATM   29  C   UNL     1      43.521 -20.504   1.685  1.00  0.00     0.048 C 
HETATM   30  C   UNL     1      42.905 -18.119   2.170  1.00  0.00     0.007 A 
HETATM   31  C   UNL     1      42.909 -16.990   2.995  1.00  0.00     0.014 A 
ENDBRANCH  23  25
ENDBRANCH   1  19
TORSDOF 5
ENDMDL
MODEL 3
REMARK VINA RESULT:      -9.4      1.115      1.792
REMARK  5 active torsions:
REMARK  status: ('A' for Active; 'I' for Inactive)
REMARK    1  A    between atoms: C_5  and  C_6 
REMARK    2  A    between atoms: C_10  and  C_11 
REMARK       I    between atoms: C_11  and  N_12 
REMARK    3  A    between atoms: N_12  and  N_13 
REMARK       I    between atoms: N_13  and  C_14 
REMARK       I    between atoms: C_14  and  N_15 
REMARK    4  A    between atoms: N_15  and  C_16 
REMARK    5  A    between atoms: C_16  and  C_17 
ROOT
HETATM    1  C   UNL     1      44.131 -11.368   8.002  1.00  0.00     0.288 C 
HETATM    2  N   UNL     1      43.378 -12.458   7.629  1.00  0.00    -0.261 N 
HETATM    3  O   UNL     1      45.229 -11.122   7.509  1.00  0.00    -0.264 OA
HETATM    4  H   UNL     1      42.436 -12.626   7.977  1.00  0.00     0.190 HD
ENDROOT
BRANCH   2   5
HETATM    5  N   UNL     1      43.730 -13.201   6.490  1.00  0.00    -0.249 N 
HETATM    6  C   UNL     1      42.767 -14.067   6.021  1.00  0.00     0.334 C 
HETATM    7  N   UNL     1      43.191 -14.792   4.935  1.00  0.00    -0.341 N 
HETATM    8  O   UNL     1      41.644 -14.137   6.511  1.00  0.00    -0.246 OA
HETATM    9  H   UNL     1      43.883 -14.315   4.375  1.00  0.00     0.164 HD
HETATM   10  H   UNL     1      44.712 -13.452   6.413  1.00  0.00     0.192 HD
BRANCH   7  11
HETATM   11  C   UNL     1      42.218 -15.608   4.236  1.00  0.00     0.129 C 
BRANCH  11  12
HETATM   12  C   UNL     1      42.656 -17.057   3.980  1.00  0.00     0.004 C 
HETATM   13  C   UNL     1      44.077 -17.339   4.493  1.00  0.00     0.010 C 
HETATM   14  C   UNL     1      44.511 -18.799   4.271  1.00  0.00    -0.018 C 
HETATM   15  C   UNL     1      44.312 -19.213   2.806  1.00  0.00     0.004 C 
HETATM   16  C   UNL     1      43.797 -19.757   5.231  1.00  0.00     0.010 C 
HETATM   17  C   UNL     1      42.909 -18.915   2.282  1.00  0.00     0.001 C 
HETATM   18  C   UNL     1      42.522 -17.455   2.503  1.00  0.00     0.006 C 
ENDBRANCH  11  12
ENDBRANCH   7  11
ENDBRANCH   2   5
BRANCH   1  19
HETATM   19  C   UNL     1      43.524 -10.536   9.007  1.00  0.00     0.121 A 
HETATM   20  N   UNL     1      42.421  -9.769   8.753  1.00  0.00    -0.272 N 
HETATM   21  N   UNL     1      41.960  -9.097   9.820  1.00  0.00    -0.174 NA
HETATM   22  H   UNL     1      41.930  -9.681   7.870  1.00  0.00     0.189 HD
HETATM   23  C   UNL     1      42.804  -9.416  10.815  1.00  0.00     0.089 A 
HETATM   24  C   UNL     1      43.804 -10.310  10.340  1.00  0.00     0.071 A 
BRANCH  23  25
HETATM   25  C   UNL     1      42.638  -8.903  12.178  1.00  0.00    -0.006 A 
HETATM   26  C   UNL     1      43.397  -7.812  12.627  1.00  0.00     0.014 A 
HETATM   27  C   UNL     1      43.213  -7.291  13.912  1.00  0.00     0.007 A 
HETATM   28  C   UNL     1      42.275  -7.858  14.780  1.00  0.00    -0.062 A 
HETATM   29  C   UNL     1      42.046  -7.291  16.149  1.00  0.00     0.048 C 
HETATM   30  C   UNL     1      41.521  -8.951  14.341  1.00  0.00     0.007 A 
HETATM   31  C   UNL     1      41.703  -9.469  13.055  1.00  0.00     0.014 A 
ENDBRANCH  23  25
ENDBRANCH   1  19
TORSDOF 5
ENDMDL
MODEL 4
REMARK VINA RESULT:      -9.3      1.617     11.394
REMARK  5 active torsions:
REMARK  status: ('A' for Active; 'I' for Inactive)
REMARK    1  A    between atoms: C_5  and  C_6 
REMARK    2  A    between atoms: C_10  and  C_11 
REMARK       I    between atoms: C_11  and  N_12 
REMARK    3  A    between atoms: N_12  and  N_13 
REMARK       I    between atoms: N_13  and  C_14 
REMARK       I    between atoms: C_14  and  N_15 
REMARK    4  A    between atoms: N_15  and  C_16 
REMARK    5  A    between atoms: C_16  and  C_17 
ROOT
HETATM    1  C   UNL     1      42.166 -12.397   6.124  1.00  0.00     0.288 C 
HETATM    2  N   UNL     1      42.812 -11.749   7.153  1.00  0.00    -0.261 N 
HETATM    3  O   UNL     1      41.215 -11.902   5.524  1.00  0.00    -0.264 OA
HETATM    4  H   UNL     1      43.646 -12.119   7.603  1.00  0.00     0.190 HD
ENDROOT
BRANCH   2   5
HETATM    5  N   UNL     1      42.560 -10.390   7.397  1.00  0.00    -0.249 N 
HETATM    6  C   UNL     1      43.192  -9.854   8.498  1.00  0.00     0.334 C 
HETATM    7  N   UNL     1      42.869  -8.536   8.704  1.00  0.00    -0.341 N 
HETATM    8  O   UNL     1      43.985 -10.493   9.183  1.00  0.00    -0.246 OA
HETATM    9  H   UNL     1      42.632  -8.039   7.857  1.00  0.00     0.164 HD
HETATM   10  H   UNL     1      41.635 -10.058   7.139  1.00  0.00     0.192 HD
BRANCH   7  11
HETATM   11  C   UNL     1      43.599  -7.804   9.721  1.00  0.00     0.129 C 
BRANCH  11  12
HETATM   12  C   UNL     1      42.872  -7.669  11.066  1.00  0.00     0.004 C 
HETATM   13  C   UNL     1      43.517  -8.523  12.169  1.00  0.00     0.010 C 
HETATM   14  C   UNL     1      42.815  -8.366  13.529  1.00  0.00    -0.018 C 
HETATM   15  C   UNL     1      41.304  -8.604  13.397  1.00  0.00     0.004 C 
HETATM   16  C   UNL     1      43.119  -7.009  14.174  1.00  0.00     0.010 C 
HETATM   17  C   UNL     1      40.659  -7.775  12.288  1.00  0.00     0.001 C 
HETATM   18  C   UNL     1      41.372  -7.971  10.951  1.00  0.00     0.006 C 
ENDBRANCH  11  12
ENDBRANCH   7  11
ENDBRANCH   2   5
BRANCH   1  19
HETATM   19  C   UNL     1      42.702 -13.693   5.802  1.00  0.00     0.121 A 
HETATM   20  N   UNL     1      43.518 -14.380   6.656  1.00  0.00    -0.272 N 
HETATM   21  N   UNL     1      43.883 -15.594   6.213  1.00  0.00    -0.174 NA
HETATM   22  H   UNL     1      43.846 -14.073   7.567  1.00  0.00     0.189 HD
HETATM   23  C   UNL     1      43.301 -15.706   5.009  1.00  0.00     0.089 A 
HETATM   24  C   UNL     1      42.559 -14.528   4.712  1.00  0.00     0.071 A 
BRANCH  23  25
HETATM   25  C   UNL     1      43.430 -16.912   4.185  1.00  0.00    -0.006 A 
HETATM   26  C   UNL     1      44.186 -18.004   4.634  1.00  0.00     0.014 A 
HETATM   27  C   UNL     1      44.278 -19.174   3.872  1.00  0.00     0.007 A 
HETATM   28  C   UNL     1      43.626 -19.271   2.639  1.00  0.00    -0.062 A 
HETATM   29  C   UNL     1      43.692 -20.530   1.826  1.00  0.00     0.048 C 
HETATM   30  C   UNL     1      42.877 -18.182   2.182  1.00  0.00     0.007 A 
HETATM   31  C   UNL     1      42.782 -17.015   2.946  1.00  0.00     0.014 A 
ENDBRANCH  23  25
ENDBRANCH   1  19
TORSDOF 5
ENDMDL
MODEL 5
REMARK VINA RESULT:      -9.0      1.496     11.307
REMARK  5 active torsions:
REMARK  status: ('A' for Active; 'I' for Inactive)
REMARK    1  A    between atoms: C_5  and  C_6 
REMARK    2  A    between atoms: C_10  and  C_11 
REMARK       I    between atoms: C_11  and  N_12 
REMARK    3  A    between atoms: N_12  and  N_13 
REMARK       I    between atoms: N_13  and  C_14 
REMARK       I    between atoms: C_14  and  N_15 
REMARK    4  A    between atoms: N_15  and  C_16 
REMARK    5  A    between atoms: C_16  and  C_17 
ROOT
HETATM    1  C   UNL     1      44.138 -12.242   7.121  1.00  0.00     0.288 C 
HETATM    2  N   UNL     1      43.411 -11.779   8.196  1.00  0.00    -0.261 N 
HETATM    3  O   UNL     1      45.152 -11.678   6.717  1.00  0.00    -0.264 OA
HETATM    4  H   UNL     1      42.616 -12.281   8.583  1.00  0.00     0.190 HD
ENDROOT
BRANCH   2   5
HETATM    5  N   UNL     1      43.941 -10.777   9.024  1.00  0.00    -0.249 N 
HETATM    6  C   UNL     1      43.201  -9.617   9.105  1.00  0.00     0.334 C 
HETATM    7  N   UNL     1      43.795  -8.664   9.894  1.00  0.00    -0.341 N 
HETATM    8  O   UNL     1      42.112  -9.486   8.554  1.00  0.00    -0.246 OA
HETATM    9  H   UNL     1      44.376  -9.049  10.626  1.00  0.00     0.164 HD
HETATM   10  H   UNL     1      44.955 -10.729   9.068  1.00  0.00     0.192 HD
BRANCH   7  11
HETATM   11  C   UNL     1      43.040  -7.466  10.206  1.00  0.00     0.129 C 
BRANCH  11  12
HETATM   12  C   UNL     1      42.441  -7.430  11.619  1.00  0.00     0.004 C 
HETATM   13  C   UNL     1      43.226  -8.304  12.611  1.00  0.00     0.010 C 
HETATM   14  C   UNL     1      42.653  -8.246  14.037  1.00  0.00    -0.018 C 
HETATM   15  C   UNL     1      41.147  -8.550  14.036  1.00  0.00     0.004 C 
HETATM   16  C   UNL     1      42.958  -6.908  14.720  1.00  0.00     0.010 C 
HETATM   17  C   UNL     1      40.364  -7.701  13.037  1.00  0.00     0.001 C 
HETATM   18  C   UNL     1      40.951  -7.799  11.631  1.00  0.00     0.006 C 
ENDBRANCH  11  12
ENDBRANCH   7  11
ENDBRANCH   2   5
BRANCH   1  19
HETATM   19  C   UNL     1      43.620 -13.442   6.520  1.00  0.00     0.121 A 
HETATM   20  N   UNL     1      42.309 -13.810   6.635  1.00  0.00    -0.272 N 
HETATM   21  N   UNL     1      41.991 -14.931   5.968  1.00  0.00    -0.174 NA
HETATM   22  H   UNL     1      41.580 -13.321   7.144  1.00  0.00     0.189 HD
HETATM   23  C   UNL     1      43.143 -15.332   5.406  1.00  0.00     0.089 A 
HETATM   24  C   UNL     1      44.190 -14.427   5.738  1.00  0.00     0.071 A 
BRANCH  23  25
HETATM   25  C   UNL     1      43.229 -16.525   4.558  1.00  0.00    -0.006 A 
HETATM   26  C   UNL     1      42.624 -16.547   3.294  1.00  0.00     0.014 A 
HETATM   27  C   UNL     1      42.737 -17.666   2.463  1.00  0.00     0.007 A 
HETATM   28  C   UNL     1      43.448 -18.793   2.886  1.00  0.00    -0.062 A 
HETATM   29  C   UNL     1      43.604 -19.989   1.994  1.00  0.00     0.048 C 
HETATM   30  C   UNL     1      44.048 -18.781   4.149  1.00  0.00     0.007 A 
HETATM   31  C   UNL     1      43.937 -17.660   4.977  1.00  0.00     0.014 A 
ENDBRANCH  23  25
ENDBRANCH   1  19
TORSDOF 5
ENDMDL
MODEL 6
REMARK VINA RESULT:      -8.6      2.682     11.333
REMARK  5 active torsions:
REMARK  status: ('A' for Active; 'I' for Inactive)
REMARK    1  A    between atoms: C_5  and  C_6 
REMARK    2  A    between atoms: C_10  and  C_11 
REMARK       I    between atoms: C_11  and  N_12 
REMARK    3  A    between atoms: N_12  and  N_13 
REMARK       I    between atoms: N_13  and  C_14 
REMARK       I    between atoms: C_14  and  N_15 
REMARK    4  A    between atoms: N_15  and  C_16 
REMARK    5  A    between atoms: C_16  and  C_17 
ROOT
HETATM    1  C   UNL     1      39.772 -11.949   6.216  1.00  0.00     0.288 C 
HETATM    2  N   UNL     1      40.831 -11.230   6.722  1.00  0.00    -0.261 N 
HETATM    3  O   UNL     1      38.603 -11.688   6.491  1.00  0.00    -0.264 OA
HETATM    4  H   UNL     1      41.795 -11.392   6.439  1.00  0.00     0.190 HD
ENDROOT
BRANCH   2   5
HETATM    5  N   UNL     1      40.603 -10.013   7.383  1.00  0.00    -0.249 N 
HETATM    6  C   UNL     1      41.607  -9.597   8.231  1.00  0.00     0.334 C 
HETATM    7  N   UNL     1      41.302  -8.425   8.878  1.00  0.00    -0.341 N 
HETATM    8  O   UNL     1      42.667 -10.204   8.350  1.00  0.00    -0.246 OA
HETATM    9  H   UNL     1      40.681  -7.824   8.355  1.00  0.00     0.164 HD
HETATM   10  H   UNL     1      39.635  -9.809   7.614  1.00  0.00     0.192 HD
BRANCH   7  11
HETATM   11  C   UNL     1      42.341  -7.787   9.662  1.00  0.00     0.129 C 
BRANCH  11  12
HETATM   12  C   UNL     1      42.090  -7.772  11.176  1.00  0.00     0.004 C 
HETATM   13  C   UNL     1      43.282  -8.325  11.973  1.00  0.00     0.010 C 
HETATM   14  C   UNL     1      43.052  -8.282  13.494  1.00  0.00    -0.018 C 
HETATM   15  C   UNL     1      41.722  -8.953  13.867  1.00  0.00     0.004 C 
HETATM   16  C   UNL     1      43.137  -6.853  14.042  1.00  0.00     0.010 C 
HETATM   17  C   UNL     1      40.536  -8.424  13.063  1.00  0.00     0.001 C 
HETATM   18  C   UNL     1      40.794  -8.501  11.560  1.00  0.00     0.006 C 
ENDBRANCH  11  12
ENDBRANCH   7  11
ENDBRANCH   2   5
BRANCH   1  19
HETATM   19  C   UNL     1      40.144 -13.023   5.333  1.00  0.00     0.121 A 
HETATM   20  N   UNL     1      39.579 -13.184   4.099  1.00  0.00    -0.272 N 
HETATM   21  N   UNL     1      40.083 -14.208   3.392  1.00  0.00    -0.174 NA
HETATM   22  H   UNL     1      38.855 -12.609   3.679  1.00  0.00     0.189 HD
HETATM   23  C   UNL     1      41.003 -14.759   4.199  1.00  0.00     0.089 A 
HETATM   24  C   UNL     1      41.063 -14.048   5.430  1.00  0.00     0.071 A 
BRANCH  23  25
HETATM   25  C   UNL     1      41.815 -15.910   3.791  1.00  0.00    -0.006 A 
HETATM   26  C   UNL     1      42.815 -16.413   4.635  1.00  0.00     0.014 A 
HETATM   27  C   UNL     1      43.564 -17.536   4.270  1.00  0.00     0.007 A 
HETATM   28  C   UNL     1      43.337 -18.173   3.046  1.00  0.00    -0.062 A 
HETATM   29  C   UNL     1      44.111 -19.396   2.655  1.00  0.00     0.048 C 
HETATM   30  C   UNL     1      42.345 -17.672   2.196  1.00  0.00     0.007 A 
HETATM   31  C   UNL     1      41.594 -16.551   2.564  1.00  0.00     0.014 A 
ENDBRANCH  23  25
ENDBRANCH   1  19
TORSDOF 5
ENDMDL
MODEL 7
REMARK VINA RESULT:      -8.5      2.062      2.687
REMARK  5 active torsions:
REMARK  status: ('A' for Active; 'I' for Inactive)
REMARK    1  A    between atoms: C_5  and  C_6 
REMARK    2  A    between atoms: C_10  and  C_11 
REMARK       I    between atoms: C_11  and  N_12 
REMARK    3  A    between atoms: N_12  and  N_13 
REMARK       I    between atoms: N_13  and  C_14 
REMARK       I    between atoms: C_14  and  N_15 
REMARK    4  A    between atoms: N_15  and  C_16 
REMARK    5  A    between atoms: C_16  and  C_17 
ROOT
HETATM    1  C   UNL     1      42.366  -9.552   7.968  1.00  0.00     0.288 C 
HETATM    2  N   UNL     1      42.557 -10.790   7.396  1.00  0.00    -0.261 N 
HETATM    3  O   UNL     1      42.089  -8.554   7.307  1.00  0.00    -0.264 OA
HETATM    4  H   UNL     1      42.711 -11.634   7.943  1.00  0.00     0.190 HD
ENDROOT
BRANCH   2   5
HETATM    5  N   UNL     1      42.202 -11.009   6.055  1.00  0.00    -0.249 N 
HETATM    6  C   UNL     1      43.074 -11.786   5.326  1.00  0.00     0.334 C 
HETATM    7  N   UNL     1      42.692 -11.923   4.015  1.00  0.00    -0.341 N 
HETATM    8  O   UNL     1      44.060 -12.322   5.825  1.00  0.00    -0.246 OA
HETATM    9  H   UNL     1      41.693 -11.864   3.876  1.00  0.00     0.164 HD
HETATM   10  H   UNL     1      41.707 -10.247   5.600  1.00  0.00     0.192 HD
BRANCH   7  11
HETATM   11  C   UNL     1      43.424 -12.859   3.184  1.00  0.00     0.129 C 
BRANCH  11  12
HETATM   12  C   UNL     1      42.858 -14.285   3.164  1.00  0.00     0.004 C 
HETATM   13  C   UNL     1      43.361 -15.100   1.962  1.00  0.00     0.010 C 
HETATM   14  C   UNL     1      42.825 -16.542   1.954  1.00  0.00    -0.018 C 
HETATM   15  C   UNL     1      41.296 -16.559   2.089  1.00  0.00     0.004 C 
HETATM   16  C   UNL     1      43.497 -17.404   3.029  1.00  0.00     0.010 C 
HETATM   17  C   UNL     1      40.787 -15.734   3.269  1.00  0.00     0.001 C 
HETATM   18  C   UNL     1      41.325 -14.305   3.232  1.00  0.00     0.006 C 
ENDBRANCH  11  12
ENDBRANCH   7  11
ENDBRANCH   2   5
BRANCH   1  19
HETATM   19  C   UNL     1      42.507  -9.526   9.400  1.00  0.00     0.121 A 
HETATM   20  N   UNL     1      43.208 -10.479  10.084  1.00  0.00    -0.272 N 
HETATM   21  N   UNL     1      43.277 -10.267  11.408  1.00  0.00    -0.174 NA
HETATM   22  H   UNL     1      43.677 -11.290   9.693  1.00  0.00     0.189 HD
HETATM   23  C   UNL     1      42.576  -9.140  11.610  1.00  0.00     0.089 A 
HETATM   24  C   UNL     1      42.070  -8.650  10.374  1.00  0.00     0.071 A 
BRANCH  23  25
HETATM   25  C   UNL     1      42.424  -8.540  12.940  1.00  0.00    -0.006 A 
HETATM   26  C   UNL     1      41.447  -9.013  13.827  1.00  0.00     0.014 A 
HETATM   27  C   UNL     1      41.324  -8.474  15.112  1.00  0.00     0.007 A 
HETATM   28  C   UNL     1      42.168  -7.442  15.531  1.00  0.00    -0.062 A 
HETATM   29  C   UNL     1      42.068  -6.875  16.917  1.00  0.00     0.048 C 
HETATM   30  C   UNL     1      43.140  -6.961  14.649  1.00  0.00     0.007 A 
HETATM   31  C   UNL     1      43.264  -7.503  13.365  1.00  0.00     0.014 A 
ENDBRANCH  23  25
ENDBRANCH   1  19
TORSDOF 5
ENDMDL
MODEL 8
REMARK VINA RESULT:      -7.9      3.497     11.408
REMARK  5 active torsions:
REMARK  status: ('A' for Active; 'I' for Inactive)
REMARK    1  A    between atoms: C_5  and  C_6 
REMARK    2  A    between atoms: C_10  and  C_11 
REMARK       I    between atoms: C_11  and  N_12 
REMARK    3  A    between atoms: N_12  and  N_13 
REMARK       I    between atoms: N_13  and  C_14 
REMARK       I    between atoms: C_14  and  N_15 
REMARK    4  A    between atoms: N_15  and  C_16 
REMARK    5  A    between atoms: C_16  and  C_17 
ROOT
HETATM    1  C   UNL     1      39.759 -11.346   5.083  1.00  0.00     0.288 C 
HETATM    2  N   UNL     1      40.087 -11.252   6.417  1.00  0.00    -0.261 N 
HETATM    3  O   UNL     1      39.254 -10.416   4.458  1.00  0.00    -0.264 OA
HETATM    4  H   UNL     1      40.574 -11.990   6.920  1.00  0.00     0.190 HD
ENDROOT
BRANCH   2   5
HETATM    5  N   UNL     1      40.080 -10.002   7.057  1.00  0.00    -0.249 N 
HETATM    6  C   UNL     1      39.336  -9.928   8.214  1.00  0.00     0.334 C 
HETATM    7  N   UNL     1      39.336  -8.671   8.764  1.00  0.00    -0.341 N 
HETATM    8  O   UNL     1      38.774 -10.904   8.703  1.00  0.00    -0.246 OA
HETATM    9  H   UNL     1      40.171  -8.141   8.562  1.00  0.00     0.164 HD
HETATM   10  H   UNL     1      40.141  -9.192   6.446  1.00  0.00     0.192 HD
BRANCH   7  11
HETATM   11  C   UNL     1      38.738  -8.498  10.074  1.00  0.00     0.129 C 
BRANCH  11  12
HETATM   12  C   UNL     1      39.731  -8.521  11.244  1.00  0.00     0.004 C 
HETATM   13  C   UNL     1      39.829  -9.906  11.902  1.00  0.00     0.010 C 
HETATM   14  C   UNL     1      40.848  -9.947  13.054  1.00  0.00    -0.018 C 
HETATM   15  C   UNL     1      40.577  -8.823  14.066  1.00  0.00     0.004 C 
HETATM   16  C   UNL     1      42.291  -9.907  12.540  1.00  0.00     0.010 C 
HETATM   17  C   UNL     1      40.456  -7.446  13.416  1.00  0.00     0.001 C 
HETATM   18  C   UNL     1      39.424  -7.441  12.291  1.00  0.00     0.006 C 
ENDBRANCH  11  12
ENDBRANCH   7  11
ENDBRANCH   2   5
BRANCH   1  19
HETATM   19  C   UNL     1      40.064 -12.616   4.479  1.00  0.00     0.121 A 
HETATM   20  N   UNL     1      39.289 -13.163   3.495  1.00  0.00    -0.272 N 
HETATM   21  N   UNL     1      39.753 -14.327   3.013  1.00  0.00    -0.174 NA
HETATM   22  H   UNL     1      38.439 -12.774   3.101  1.00  0.00     0.189 HD
HETATM   23  C   UNL     1      40.867 -14.570   3.721  1.00  0.00     0.089 A 
HETATM   24  C   UNL     1      41.090 -13.522   4.657  1.00  0.00     0.071 A 
BRANCH  23  25
HETATM   25  C   UNL     1      41.703 -15.752   3.486  1.00  0.00    -0.006 A 
HETATM   26  C   UNL     1      42.657 -16.151   4.433  1.00  0.00     0.014 A 
HETATM   27  C   UNL     1      43.427 -17.302   4.234  1.00  0.00     0.007 A 
HETATM   28  C   UNL     1      43.268 -18.070   3.077  1.00  0.00    -0.062 A 
HETATM   29  C   UNL     1      44.066 -19.323   2.865  1.00  0.00     0.048 C 
HETATM   30  C   UNL     1      42.324 -17.674   2.125  1.00  0.00     0.007 A 
HETATM   31  C   UNL     1      41.551 -16.525   2.327  1.00  0.00     0.014 A 
ENDBRANCH  23  25
ENDBRANCH   1  19
TORSDOF 5
ENDMDL
MODEL 9
REMARK VINA RESULT:      -7.8      8.689     12.734
REMARK  5 active torsions:
REMARK  status: ('A' for Active; 'I' for Inactive)
REMARK    1  A    between atoms: C_5  and  C_6 
REMARK    2  A    between atoms: C_10  and  C_11 
REMARK       I    between atoms: C_11  and  N_12 
REMARK    3  A    between atoms: N_12  and  N_13 
REMARK       I    between atoms: N_13  and  C_14 
REMARK       I    between atoms: C_14  and  N_15 
REMARK    4  A    between atoms: N_15  and  C_16 
REMARK    5  A    between atoms: C_16  and  C_17 
ROOT
HETATM    1  C   UNL     1      39.967 -13.148  -1.829  1.00  0.00     0.288 C 
HETATM    2  N   UNL     1      40.372 -12.941  -0.529  1.00  0.00    -0.261 N 
HETATM    3  O   UNL     1      40.488 -13.989  -2.558  1.00  0.00    -0.264 OA
HETATM    4  H   UNL     1      39.896 -12.301   0.103  1.00  0.00     0.190 HD
ENDROOT
BRANCH   2   5
HETATM    5  N   UNL     1      41.238 -13.854   0.093  1.00  0.00    -0.249 N 
HETATM    6  C   UNL     1      40.909 -14.206   1.384  1.00  0.00     0.334 C 
HETATM    7  N   UNL     1      41.818 -15.065   1.947  1.00  0.00    -0.341 N 
HETATM    8  O   UNL     1      39.885 -13.812   1.936  1.00  0.00    -0.246 OA
HETATM    9  H   UNL     1      42.290 -15.653   1.275  1.00  0.00     0.164 HD
HETATM   10  H   UNL     1      42.216 -13.788  -0.175  1.00  0.00     0.192 HD
BRANCH   7  11
HETATM   11  C   UNL     1      41.499 -15.651   3.234  1.00  0.00     0.129 C 
BRANCH  11  12
HETATM   12  C   UNL     1      42.283 -16.925   3.576  1.00  0.00     0.004 C 
HETATM   13  C   UNL     1      43.540 -16.634   4.411  1.00  0.00     0.010 C 
HETATM   14  C   UNL     1      44.313 -17.910   4.787  1.00  0.00    -0.018 C 
HETATM   15  C   UNL     1      44.608 -18.759   3.542  1.00  0.00     0.004 C 
HETATM   16  C   UNL     1      43.585 -18.720   5.864  1.00  0.00     0.010 C 
HETATM   17  C   UNL     1      43.368 -19.035   2.695  1.00  0.00     0.001 C 
HETATM   18  C   UNL     1      42.638 -17.745   2.327  1.00  0.00     0.006 C 
ENDBRANCH  11  12
ENDBRANCH   7  11
ENDBRANCH   2   5
BRANCH   1  19
HETATM   19  C   UNL     1      38.880 -12.308  -2.259  1.00  0.00     0.121 A 
HETATM   20  N   UNL     1      39.078 -11.181  -3.004  1.00  0.00    -0.272 N 
HETATM   21  N   UNL     1      37.947 -10.549  -3.358  1.00  0.00    -0.174 NA
HETATM   22  H   UNL     1      39.967 -10.804  -3.317  1.00  0.00     0.189 HD
HETATM   23  C   UNL     1      36.963 -11.277  -2.806  1.00  0.00     0.089 A 
HETATM   24  C   UNL     1      37.511 -12.385  -2.101  1.00  0.00     0.071 A 
BRANCH  23  25
HETATM   25  C   UNL     1      35.547 -10.936  -2.976  1.00  0.00    -0.006 A 
HETATM   26  C   UNL     1      34.982  -9.865  -2.270  1.00  0.00     0.014 A 
HETATM   27  C   UNL     1      33.643  -9.509  -2.459  1.00  0.00     0.007 A 
HETATM   28  C   UNL     1      32.837 -10.225  -3.349  1.00  0.00    -0.062 A 
HETATM   29  C   UNL     1      31.408  -9.835  -3.584  1.00  0.00     0.048 C 
HETATM   30  C   UNL     1      33.393 -11.299  -4.051  1.00  0.00     0.007 A 
HETATM   31  C   UNL     1      34.733 -11.653  -3.864  1.00  0.00     0.014 A 
ENDBRANCH  23  25
ENDBRANCH   1  19
TORSDOF 5
ENDMDL
MODEL 10
REMARK VINA RESULT:      -7.8      2.509      3.360
REMARK  5 active torsions:
REMARK  status: ('A' for Active; 'I' for Inactive)
REMARK    1  A    between atoms: C_5  and  C_6 
REMARK    2  A    between atoms: C_10  and  C_11 
REMARK       I    between atoms: C_11  and  N_12 
REMARK    3  A    between atoms: N_12  and  N_13 
REMARK       I    between atoms: N_13  and  C_14 
REMARK       I    between atoms: C_14  and  N_15 
REMARK    4  A    between atoms: N_15  and  C_16 
REMARK    5  A    between atoms: C_16  and  C_17 
ROOT
HETATM    1  C   UNL     1      44.591 -11.482   7.166  1.00  0.00     0.288 C 
HETATM    2  N   UNL     1      43.957 -12.704   7.106  1.00  0.00    -0.261 N 
HETATM    3  O   UNL     1      45.122 -10.963   6.187  1.00  0.00    -0.264 OA
HETATM    4  H   UNL     1      43.450 -13.103   7.892  1.00  0.00     0.190 HD
ENDROOT
BRANCH   2   5
HETATM    5  N   UNL     1      43.684 -13.294   5.862  1.00  0.00    -0.249 N 
HETATM    6  C   UNL     1      42.419 -13.820   5.716  1.00  0.00     0.334 C 
HETATM    7  N   UNL     1      42.232 -14.419   4.495  1.00  0.00    -0.341 N 
HETATM    8  O   UNL     1      41.555 -13.717   6.582  1.00  0.00    -0.246 OA
HETATM    9  H   UNL     1      42.797 -14.022   3.759  1.00  0.00     0.164 HD
HETATM   10  H   UNL     1      44.471 -13.745   5.404  1.00  0.00     0.192 HD
BRANCH   7  11
HETATM   11  C   UNL     1      40.894 -14.855   4.146  1.00  0.00     0.129 C 
BRANCH  11  12
HETATM   12  C   UNL     1      40.325 -14.228   2.866  1.00  0.00     0.004 C 
HETATM   13  C   UNL     1      41.380 -14.103   1.755  1.00  0.00     0.010 C 
HETATM   14  C   UNL     1      40.808 -13.507   0.456  1.00  0.00    -0.018 C 
HETATM   15  C   UNL     1      40.076 -12.186   0.736  1.00  0.00     0.004 C 
HETATM   16  C   UNL     1      39.910 -14.505  -0.282  1.00  0.00     0.010 C 
HETATM   17  C   UNL     1      39.041 -12.297   1.854  1.00  0.00     0.001 C 
HETATM   18  C   UNL     1      39.650 -12.875   3.130  1.00  0.00     0.006 C 
ENDBRANCH  11  12
ENDBRANCH   7  11
ENDBRANCH   2   5
BRANCH   1  19
HETATM   19  C   UNL     1      44.569 -10.859   8.464  1.00  0.00     0.121 A 
HETATM   20  N   UNL     1      45.662 -10.231   8.991  1.00  0.00    -0.272 N 
HETATM   21  N   UNL     1      45.446  -9.664  10.188  1.00  0.00    -0.174 NA
HETATM   22  H   UNL     1      46.580 -10.144   8.567  1.00  0.00     0.189 HD
HETATM   23  C   UNL     1      44.164  -9.945  10.473  1.00  0.00     0.089 A 
HETATM   24  C   UNL     1      43.584 -10.703   9.417  1.00  0.00     0.071 A 
BRANCH  23  25
HETATM   25  C   UNL     1      43.514  -9.479  11.702  1.00  0.00    -0.006 A 
HETATM   26  C   UNL     1      43.718  -8.172  12.166  1.00  0.00     0.014 A 
HETATM   27  C   UNL     1      43.067  -7.708  13.313  1.00  0.00     0.007 A 
HETATM   28  C   UNL     1      42.208  -8.547  14.029  1.00  0.00    -0.062 A 
HETATM   29  C   UNL     1      41.480  -8.054  15.244  1.00  0.00     0.048 C 
HETATM   30  C   UNL     1      42.005  -9.854  13.576  1.00  0.00     0.007 A 
HETATM   31  C   UNL     1      42.653 -10.316  12.426  1.00  0.00     0.014 A 
ENDBRANCH  23  25
ENDBRANCH   1  19
TORSDOF 5
ENDMDL
