MODEL 1
REMARK VINA RESULT:      -7.4      0.000      0.000
REMARK  5 active torsions:
REMARK  status: ('A' for Active; 'I' for Inactive)
REMARK    1  A    between atoms: C_2  and  C_3 
REMARK    2  A    between atoms: C_3  and  C_4 
REMARK       I    between atoms: C_4  and  N_5 
REMARK    3  A    between atoms: N_5  and  C_6 
REMARK    4  A    between atoms: C_9  and  N_10 
REMARK       I    between atoms: N_10  and  C_11 
REMARK       I    between atoms: C_11  and  N_12 
REMARK    5  A    between atoms: N_12  and  C_13 
ROOT
HETATM    1  C   UNL     1      41.875 -15.924   4.846  1.00  0.00     0.043 C 
HETATM    2  C   UNL     1      42.022 -14.527   4.694  1.00  0.00    -0.008 C 
HETATM    3  C   UNL     1      43.153 -13.916   3.900  1.00  0.00     0.053 C 
HETATM    4  C   UNL     1      41.145 -13.659   5.397  1.00  0.00     0.044 C 
HETATM    5  C   UNL     1      40.223 -14.182   6.310  1.00  0.00     0.030 C 
HETATM    6  C   UNL     1      40.161 -15.552   6.537  1.00  0.00     0.005 C 
HETATM    7  C   UNL     1      40.977 -16.415   5.810  1.00  0.00     0.030 C 
ENDROOT
BRANCH   4   8
HETATM    8  N   UNL     1      41.165 -12.282   5.082  1.00  0.00    -0.308 N 
HETATM    9  C   UNL     1      41.627 -11.194   5.775  1.00  0.00     0.325 C 
HETATM   10  N   UNL     1      42.634 -11.441   6.665  1.00  0.00    -0.305 N 
HETATM   11  O   UNL     1      41.194 -10.087   5.465  1.00  0.00    -0.247 OA
HETATM   12  H   UNL     1      43.149 -12.291   6.490  1.00  0.00     0.171 HD
HETATM   13  H   UNL     1      40.653 -12.004   4.253  1.00  0.00     0.170 HD
BRANCH  10  14
HETATM   14  C   UNL     1      43.243 -10.504   7.480  1.00  0.00     0.086 A 
HETATM   15  C   UNL     1      42.725  -9.530   8.385  1.00  0.00     0.079 A 
HETATM   16  C   UNL     1      41.324  -9.241   8.782  1.00  0.00     0.075 C 
HETATM   17  N   UNL     1      43.712  -8.833   8.971  1.00  0.00    -0.177 NA
HETATM   18  N   UNL     1      44.830  -9.350   8.454  1.00  0.00    -0.280 N 
HETATM   19  H   UNL     1      45.716  -8.956   8.751  1.00  0.00     0.189 HD
HETATM   20  C   UNL     1      44.616 -10.372   7.573  1.00  0.00     0.052 A 
HETATM   21  C   UNL     1      45.748 -11.064   6.916  1.00  0.00     0.072 C 
ENDBRANCH  10  14
ENDBRANCH   4   8
BRANCH   1  22
HETATM   22  N   UNL     1      42.576 -16.918   4.120  1.00  0.00    -0.327 N 
HETATM   23  C   UNL     1      43.795 -17.484   4.452  1.00  0.00     0.222 C 
HETATM   24  O   UNL     1      44.513 -17.171   5.394  1.00  0.00    -0.273 OA
HETATM   25  H   UNL     1      42.309 -17.021   3.148  1.00  0.00     0.169 HD
BRANCH  23  26
HETATM   26  C   UNL     1      44.247 -18.535   3.455  1.00  0.00     0.103 C 
BRANCH  26  27
HETATM   27  C   UNL     1      43.193 -18.796   2.383  1.00  0.00     0.005 C 
HETATM   28  C   UNL     1      43.164 -20.250   1.930  1.00  0.00     0.005 C 
ENDBRANCH  26  27
ENDBRANCH  23  26
ENDBRANCH   1  22
TORSDOF 5
ENDMDL
MODEL 2
REMARK VINA RESULT:      -7.4      2.098      2.749
REMARK  5 active torsions:
REMARK  status: ('A' for Active; 'I' for Inactive)
REMARK    1  A    between atoms: C_2  and  C_3 
REMARK    2  A    between atoms: C_3  and  C_4 
REMARK       I    between atoms: C_4  and  N_5 
REMARK    3  A    between atoms: N_5  and  C_6 
REMARK    4  A    between atoms: C_9  and  N_10 
REMARK       I    between atoms: N_10  and  C_11 
REMARK       I    between atoms: C_11  and  N_12 
REMARK    5  A    between atoms: N_12  and  C_13 
ROOT
HETATM    1  C   UNL     1      41.432 -16.055   2.432  1.00  0.00     0.043 C 
HETATM    2  C   UNL     1      40.685 -15.456   3.470  1.00  0.00    -0.008 C 
HETATM    3  C   UNL     1      40.424 -16.154   4.784  1.00  0.00     0.053 C 
HETATM    4  C   UNL     1      40.062 -14.201   3.238  1.00  0.00     0.044 C 
HETATM    5  C   UNL     1      40.100 -13.623   1.964  1.00  0.00     0.030 C 
HETATM    6  C   UNL     1      40.745 -14.275   0.918  1.00  0.00     0.005 C 
HETATM    7  C   UNL     1      41.407 -15.478   1.151  1.00  0.00     0.030 C 
ENDROOT
BRANCH   4   8
HETATM    8  N   UNL     1      39.494 -13.518   4.336  1.00  0.00    -0.308 N 
HETATM    9  C   UNL     1      40.061 -12.877   5.405  1.00  0.00     0.325 C 
HETATM   10  N   UNL     1      41.317 -12.379   5.200  1.00  0.00    -0.305 N 
HETATM   11  O   UNL     1      39.368 -12.697   6.404  1.00  0.00    -0.247 OA
HETATM   12  H   UNL     1      41.559 -12.237   4.231  1.00  0.00     0.171 HD
HETATM   13  H   UNL     1      38.489 -13.595   4.441  1.00  0.00     0.170 HD
BRANCH  10  14
HETATM   14  C   UNL     1      42.086 -11.710   6.136  1.00  0.00     0.086 A 
HETATM   15  C   UNL     1      42.011 -10.396   6.686  1.00  0.00     0.079 A 
HETATM   16  C   UNL     1      41.022  -9.314   6.452  1.00  0.00     0.075 C 
HETATM   17  N   UNL     1      42.988 -10.186   7.583  1.00  0.00    -0.177 NA
HETATM   18  N   UNL     1      43.667 -11.336   7.606  1.00  0.00    -0.280 N 
HETATM   19  H   UNL     1      44.473 -11.398   8.218  1.00  0.00     0.189 HD
HETATM   20  C   UNL     1      43.160 -12.298   6.778  1.00  0.00     0.052 A 
HETATM   21  C   UNL     1      43.787 -13.636   6.690  1.00  0.00     0.072 C 
ENDBRANCH  10  14
ENDBRANCH   4   8
BRANCH   1  22
HETATM   22  N   UNL     1      42.217 -17.229   2.543  1.00  0.00    -0.327 N 
HETATM   23  C   UNL     1      43.330 -17.410   3.347  1.00  0.00     0.222 C 
HETATM   24  O   UNL     1      43.873 -16.562   4.045  1.00  0.00    -0.273 OA
HETATM   25  H   UNL     1      42.132 -17.888   1.779  1.00  0.00     0.169 HD
BRANCH  23  26
HETATM   26  C   UNL     1      43.919 -18.805   3.231  1.00  0.00     0.103 C 
BRANCH  26  27
HETATM   27  C   UNL     1      43.046 -19.724   2.381  1.00  0.00     0.005 C 
HETATM   28  C   UNL     1      43.865 -20.661   1.502  1.00  0.00     0.005 C 
ENDBRANCH  26  27
ENDBRANCH  23  26
ENDBRANCH   1  22
TORSDOF 5
ENDMDL
MODEL 3
REMARK VINA RESULT:      -7.4      3.853      5.533
REMARK  5 active torsions:
REMARK  status: ('A' for Active; 'I' for Inactive)
REMARK    1  A    between atoms: C_2  and  C_3 
REMARK    2  A    between atoms: C_3  and  C_4 
REMARK       I    between atoms: C_4  and  N_5 
REMARK    3  A    between atoms: N_5  and  C_6 
REMARK    4  A    between atoms: C_9  and  N_10 
REMARK       I    between atoms: N_10  and  C_11 
REMARK       I    between atoms: C_11  and  N_12 
REMARK    5  A    between atoms: N_12  and  C_13 
ROOT
HETATM    1  C   UNL     1      43.301 -16.586   4.776  1.00  0.00     0.043 C 
HETATM    2  C   UNL     1      42.169 -16.089   4.092  1.00  0.00    -0.008 C 
HETATM    3  C   UNL     1      41.635 -16.739   2.836  1.00  0.00     0.053 C 
HETATM    4  C   UNL     1      41.575 -14.875   4.528  1.00  0.00     0.044 C 
HETATM    5  C   UNL     1      42.170 -14.131   5.552  1.00  0.00     0.030 C 
HETATM    6  C   UNL     1      43.348 -14.572   6.146  1.00  0.00     0.005 C 
HETATM    7  C   UNL     1      43.906 -15.790   5.763  1.00  0.00     0.030 C 
ENDROOT
BRANCH   4   8
HETATM    8  N   UNL     1      40.333 -14.496   3.973  1.00  0.00    -0.308 N 
HETATM    9  C   UNL     1      40.014 -13.655   2.939  1.00  0.00     0.325 C 
HETATM   10  N   UNL     1      40.972 -13.510   1.975  1.00  0.00    -0.305 N 
HETATM   11  O   UNL     1      38.874 -13.201   2.896  1.00  0.00    -0.247 OA
HETATM   12  H   UNL     1      41.649 -14.258   1.940  1.00  0.00     0.171 HD
HETATM   13  H   UNL     1      39.506 -14.792   4.478  1.00  0.00     0.170 HD
BRANCH  10  14
HETATM   14  C   UNL     1      40.878 -12.707   0.853  1.00  0.00     0.086 A 
HETATM   15  C   UNL     1      40.429 -12.956  -0.478  1.00  0.00     0.079 A 
HETATM   16  C   UNL     1      39.861 -14.188  -1.082  1.00  0.00     0.075 C 
HETATM   17  N   UNL     1      40.516 -11.854  -1.238  1.00  0.00    -0.177 NA
HETATM   18  N   UNL     1      41.006 -10.924  -0.413  1.00  0.00    -0.280 N 
HETATM   19  H   UNL     1      41.170  -9.996  -0.789  1.00  0.00     0.189 HD
HETATM   20  C   UNL     1      41.220 -11.368   0.861  1.00  0.00     0.052 A 
HETATM   21  C   UNL     1      41.750 -10.462   1.905  1.00  0.00     0.072 C 
ENDBRANCH  10  14
ENDBRANCH   4   8
BRANCH   1  22
HETATM   22  N   UNL     1      43.925 -17.837   4.551  1.00  0.00    -0.327 N 
HETATM   23  C   UNL     1      43.842 -18.962   5.354  1.00  0.00     0.222 C 
HETATM   24  O   UNL     1      43.273 -19.047   6.436  1.00  0.00    -0.273 OA
HETATM   25  H   UNL     1      44.711 -17.827   3.913  1.00  0.00     0.169 HD
BRANCH  23  26
HETATM   26  C   UNL     1      44.625 -20.139   4.801  1.00  0.00     0.103 C 
BRANCH  26  27
HETATM   27  C   UNL     1      43.778 -21.003   3.872  1.00  0.00     0.005 C 
HETATM   28  C   UNL     1      43.725 -20.459   2.451  1.00  0.00     0.005 C 
ENDBRANCH  26  27
ENDBRANCH  23  26
ENDBRANCH   1  22
TORSDOF 5
ENDMDL
MODEL 4
REMARK VINA RESULT:      -7.3      2.082      3.041
REMARK  5 active torsions:
REMARK  status: ('A' for Active; 'I' for Inactive)
REMARK    1  A    between atoms: C_2  and  C_3 
REMARK    2  A    between atoms: C_3  and  C_4 
REMARK       I    between atoms: C_4  and  N_5 
REMARK    3  A    between atoms: N_5  and  C_6 
REMARK    4  A    between atoms: C_9  and  N_10 
REMARK       I    between atoms: N_10  and  C_11 
REMARK       I    between atoms: C_11  and  N_12 
REMARK    5  A    between atoms: N_12  and  C_13 
ROOT
HETATM    1  C   UNL     1      41.296 -15.905   2.503  1.00  0.00     0.043 C 
HETATM    2  C   UNL     1      40.607 -15.314   3.586  1.00  0.00    -0.008 C 
HETATM    3  C   UNL     1      40.448 -16.009   4.919  1.00  0.00     0.053 C 
HETATM    4  C   UNL     1      39.945 -14.073   3.389  1.00  0.00     0.044 C 
HETATM    5  C   UNL     1      39.887 -13.504   2.112  1.00  0.00     0.030 C 
HETATM    6  C   UNL     1      40.473 -14.149   1.029  1.00  0.00     0.005 C 
HETATM    7  C   UNL     1      41.173 -15.337   1.224  1.00  0.00     0.030 C 
ENDROOT
BRANCH   4   8
HETATM    8  N   UNL     1      39.437 -13.394   4.518  1.00  0.00    -0.308 N 
HETATM    9  C   UNL     1      40.056 -12.673   5.505  1.00  0.00     0.325 C 
HETATM   10  N   UNL     1      41.244 -12.091   5.159  1.00  0.00    -0.305 N 
HETATM   11  O   UNL     1      39.455 -12.508   6.563  1.00  0.00    -0.247 OA
HETATM   12  H   UNL     1      41.377 -11.968   4.166  1.00  0.00     0.171 HD
HETATM   13  H   UNL     1      38.457 -13.541   4.728  1.00  0.00     0.170 HD
BRANCH  10  14
HETATM   14  C   UNL     1      42.048 -11.333   5.991  1.00  0.00     0.086 A 
HETATM   15  C   UNL     1      43.247 -11.628   6.706  1.00  0.00     0.079 A 
HETATM   16  C   UNL     1      44.058 -12.872   6.744  1.00  0.00     0.075 C 
HETATM   17  N   UNL     1      43.681 -10.560   7.393  1.00  0.00    -0.177 NA
HETATM   18  N   UNL     1      42.785  -9.608   7.122  1.00  0.00    -0.280 N 
HETATM   19  H   UNL     1      42.911  -8.701   7.557  1.00  0.00     0.189 HD
HETATM   20  C   UNL     1      41.794 -10.003   6.267  1.00  0.00     0.052 A 
HETATM   21  C   UNL     1      40.725  -9.067   5.853  1.00  0.00     0.072 C 
ENDBRANCH  10  14
ENDBRANCH   4   8
BRANCH   1  22
HETATM   22  N   UNL     1      42.109 -17.063   2.569  1.00  0.00    -0.327 N 
HETATM   23  C   UNL     1      43.255 -17.230   3.328  1.00  0.00     0.222 C 
HETATM   24  O   UNL     1      43.804 -16.380   4.019  1.00  0.00    -0.273 OA
HETATM   25  H   UNL     1      42.011 -17.713   1.799  1.00  0.00     0.169 HD
BRANCH  23  26
HETATM   26  C   UNL     1      43.869 -18.610   3.171  1.00  0.00     0.103 C 
BRANCH  26  27
HETATM   27  C   UNL     1      43.119 -19.455   2.146  1.00  0.00     0.005 C 
HETATM   28  C   UNL     1      43.869 -20.728   1.774  1.00  0.00     0.005 C 
ENDBRANCH  26  27
ENDBRANCH  23  26
ENDBRANCH   1  22
TORSDOF 5
ENDMDL
MODEL 5
REMARK VINA RESULT:      -7.2      5.385      7.488
REMARK  5 active torsions:
REMARK  status: ('A' for Active; 'I' for Inactive)
REMARK    1  A    between atoms: C_2  and  C_3 
REMARK    2  A    between atoms: C_3  and  C_4 
REMARK       I    between atoms: C_4  and  N_5 
REMARK    3  A    between atoms: N_5  and  C_6 
REMARK    4  A    between atoms: C_9  and  N_10 
REMARK       I    between atoms: N_10  and  C_11 
REMARK       I    between atoms: C_11  and  N_12 
REMARK    5  A    between atoms: N_12  and  C_13 
ROOT
HETATM    1  C   UNL     1      41.924 -16.260   2.828  1.00  0.00     0.043 C 
HETATM    2  C   UNL     1      42.190 -15.156   1.988  1.00  0.00    -0.008 C 
HETATM    3  C   UNL     1      43.595 -14.748   1.610  1.00  0.00     0.053 C 
HETATM    4  C   UNL     1      41.112 -14.331   1.569  1.00  0.00     0.044 C 
HETATM    5  C   UNL     1      39.825 -14.549   2.072  1.00  0.00     0.030 C 
HETATM    6  C   UNL     1      39.593 -15.571   2.987  1.00  0.00     0.005 C 
HETATM    7  C   UNL     1      40.633 -16.420   3.358  1.00  0.00     0.030 C 
ENDROOT
BRANCH   4   8
HETATM    8  N   UNL     1      41.356 -13.360   0.573  1.00  0.00    -0.308 N 
HETATM    9  C   UNL     1      40.635 -12.982  -0.529  1.00  0.00     0.325 C 
HETATM   10  N   UNL     1      39.285 -13.181  -0.452  1.00  0.00    -0.305 N 
HETATM   11  O   UNL     1      41.226 -12.396  -1.432  1.00  0.00    -0.247 OA
HETATM   12  H   UNL     1      38.926 -13.265   0.488  1.00  0.00     0.171 HD
HETATM   13  H   UNL     1      42.271 -12.927   0.582  1.00  0.00     0.170 HD
BRANCH  10  14
HETATM   14  C   UNL     1      38.364 -12.890  -1.443  1.00  0.00     0.086 A 
HETATM   15  C   UNL     1      37.528 -11.759  -1.682  1.00  0.00     0.079 A 
HETATM   16  C   UNL     1      37.415 -10.478  -0.940  1.00  0.00     0.075 C 
HETATM   17  N   UNL     1      36.789 -11.924  -2.790  1.00  0.00    -0.177 NA
HETATM   18  N   UNL     1      37.146 -13.127  -3.248  1.00  0.00    -0.280 N 
HETATM   19  H   UNL     1      36.692 -13.468  -4.088  1.00  0.00     0.189 HD
HETATM   20  C   UNL     1      38.105 -13.746  -2.497  1.00  0.00     0.052 A 
HETATM   21  C   UNL     1      38.622 -15.082  -2.870  1.00  0.00     0.072 C 
ENDBRANCH  10  14
ENDBRANCH   4   8
BRANCH   1  22
HETATM   22  N   UNL     1      42.859 -17.248   3.223  1.00  0.00    -0.327 N 
HETATM   23  C   UNL     1      43.676 -17.218   4.341  1.00  0.00     0.222 C 
HETATM   24  O   UNL     1      43.783 -16.298   5.143  1.00  0.00    -0.273 OA
HETATM   25  H   UNL     1      43.158 -17.886   2.495  1.00  0.00     0.169 HD
BRANCH  23  26
HETATM   26  C   UNL     1      44.547 -18.455   4.467  1.00  0.00     0.103 C 
BRANCH  26  27
HETATM   27  C   UNL     1      43.969 -19.641   3.699  1.00  0.00     0.005 C 
HETATM   28  C   UNL     1      43.961 -20.924   4.520  1.00  0.00     0.005 C 
ENDBRANCH  26  27
ENDBRANCH  23  26
ENDBRANCH   1  22
TORSDOF 5
ENDMDL
MODEL 6
REMARK VINA RESULT:      -7.2      3.638      5.760
REMARK  5 active torsions:
REMARK  status: ('A' for Active; 'I' for Inactive)
REMARK    1  A    between atoms: C_2  and  C_3 
REMARK    2  A    between atoms: C_3  and  C_4 
REMARK       I    between atoms: C_4  and  N_5 
REMARK    3  A    between atoms: N_5  and  C_6 
REMARK    4  A    between atoms: C_9  and  N_10 
REMARK       I    between atoms: N_10  and  C_11 
REMARK       I    between atoms: C_11  and  N_12 
REMARK    5  A    between atoms: N_12  and  C_13 
ROOT
HETATM    1  C   UNL     1      42.372 -15.609   4.280  1.00  0.00     0.043 C 
HETATM    2  C   UNL     1      42.550 -14.444   3.501  1.00  0.00    -0.008 C 
HETATM    3  C   UNL     1      43.423 -14.424   2.267  1.00  0.00     0.053 C 
HETATM    4  C   UNL     1      41.983 -13.221   3.946  1.00  0.00     0.044 C 
HETATM    5  C   UNL     1      41.351 -13.152   5.192  1.00  0.00     0.030 C 
HETATM    6  C   UNL     1      41.277 -14.280   6.004  1.00  0.00     0.005 C 
HETATM    7  C   UNL     1      41.780 -15.496   5.550  1.00  0.00     0.030 C 
ENDROOT
BRANCH   4   8
HETATM    8  N   UNL     1      41.991 -12.115   3.067  1.00  0.00    -0.308 N 
HETATM    9  C   UNL     1      41.272 -11.845   1.933  1.00  0.00     0.325 C 
HETATM   10  N   UNL     1      40.044 -12.441   1.853  1.00  0.00    -0.305 N 
HETATM   11  O   UNL     1      41.721 -11.013   1.149  1.00  0.00    -0.247 OA
HETATM   12  H   UNL     1      39.661 -12.733   2.740  1.00  0.00     0.171 HD
HETATM   13  H   UNL     1      42.729 -11.435   3.208  1.00  0.00     0.170 HD
BRANCH  10  14
HETATM   14  C   UNL     1      39.154 -12.325   0.800  1.00  0.00     0.086 A 
HETATM   15  C   UNL     1      38.066 -11.438   0.550  1.00  0.00     0.079 A 
HETATM   16  C   UNL     1      37.560 -10.293   1.349  1.00  0.00     0.075 C 
HETATM   17  N   UNL     1      37.479 -11.704  -0.628  1.00  0.00    -0.177 NA
HETATM   18  N   UNL     1      38.177 -12.732  -1.118  1.00  0.00    -0.280 N 
HETATM   19  H   UNL     1      37.892 -13.114  -2.013  1.00  0.00     0.189 HD
HETATM   20  C   UNL     1      39.210 -13.135  -0.318  1.00  0.00     0.052 A 
HETATM   21  C   UNL     1      40.091 -14.256  -0.717  1.00  0.00     0.072 C 
ENDBRANCH  10  14
ENDBRANCH   4   8
BRANCH   1  22
HETATM   22  N   UNL     1      42.757 -16.921   3.913  1.00  0.00    -0.327 N 
HETATM   23  C   UNL     1      43.849 -17.629   4.387  1.00  0.00     0.222 C 
HETATM   24  O   UNL     1      44.712 -17.214   5.151  1.00  0.00    -0.273 OA
HETATM   25  H   UNL     1      42.375 -17.263   3.040  1.00  0.00     0.169 HD
BRANCH  23  26
HETATM   26  C   UNL     1      43.952 -19.021   3.790  1.00  0.00     0.103 C 
BRANCH  26  27
HETATM   27  C   UNL     1      43.318 -19.096   2.404  1.00  0.00     0.005 C 
HETATM   28  C   UNL     1      43.551 -20.440   1.725  1.00  0.00     0.005 C 
ENDBRANCH  26  27
ENDBRANCH  23  26
ENDBRANCH   1  22
TORSDOF 5
ENDMDL
MODEL 7
REMARK VINA RESULT:      -7.2      2.383      3.425
REMARK  5 active torsions:
REMARK  status: ('A' for Active; 'I' for Inactive)
REMARK    1  A    between atoms: C_2  and  C_3 
REMARK    2  A    between atoms: C_3  and  C_4 
REMARK       I    between atoms: C_4  and  N_5 
REMARK    3  A    between atoms: N_5  and  C_6 
REMARK    4  A    between atoms: C_9  and  N_10 
REMARK       I    between atoms: N_10  and  C_11 
REMARK       I    between atoms: C_11  and  N_12 
REMARK    5  A    between atoms: N_12  and  C_13 
ROOT
HETATM    1  C   UNL     1      42.710 -13.789   4.313  1.00  0.00     0.043 C 
HETATM    2  C   UNL     1      43.379 -13.551   5.534  1.00  0.00    -0.008 C 
HETATM    3  C   UNL     1      43.505 -14.608   6.606  1.00  0.00     0.053 C 
HETATM    4  C   UNL     1      43.858 -12.244   5.816  1.00  0.00     0.044 C 
HETATM    5  C   UNL     1      43.572 -11.188   4.943  1.00  0.00     0.030 C 
HETATM    6  C   UNL     1      42.815 -11.411   3.798  1.00  0.00     0.005 C 
HETATM    7  C   UNL     1      42.391 -12.700   3.485  1.00  0.00     0.030 C 
ENDROOT
BRANCH   4   8
HETATM    8  N   UNL     1      44.699 -12.062   6.936  1.00  0.00    -0.308 N 
HETATM    9  C   UNL     1      44.667 -11.158   7.964  1.00  0.00     0.325 C 
HETATM   10  N   UNL     1      43.434 -10.653   8.273  1.00  0.00    -0.305 N 
HETATM   11  O   UNL     1      45.703 -10.963   8.595  1.00  0.00    -0.247 OA
HETATM   12  H   UNL     1      42.659 -11.219   7.960  1.00  0.00     0.171 HD
HETATM   13  H   UNL     1      45.552 -12.609   6.951  1.00  0.00     0.170 HD
BRANCH  10  14
HETATM   14  C   UNL     1      43.163  -9.721   9.259  1.00  0.00     0.086 A 
HETATM   15  C   UNL     1      43.226  -9.777  10.683  1.00  0.00     0.079 A 
HETATM   16  C   UNL     1      43.661 -10.877  11.580  1.00  0.00     0.075 C 
HETATM   17  N   UNL     1      42.869  -8.606  11.234  1.00  0.00    -0.177 NA
HETATM   18  N   UNL     1      42.588  -7.823  10.188  1.00  0.00    -0.280 N 
HETATM   19  H   UNL     1      42.276  -6.877  10.376  1.00  0.00     0.189 HD
HETATM   20  C   UNL     1      42.769  -8.427   8.976  1.00  0.00     0.052 A 
HETATM   21  C   UNL     1      42.513  -7.697   7.714  1.00  0.00     0.072 C 
ENDBRANCH  10  14
ENDBRANCH   4   8
BRANCH   1  22
HETATM   22  N   UNL     1      42.292 -15.053   3.827  1.00  0.00    -0.327 N 
HETATM   23  C   UNL     1      42.790 -15.723   2.722  1.00  0.00     0.222 C 
HETATM   24  O   UNL     1      43.627 -15.306   1.931  1.00  0.00    -0.273 OA
HETATM   25  H   UNL     1      41.379 -15.362   4.137  1.00  0.00     0.169 HD
BRANCH  23  26
HETATM   26  C   UNL     1      42.121 -17.068   2.499  1.00  0.00     0.103 C 
BRANCH  26  27
HETATM   27  C   UNL     1      43.137 -18.203   2.420  1.00  0.00     0.005 C 
HETATM   28  C   UNL     1      43.903 -18.398   3.722  1.00  0.00     0.005 C 
ENDBRANCH  26  27
ENDBRANCH  23  26
ENDBRANCH   1  22
TORSDOF 5
ENDMDL
MODEL 8
REMARK VINA RESULT:      -7.0      4.394      5.213
REMARK  5 active torsions:
REMARK  status: ('A' for Active; 'I' for Inactive)
REMARK    1  A    between atoms: C_2  and  C_3 
REMARK    2  A    between atoms: C_3  and  C_4 
REMARK       I    between atoms: C_4  and  N_5 
REMARK    3  A    between atoms: N_5  and  C_6 
REMARK    4  A    between atoms: C_9  and  N_10 
REMARK       I    between atoms: N_10  and  C_11 
REMARK       I    between atoms: C_11  and  N_12 
REMARK    5  A    between atoms: N_12  and  C_13 
ROOT
HETATM    1  C   UNL     1      39.811 -14.149   0.787  1.00  0.00     0.043 C 
HETATM    2  C   UNL     1      39.562 -13.435   1.980  1.00  0.00    -0.008 C 
HETATM    3  C   UNL     1      39.035 -12.018   1.979  1.00  0.00     0.053 C 
HETATM    4  C   UNL     1      39.920 -14.021   3.223  1.00  0.00     0.044 C 
HETATM    5  C   UNL     1      40.607 -15.239   3.253  1.00  0.00     0.030 C 
HETATM    6  C   UNL     1      40.947 -15.882   2.068  1.00  0.00     0.005 C 
HETATM    7  C   UNL     1      40.550 -15.342   0.847  1.00  0.00     0.030 C 
ENDROOT
BRANCH   4   8
HETATM    8  N   UNL     1      39.484 -13.396   4.413  1.00  0.00    -0.308 N 
HETATM    9  C   UNL     1      40.173 -12.898   5.487  1.00  0.00     0.325 C 
HETATM   10  N   UNL     1      41.450 -12.483   5.233  1.00  0.00    -0.305 N 
HETATM   11  O   UNL     1      39.565 -12.753   6.545  1.00  0.00    -0.247 OA
HETATM   12  H   UNL     1      41.639 -12.275   4.264  1.00  0.00     0.171 HD
HETATM   13  H   UNL     1      38.486 -13.403   4.584  1.00  0.00     0.170 HD
BRANCH  10  14
HETATM   14  C   UNL     1      42.333 -11.962   6.162  1.00  0.00     0.086 A 
HETATM   15  C   UNL     1      42.503 -10.654   6.704  1.00  0.00     0.079 A 
HETATM   16  C   UNL     1      41.727  -9.410   6.466  1.00  0.00     0.075 C 
HETATM   17  N   UNL     1      43.505 -10.621   7.597  1.00  0.00    -0.177 NA
HETATM   18  N   UNL     1      43.961 -11.876   7.625  1.00  0.00    -0.280 N 
HETATM   19  H   UNL     1      44.746 -12.081   8.234  1.00  0.00     0.189 HD
HETATM   20  C   UNL     1      43.283 -12.733   6.804  1.00  0.00     0.052 A 
HETATM   21  C   UNL     1      43.654 -14.164   6.723  1.00  0.00     0.072 C 
ENDBRANCH  10  14
ENDBRANCH   4   8
BRANCH   1  22
HETATM   22  N   UNL     1      39.398 -13.765  -0.512  1.00  0.00    -0.327 N 
HETATM   23  C   UNL     1      40.065 -12.915  -1.378  1.00  0.00     0.222 C 
HETATM   24  O   UNL     1      41.092 -12.290  -1.142  1.00  0.00    -0.273 OA
HETATM   25  H   UNL     1      38.414 -13.894  -0.716  1.00  0.00     0.169 HD
BRANCH  23  26
HETATM   26  C   UNL     1      39.342 -12.737  -2.702  1.00  0.00     0.103 C 
BRANCH  26  27
HETATM   27  C   UNL     1      38.051 -13.549  -2.761  1.00  0.00     0.005 C 
HETATM   28  C   UNL     1      38.158 -14.754  -3.686  1.00  0.00     0.005 C 
ENDBRANCH  26  27
ENDBRANCH  23  26
ENDBRANCH   1  22
TORSDOF 5
ENDMDL
MODEL 9
REMARK VINA RESULT:      -7.0      5.587      7.917
REMARK  5 active torsions:
REMARK  status: ('A' for Active; 'I' for Inactive)
REMARK    1  A    between atoms: C_2  and  C_3 
REMARK    2  A    between atoms: C_3  and  C_4 
REMARK       I    between atoms: C_4  and  N_5 
REMARK    3  A    between atoms: N_5  and  C_6 
REMARK    4  A    between atoms: C_9  and  N_10 
REMARK       I    between atoms: N_10  and  C_11 
REMARK       I    between atoms: C_11  and  N_12 
REMARK    5  A    between atoms: N_12  and  C_13 
ROOT
HETATM    1  C   UNL     1      41.993 -15.057   3.281  1.00  0.00     0.043 C 
HETATM    2  C   UNL     1      42.005 -13.996   2.348  1.00  0.00    -0.008 C 
HETATM    3  C   UNL     1      42.775 -12.718   2.588  1.00  0.00     0.053 C 
HETATM    4  C   UNL     1      41.180 -14.081   1.195  1.00  0.00     0.044 C 
HETATM    5  C   UNL     1      40.291 -15.150   1.045  1.00  0.00     0.030 C 
HETATM    6  C   UNL     1      40.206 -16.135   2.024  1.00  0.00     0.005 C 
HETATM    7  C   UNL     1      41.052 -16.089   3.130  1.00  0.00     0.030 C 
ENDROOT
BRANCH   4   8
HETATM    8  N   UNL     1      41.350 -13.120   0.174  1.00  0.00    -0.308 N 
HETATM    9  C   UNL     1      40.553 -12.756  -0.879  1.00  0.00     0.325 C 
HETATM   10  N   UNL     1      39.212 -12.959  -0.706  1.00  0.00    -0.305 N 
HETATM   11  O   UNL     1      41.077 -12.177  -1.827  1.00  0.00    -0.247 OA
HETATM   12  H   UNL     1      38.920 -13.034   0.257  1.00  0.00     0.171 HD
HETATM   13  H   UNL     1      42.262 -12.683   0.115  1.00  0.00     0.170 HD
BRANCH  10  14
HETATM   14  C   UNL     1      38.224 -12.682  -1.634  1.00  0.00     0.086 A 
HETATM   15  C   UNL     1      37.366 -11.558  -1.824  1.00  0.00     0.079 A 
HETATM   16  C   UNL     1      37.295 -10.272  -1.086  1.00  0.00     0.075 C 
HETATM   17  N   UNL     1      36.553 -11.737  -2.878  1.00  0.00    -0.177 NA
HETATM   18  N   UNL     1      36.887 -12.941  -3.349  1.00  0.00    -0.280 N 
HETATM   19  H   UNL     1      36.378 -13.292  -4.153  1.00  0.00     0.189 HD
HETATM   20  C   UNL     1      37.899 -13.548  -2.661  1.00  0.00     0.052 A 
HETATM   21  C   UNL     1      38.399 -14.884  -3.058  1.00  0.00     0.072 C 
ENDBRANCH  10  14
ENDBRANCH   4   8
BRANCH   1  22
HETATM   22  N   UNL     1      42.847 -15.186   4.404  1.00  0.00    -0.327 N 
HETATM   23  C   UNL     1      42.621 -14.694   5.679  1.00  0.00     0.222 C 
HETATM   24  O   UNL     1      41.678 -14.000   6.037  1.00  0.00    -0.273 OA
HETATM   25  H   UNL     1      43.814 -15.405   4.197  1.00  0.00     0.169 HD
BRANCH  23  26
HETATM   26  C   UNL     1      43.742 -15.031   6.646  1.00  0.00     0.103 C 
BRANCH  26  27
HETATM   27  C   UNL     1      44.317 -16.421   6.392  1.00  0.00     0.005 C 
HETATM   28  C   UNL     1      43.447 -17.530   6.971  1.00  0.00     0.005 C 
ENDBRANCH  26  27
ENDBRANCH  23  26
ENDBRANCH   1  22
TORSDOF 5
ENDMDL
MODEL 10
REMARK VINA RESULT:      -7.0      2.113      2.816
REMARK  5 active torsions:
REMARK  status: ('A' for Active; 'I' for Inactive)
REMARK    1  A    between atoms: C_2  and  C_3 
REMARK    2  A    between atoms: C_3  and  C_4 
REMARK       I    between atoms: C_4  and  N_5 
REMARK    3  A    between atoms: N_5  and  C_6 
REMARK    4  A    between atoms: C_9  and  N_10 
REMARK       I    between atoms: N_10  and  C_11 
REMARK       I    between atoms: C_11  and  N_12 
REMARK    5  A    between atoms: N_12  and  C_13 
ROOT
HETATM    1  C   UNL     1      41.789 -13.788   5.607  1.00  0.00     0.043 C 
HETATM    2  C   UNL     1      42.493 -12.653   6.069  1.00  0.00    -0.008 C 
HETATM    3  C   UNL     1      43.949 -12.714   6.471  1.00  0.00     0.053 C 
HETATM    4  C   UNL     1      41.788 -11.436   6.268  1.00  0.00     0.044 C 
HETATM    5  C   UNL     1      40.398 -11.397   6.114  1.00  0.00     0.030 C 
HETATM    6  C   UNL     1      39.698 -12.548   5.767  1.00  0.00     0.005 C 
HETATM    7  C   UNL     1      40.389 -13.731   5.514  1.00  0.00     0.030 C 
ENDROOT
BRANCH   4   8
HETATM    8  N   UNL     1      42.530 -10.264   6.531  1.00  0.00    -0.308 N 
HETATM    9  C   UNL     1      42.706  -9.531   7.675  1.00  0.00     0.325 C 
HETATM   10  N   UNL     1      42.576 -10.222   8.848  1.00  0.00    -0.305 N 
HETATM   11  O   UNL     1      43.077  -8.366   7.563  1.00  0.00    -0.247 OA
HETATM   12  H   UNL     1      42.696 -11.221   8.761  1.00  0.00     0.171 HD
HETATM   13  H   UNL     1      42.922  -9.791   5.725  1.00  0.00     0.170 HD
BRANCH  10  14
HETATM   14  C   UNL     1      42.697  -9.691  10.119  1.00  0.00     0.086 A 
HETATM   15  C   UNL     1      41.735  -9.286  11.091  1.00  0.00     0.079 A 
HETATM   16  C   UNL     1      40.252  -9.354  11.057  1.00  0.00     0.075 C 
HETATM   17  N   UNL     1      42.328  -8.825  12.204  1.00  0.00    -0.177 NA
HETATM   18  N   UNL     1      43.635  -8.936  11.949  1.00  0.00    -0.280 N 
HETATM   19  H   UNL     1      44.284  -8.625  12.663  1.00  0.00     0.189 HD
HETATM   20  C   UNL     1      43.920  -9.471  10.724  1.00  0.00     0.052 A 
HETATM   21  C   UNL     1      45.320  -9.673  10.287  1.00  0.00     0.072 C 
ENDBRANCH  10  14
ENDBRANCH   4   8
BRANCH   1  22
HETATM   22  N   UNL     1      42.364 -15.027   5.235  1.00  0.00    -0.327 N 
HETATM   23  C   UNL     1      42.910 -15.353   4.004  1.00  0.00     0.222 C 
HETATM   24  O   UNL     1      42.924 -14.648   3.002  1.00  0.00    -0.273 OA
HETATM   25  H   UNL     1      42.107 -15.821   5.810  1.00  0.00     0.169 HD
BRANCH  23  26
HETATM   26  C   UNL     1      43.454 -16.769   3.959  1.00  0.00     0.103 C 
BRANCH  26  27
HETATM   27  C   UNL     1      42.945 -17.538   2.743  1.00  0.00     0.005 C 
HETATM   28  C   UNL     1      43.549 -18.932   2.635  1.00  0.00     0.005 C 
ENDBRANCH  26  27
ENDBRANCH  23  26
ENDBRANCH   1  22
TORSDOF 5
ENDMDL
