MODEL 1
REMARK VINA RESULT:      -8.9      0.000      0.000
REMARK  7 active torsions:
REMARK  status: ('A' for Active; 'I' for Inactive)
REMARK    1  A    between atoms: C_2  and  C_3 
REMARK    2  A    between atoms: C_4  and  O_5 
REMARK    3  A    between atoms: C_7  and  O_8 
REMARK    4  A    between atoms: C_9  and  C_10 
REMARK    5  A    between atoms: C_14  and  C_15 
REMARK    6  A    between atoms: C_19  and  C_20 
REMARK    7  A    between atoms: N_22  and  C_23 
ROOT
HETATM    1  C   UNL     1      40.918 -15.289   3.376  1.00  0.00     0.103 A 
HETATM    2  N   UNL     1      39.713 -15.657   2.896  1.00  0.00    -0.173 NA
HETATM    3  N   UNL     1      39.148 -14.519   2.478  1.00  0.00    -0.272 N 
HETATM    4  H   UNL     1      38.227 -14.570   2.051  1.00  0.00     0.189 HD
HETATM    5  C   UNL     1      39.898 -13.410   2.718  1.00  0.00     0.147 A 
HETATM    6  C   UNL     1      41.053 -13.864   3.319  1.00  0.00     0.042 A 
ENDROOT
BRANCH   1   7
HETATM    7  C   UNL     1      41.837 -16.312   3.883  1.00  0.00     0.029 A 
HETATM    8  C   UNL     1      42.084 -16.507   5.246  1.00  0.00     0.081 A 
HETATM    9  C   UNL     1      42.940 -17.523   5.675  1.00  0.00     0.074 A 
HETATM   10  C   UNL     1      43.586 -18.333   4.741  1.00  0.00     0.074 A 
HETATM   11  C   UNL     1      43.410 -18.133   3.369  1.00  0.00    -0.024 A 
HETATM   12  C   UNL     1      42.519 -17.125   2.958  1.00  0.00     0.026 A 
BRANCH   8  13
HETATM   13  O   UNL     1      41.502 -15.691   6.179  1.00  0.00    -0.360 OA
HETATM   14  H   UNL     1      41.656 -16.062   7.064  1.00  0.00     0.217 HD
ENDBRANCH   8  13
BRANCH  10  15
HETATM   15  O   UNL     1      44.389 -19.308   5.259  1.00  0.00    -0.360 OA
HETATM   16  H   UNL     1      44.849 -18.967   6.041  1.00  0.00     0.217 HD
ENDBRANCH  10  15
BRANCH  11  17
HETATM   17  C   UNL     1      44.123 -18.940   2.311  1.00  0.00     0.037 C 
HETATM   18  C   UNL     1      43.360 -20.202   1.945  1.00  0.00     0.010 C 
ENDBRANCH  11  17
ENDBRANCH   1   7
BRANCH   6  19
HETATM   19  C   UNL     1      42.162 -13.052   3.797  1.00  0.00     0.016 A 
HETATM   20  C   UNL     1      42.473 -12.719   5.093  1.00  0.00     0.132 A 
HETATM   21  N   UNL     1      43.584 -11.901   5.045  1.00  0.00    -0.245 N 
HETATM   22  N   UNL     1      44.023 -11.743   3.766  1.00  0.00    -0.179 NA
HETATM   23  C   UNL     1      43.158 -12.436   3.024  1.00  0.00     0.153 A 
BRANCH  21  24
HETATM   24  C   UNL     1      44.239 -11.253   6.130  1.00  0.00     0.058 A 
HETATM   25  C   UNL     1      45.616 -11.408   6.349  1.00  0.00     0.031 A 
HETATM   26  C   UNL     1      46.230 -10.772   7.432  1.00  0.00     0.002 A 
HETATM   27  C   UNL     1      45.479  -9.982   8.300  1.00  0.00     0.000 A 
HETATM   28  C   UNL     1      44.112  -9.821   8.089  1.00  0.00     0.002 A 
HETATM   29  C   UNL     1      43.492 -10.452   7.008  1.00  0.00     0.031 A 
ENDBRANCH  21  24
ENDBRANCH   6  19
BRANCH   5  30
HETATM   30  C   UNL     1      39.391 -12.084   2.360  1.00  0.00     0.435 C 
HETATM   31  F   UNL     1      39.370 -11.256   3.438  1.00  0.00    -0.165 F 
HETATM   32  F   UNL     1      40.150 -11.476   1.417  1.00  0.00    -0.165 F 
HETATM   33  F   UNL     1      38.122 -12.132   1.886  1.00  0.00    -0.165 F 
ENDBRANCH   5  30
TORSDOF 7
ENDMDL
MODEL 2
REMARK VINA RESULT:      -8.8      1.167      2.111
REMARK  7 active torsions:
REMARK  status: ('A' for Active; 'I' for Inactive)
REMARK    1  A    between atoms: C_2  and  C_3 
REMARK    2  A    between atoms: C_4  and  O_5 
REMARK    3  A    between atoms: C_7  and  O_8 
REMARK    4  A    between atoms: C_9  and  C_10 
REMARK    5  A    between atoms: C_14  and  C_15 
REMARK    6  A    between atoms: C_19  and  C_20 
REMARK    7  A    between atoms: N_22  and  C_23 
ROOT
HETATM    1  C   UNL     1      41.020 -15.063   3.134  1.00  0.00     0.103 A 
HETATM    2  N   UNL     1      39.818 -15.431   2.646  1.00  0.00    -0.173 NA
HETATM    3  N   UNL     1      39.175 -14.281   2.415  1.00  0.00    -0.272 N 
HETATM    4  H   UNL     1      38.242 -14.326   2.015  1.00  0.00     0.189 HD
HETATM    5  C   UNL     1      39.873 -13.175   2.786  1.00  0.00     0.147 A 
HETATM    6  C   UNL     1      41.075 -13.639   3.277  1.00  0.00     0.042 A 
ENDROOT
BRANCH   1   7
HETATM    7  C   UNL     1      42.013 -16.091   3.458  1.00  0.00     0.029 A 
HETATM    8  C   UNL     1      42.812 -16.711   2.490  1.00  0.00     0.081 A 
HETATM    9  C   UNL     1      43.770 -17.657   2.859  1.00  0.00     0.074 A 
HETATM   10  C   UNL     1      43.914 -18.018   4.199  1.00  0.00     0.074 A 
HETATM   11  C   UNL     1      43.097 -17.464   5.188  1.00  0.00    -0.024 A 
HETATM   12  C   UNL     1      42.159 -16.489   4.799  1.00  0.00     0.026 A 
BRANCH   8  13
HETATM   13  O   UNL     1      42.652 -16.412   1.164  1.00  0.00    -0.360 OA
HETATM   14  H   UNL     1      42.490 -15.458   1.072  1.00  0.00     0.217 HD
ENDBRANCH   8  13
BRANCH  10  15
HETATM   15  O   UNL     1      44.888 -18.939   4.462  1.00  0.00    -0.360 OA
HETATM   16  H   UNL     1      45.434 -18.630   5.202  1.00  0.00     0.217 HD
ENDBRANCH  10  15
BRANCH  11  17
HETATM   17  C   UNL     1      43.168 -17.855   6.644  1.00  0.00     0.037 C 
HETATM   18  C   UNL     1      43.927 -16.831   7.474  1.00  0.00     0.010 C 
ENDBRANCH  11  17
ENDBRANCH   1   7
BRANCH   6  19
HETATM   19  C   UNL     1      42.157 -12.838   3.830  1.00  0.00     0.016 A 
HETATM   20  C   UNL     1      42.538 -12.718   5.144  1.00  0.00     0.132 A 
HETATM   21  N   UNL     1      43.583 -11.817   5.182  1.00  0.00    -0.245 N 
HETATM   22  N   UNL     1      43.916 -11.398   3.930  1.00  0.00    -0.179 NA
HETATM   23  C   UNL     1      43.049 -12.015   3.125  1.00  0.00     0.153 A 
BRANCH  21  24
HETATM   24  C   UNL     1      44.269 -11.323   6.327  1.00  0.00     0.058 A 
HETATM   25  C   UNL     1      45.669 -11.239   6.359  1.00  0.00     0.031 A 
HETATM   26  C   UNL     1      46.317 -10.763   7.503  1.00  0.00     0.002 A 
HETATM   27  C   UNL     1      45.578 -10.371   8.617  1.00  0.00     0.000 A 
HETATM   28  C   UNL     1      44.187 -10.449   8.593  1.00  0.00     0.002 A 
HETATM   29  C   UNL     1      43.533 -10.921   7.452  1.00  0.00     0.031 A 
ENDBRANCH  21  24
ENDBRANCH   6  19
BRANCH   5  30
HETATM   30  C   UNL     1      39.280 -11.844   2.639  1.00  0.00     0.435 C 
HETATM   31  F   UNL     1      39.964 -11.096   1.733  1.00  0.00    -0.165 F 
HETATM   32  F   UNL     1      37.996 -11.894   2.211  1.00  0.00    -0.165 F 
HETATM   33  F   UNL     1      39.291 -11.147   3.801  1.00  0.00    -0.165 F 
ENDBRANCH   5  30
TORSDOF 7
ENDMDL
MODEL 3
REMARK VINA RESULT:      -8.7      2.377      5.474
REMARK  7 active torsions:
REMARK  status: ('A' for Active; 'I' for Inactive)
REMARK    1  A    between atoms: C_2  and  C_3 
REMARK    2  A    between atoms: C_4  and  O_5 
REMARK    3  A    between atoms: C_7  and  O_8 
REMARK    4  A    between atoms: C_9  and  C_10 
REMARK    5  A    between atoms: C_14  and  C_15 
REMARK    6  A    between atoms: C_19  and  C_20 
REMARK    7  A    between atoms: N_22  and  C_23 
ROOT
HETATM    1  C   UNL     1      43.298 -14.336   5.840  1.00  0.00     0.103 A 
HETATM    2  N   UNL     1      43.993 -13.613   6.741  1.00  0.00    -0.173 NA
HETATM    3  N   UNL     1      43.633 -12.345   6.515  1.00  0.00    -0.272 N 
HETATM    4  H   UNL     1      44.028 -11.621   7.109  1.00  0.00     0.189 HD
HETATM    5  C   UNL     1      42.780 -12.192   5.467  1.00  0.00     0.147 A 
HETATM    6  C   UNL     1      42.549 -13.464   4.986  1.00  0.00     0.042 A 
ENDROOT
BRANCH   1   7
HETATM    7  C   UNL     1      43.420 -15.797   5.837  1.00  0.00     0.029 A 
HETATM    8  C   UNL     1      43.256 -16.578   6.987  1.00  0.00     0.081 A 
HETATM    9  C   UNL     1      43.346 -17.969   6.919  1.00  0.00     0.074 A 
HETATM   10  C   UNL     1      43.635 -18.592   5.705  1.00  0.00     0.074 A 
HETATM   11  C   UNL     1      43.862 -17.844   4.546  1.00  0.00    -0.024 A 
HETATM   12  C   UNL     1      43.736 -16.445   4.629  1.00  0.00     0.026 A 
BRANCH   8  13
HETATM   13  O   UNL     1      43.023 -15.986   8.199  1.00  0.00    -0.360 OA
HETATM   14  H   UNL     1      43.539 -16.447   8.881  1.00  0.00     0.217 HD
ENDBRANCH   8  13
BRANCH  10  15
HETATM   15  O   UNL     1      43.685 -19.957   5.737  1.00  0.00    -0.360 OA
HETATM   16  H   UNL     1      44.519 -20.240   6.143  1.00  0.00     0.217 HD
ENDBRANCH  10  15
BRANCH  11  17
HETATM   17  C   UNL     1      44.233 -18.457   3.218  1.00  0.00     0.037 C 
HETATM   18  C   UNL     1      43.025 -18.629   2.311  1.00  0.00     0.010 C 
ENDBRANCH  11  17
ENDBRANCH   1   7
BRANCH   6  19
HETATM   19  C   UNL     1      41.724 -13.825   3.843  1.00  0.00     0.016 A 
HETATM   20  C   UNL     1      41.858 -13.422   2.537  1.00  0.00     0.132 A 
HETATM   21  N   UNL     1      40.819 -13.990   1.828  1.00  0.00    -0.245 N 
HETATM   22  N   UNL     1      40.056 -14.786   2.628  1.00  0.00    -0.179 NA
HETATM   23  C   UNL     1      40.607 -14.675   3.838  1.00  0.00     0.153 A 
BRANCH  21  24
HETATM   24  C   UNL     1      40.501 -13.814   0.452  1.00  0.00     0.058 A 
HETATM   25  C   UNL     1      39.775 -14.781  -0.259  1.00  0.00     0.031 A 
HETATM   26  C   UNL     1      39.490 -14.588  -1.614  1.00  0.00     0.002 A 
HETATM   27  C   UNL     1      39.925 -13.436  -2.266  1.00  0.00     0.000 A 
HETATM   28  C   UNL     1      40.644 -12.469  -1.567  1.00  0.00     0.002 A 
HETATM   29  C   UNL     1      40.931 -12.654  -0.213  1.00  0.00     0.031 A 
ENDBRANCH  21  24
ENDBRANCH   6  19
BRANCH   5  30
HETATM   30  C   UNL     1      42.334 -10.856   5.066  1.00  0.00     0.435 C 
HETATM   31  F   UNL     1      42.640  -9.930   6.012  1.00  0.00    -0.165 F 
HETATM   32  F   UNL     1      42.913 -10.441   3.914  1.00  0.00    -0.165 F 
HETATM   33  F   UNL     1      40.992 -10.797   4.888  1.00  0.00    -0.165 F 
ENDBRANCH   5  30
TORSDOF 7
ENDMDL
MODEL 4
REMARK VINA RESULT:      -8.5      3.895      7.075
REMARK  7 active torsions:
REMARK  status: ('A' for Active; 'I' for Inactive)
REMARK    1  A    between atoms: C_2  and  C_3 
REMARK    2  A    between atoms: C_4  and  O_5 
REMARK    3  A    between atoms: C_7  and  O_8 
REMARK    4  A    between atoms: C_9  and  C_10 
REMARK    5  A    between atoms: C_14  and  C_15 
REMARK    6  A    between atoms: C_19  and  C_20 
REMARK    7  A    between atoms: N_22  and  C_23 
ROOT
HETATM    1  C   UNL     1      43.598 -16.590   4.857  1.00  0.00     0.103 A 
HETATM    2  N   UNL     1      44.433 -17.525   5.352  1.00  0.00    -0.173 NA
HETATM    3  N   UNL     1      44.362 -18.541   4.485  1.00  0.00    -0.272 N 
HETATM    4  H   UNL     1      44.942 -19.358   4.655  1.00  0.00     0.189 HD
HETATM    5  C   UNL     1      43.473 -18.343   3.475  1.00  0.00     0.147 A 
HETATM    6  C   UNL     1      42.938 -17.090   3.689  1.00  0.00     0.042 A 
ENDROOT
BRANCH   1   7
HETATM    7  C   UNL     1      43.464 -15.304   5.548  1.00  0.00     0.029 A 
HETATM    8  C   UNL     1      43.277 -15.197   6.930  1.00  0.00     0.081 A 
HETATM    9  C   UNL     1      43.194 -13.944   7.542  1.00  0.00     0.074 A 
HETATM   10  C   UNL     1      43.264 -12.784   6.770  1.00  0.00     0.074 A 
HETATM   11  C   UNL     1      43.393 -12.850   5.379  1.00  0.00    -0.024 A 
HETATM   12  C   UNL     1      43.506 -14.121   4.786  1.00  0.00     0.026 A 
BRANCH   8  13
HETATM   13  O   UNL     1      43.153 -16.321   7.702  1.00  0.00    -0.360 OA
HETATM   14  H   UNL     1      42.398 -16.842   7.382  1.00  0.00     0.217 HD
ENDBRANCH   8  13
BRANCH  10  15
HETATM   15  O   UNL     1      43.190 -11.609   7.460  1.00  0.00    -0.360 OA
HETATM   16  H   UNL     1      43.604 -11.718   8.331  1.00  0.00     0.217 HD
ENDBRANCH  10  15
BRANCH  11  17
HETATM   17  C   UNL     1      43.418 -11.633   4.487  1.00  0.00     0.037 C 
HETATM   18  C   UNL     1      43.073 -11.975   3.046  1.00  0.00     0.010 C 
ENDBRANCH  11  17
ENDBRANCH   1   7
BRANCH   6  19
HETATM   19  C   UNL     1      41.912 -16.434   2.892  1.00  0.00     0.016 A 
HETATM   20  C   UNL     1      42.063 -15.757   1.706  1.00  0.00     0.132 A 
HETATM   21  N   UNL     1      40.818 -15.275   1.354  1.00  0.00    -0.245 N 
HETATM   22  N   UNL     1      39.869 -15.667   2.248  1.00  0.00    -0.179 NA
HETATM   23  C   UNL     1      40.539 -16.359   3.171  1.00  0.00     0.153 A 
BRANCH  21  24
HETATM   24  C   UNL     1      40.480 -14.460   0.237  1.00  0.00     0.058 A 
HETATM   25  C   UNL     1      39.626 -14.924  -0.773  1.00  0.00     0.031 A 
HETATM   26  C   UNL     1      39.323 -14.107  -1.867  1.00  0.00     0.002 A 
HETATM   27  C   UNL     1      39.870 -12.828  -1.960  1.00  0.00     0.000 A 
HETATM   28  C   UNL     1      40.718 -12.359  -0.960  1.00  0.00     0.002 A 
HETATM   29  C   UNL     1      41.022 -13.169   0.137  1.00  0.00     0.031 A 
ENDBRANCH  21  24
ENDBRANCH   6  19
BRANCH   5  30
HETATM   30  C   UNL     1      43.250 -19.387   2.472  1.00  0.00     0.435 C 
HETATM   31  F   UNL     1      42.038 -19.246   1.874  1.00  0.00    -0.165 F 
HETATM   32  F   UNL     1      44.176 -19.363   1.484  1.00  0.00    -0.165 F 
HETATM   33  F   UNL     1      43.270 -20.630   3.014  1.00  0.00    -0.165 F 
ENDBRANCH   5  30
TORSDOF 7
ENDMDL
MODEL 5
REMARK VINA RESULT:      -8.4      3.774      6.474
REMARK  7 active torsions:
REMARK  status: ('A' for Active; 'I' for Inactive)
REMARK    1  A    between atoms: C_2  and  C_3 
REMARK    2  A    between atoms: C_4  and  O_5 
REMARK    3  A    between atoms: C_7  and  O_8 
REMARK    4  A    between atoms: C_9  and  C_10 
REMARK    5  A    between atoms: C_14  and  C_15 
REMARK    6  A    between atoms: C_19  and  C_20 
REMARK    7  A    between atoms: N_22  and  C_23 
ROOT
HETATM    1  C   UNL     1      39.502 -11.705   1.596  1.00  0.00     0.103 A 
HETATM    2  N   UNL     1      38.419 -10.915   1.741  1.00  0.00    -0.173 NA
HETATM    3  N   UNL     1      38.294 -10.745   3.061  1.00  0.00    -0.272 N 
HETATM    4  H   UNL     1      37.541 -10.151   3.398  1.00  0.00     0.189 HD
HETATM    5  C   UNL     1      39.205 -11.436   3.797  1.00  0.00     0.147 A 
HETATM    6  C   UNL     1      40.002 -12.091   2.882  1.00  0.00     0.042 A 
ENDROOT
BRANCH   1   7
HETATM    7  C   UNL     1      39.962 -12.061   0.251  1.00  0.00     0.029 A 
HETATM    8  C   UNL     1      40.894 -11.299  -0.463  1.00  0.00     0.081 A 
HETATM    9  C   UNL     1      41.325 -11.706  -1.727  1.00  0.00     0.074 A 
HETATM   10  C   UNL     1      40.802 -12.862  -2.305  1.00  0.00     0.074 A 
HETATM   11  C   UNL     1      39.827 -13.620  -1.649  1.00  0.00    -0.024 A 
HETATM   12  C   UNL     1      39.429 -13.210  -0.363  1.00  0.00     0.026 A 
BRANCH   8  13
HETATM   13  O   UNL     1      41.382 -10.133   0.061  1.00  0.00    -0.360 OA
HETATM   14  H   UNL     1      40.672  -9.685   0.551  1.00  0.00     0.217 HD
ENDBRANCH   8  13
BRANCH  10  15
HETATM   15  O   UNL     1      41.299 -13.186  -3.535  1.00  0.00    -0.360 OA
HETATM   16  H   UNL     1      42.207 -12.856  -3.615  1.00  0.00     0.217 HD
ENDBRANCH  10  15
BRANCH  11  17
HETATM   17  C   UNL     1      39.184 -14.848  -2.245  1.00  0.00     0.037 C 
HETATM   18  C   UNL     1      38.140 -14.494  -3.292  1.00  0.00     0.010 C 
ENDBRANCH  11  17
ENDBRANCH   1   7
BRANCH   6  19
HETATM   19  C   UNL     1      41.108 -12.990   3.177  1.00  0.00     0.016 A 
HETATM   20  C   UNL     1      41.190 -14.341   2.941  1.00  0.00     0.132 A 
HETATM   21  N   UNL     1      42.410 -14.763   3.429  1.00  0.00    -0.245 N 
HETATM   22  N   UNL     1      43.131 -13.719   3.921  1.00  0.00    -0.179 NA
HETATM   23  C   UNL     1      42.336 -12.658   3.768  1.00  0.00     0.153 A 
BRANCH  21  24
HETATM   24  C   UNL     1      42.922 -16.091   3.469  1.00  0.00     0.058 A 
HETATM   25  C   UNL     1      42.740 -16.976   2.396  1.00  0.00     0.031 A 
HETATM   26  C   UNL     1      43.241 -18.279   2.469  1.00  0.00     0.002 A 
HETATM   27  C   UNL     1      43.922 -18.708   3.607  1.00  0.00     0.000 A 
HETATM   28  C   UNL     1      44.109 -17.835   4.676  1.00  0.00     0.002 A 
HETATM   29  C   UNL     1      43.613 -16.530   4.609  1.00  0.00     0.031 A 
ENDBRANCH  21  24
ENDBRANCH   6  19
BRANCH   5  30
HETATM   30  C   UNL     1      39.164 -11.387   5.259  1.00  0.00     0.435 C 
HETATM   31  F   UNL     1      38.961 -12.623   5.789  1.00  0.00    -0.165 F 
HETATM   32  F   UNL     1      40.318 -10.920   5.795  1.00  0.00    -0.165 F 
HETATM   33  F   UNL     1      38.160 -10.601   5.718  1.00  0.00    -0.165 F 
ENDBRANCH   5  30
TORSDOF 7
ENDMDL
MODEL 6
REMARK VINA RESULT:      -8.1     15.992     17.493
REMARK  7 active torsions:
REMARK  status: ('A' for Active; 'I' for Inactive)
REMARK    1  A    between atoms: C_2  and  C_3 
REMARK    2  A    between atoms: C_4  and  O_5 
REMARK    3  A    between atoms: C_7  and  O_8 
REMARK    4  A    between atoms: C_9  and  C_10 
REMARK    5  A    between atoms: C_14  and  C_15 
REMARK    6  A    between atoms: C_19  and  C_20 
REMARK    7  A    between atoms: N_22  and  C_23 
ROOT
HETATM    1  C   UNL     1      47.236 -28.933  -0.585  1.00  0.00     0.103 A 
HETATM    2  N   UNL     1      47.930 -28.231  -1.504  1.00  0.00    -0.173 NA
HETATM    3  N   UNL     1      47.092 -28.098  -2.538  1.00  0.00    -0.272 N 
HETATM    4  H   UNL     1      47.409 -27.571  -3.347  1.00  0.00     0.189 HD
HETATM    5  C   UNL     1      45.901 -28.732  -2.368  1.00  0.00     0.147 A 
HETATM    6  C   UNL     1      45.959 -29.305  -1.115  1.00  0.00     0.042 A 
ENDROOT
BRANCH   1   7
HETATM    7  C   UNL     1      47.850 -29.225   0.714  1.00  0.00     0.029 A 
HETATM    8  C   UNL     1      47.398 -28.663   1.913  1.00  0.00     0.081 A 
HETATM    9  C   UNL     1      47.995 -29.006   3.128  1.00  0.00     0.074 A 
HETATM   10  C   UNL     1      49.074 -29.889   3.151  1.00  0.00     0.074 A 
HETATM   11  C   UNL     1      49.591 -30.428   1.969  1.00  0.00    -0.024 A 
HETATM   12  C   UNL     1      48.955 -30.094   0.758  1.00  0.00     0.026 A 
BRANCH   8  13
HETATM   13  O   UNL     1      46.375 -27.753   1.910  1.00  0.00    -0.360 OA
HETATM   14  H   UNL     1      45.838 -27.884   1.111  1.00  0.00     0.217 HD
ENDBRANCH   8  13
BRANCH  10  15
HETATM   15  O   UNL     1      49.579 -30.175   4.387  1.00  0.00    -0.360 OA
HETATM   16  H   UNL     1      49.182 -30.997   4.717  1.00  0.00     0.217 HD
ENDBRANCH  10  15
BRANCH  11  17
HETATM   17  C   UNL     1      50.789 -31.344   1.924  1.00  0.00     0.037 C 
HETATM   18  C   UNL     1      51.247 -31.618   0.500  1.00  0.00     0.010 C 
ENDBRANCH  11  17
ENDBRANCH   1   7
BRANCH   6  19
HETATM   19  C   UNL     1      44.934 -30.123  -0.483  1.00  0.00     0.016 A 
HETATM   20  C   UNL     1      44.070 -29.771   0.526  1.00  0.00     0.132 A 
HETATM   21  N   UNL     1      43.315 -30.888   0.819  1.00  0.00    -0.245 N 
HETATM   22  N   UNL     1      43.631 -31.925  -0.004  1.00  0.00    -0.179 NA
HETATM   23  C   UNL     1      44.609 -31.455  -0.780  1.00  0.00     0.153 A 
BRANCH  21  24
HETATM   24  C   UNL     1      42.329 -31.033   1.836  1.00  0.00     0.058 A 
HETATM   25  C   UNL     1      42.437 -30.354   3.058  1.00  0.00     0.031 A 
HETATM   26  C   UNL     1      41.460 -30.527   4.045  1.00  0.00     0.002 A 
HETATM   27  C   UNL     1      40.378 -31.375   3.821  1.00  0.00     0.000 A 
HETATM   28  C   UNL     1      40.262 -32.052   2.609  1.00  0.00     0.002 A 
HETATM   29  C   UNL     1      41.232 -31.882   1.618  1.00  0.00     0.031 A 
ENDBRANCH  21  24
ENDBRANCH   6  19
BRANCH   5  30
HETATM   30  C   UNL     1      44.897 -28.717  -3.434  1.00  0.00     0.435 C 
HETATM   31  F   UNL     1      44.799 -27.486  -4.002  1.00  0.00    -0.165 F 
HETATM   32  F   UNL     1      45.190 -29.584  -4.433  1.00  0.00    -0.165 F 
HETATM   33  F   UNL     1      43.660 -29.031  -2.978  1.00  0.00    -0.165 F 
ENDBRANCH   5  30
TORSDOF 7
ENDMDL
MODEL 7
REMARK VINA RESULT:      -8.1      3.625      7.501
REMARK  7 active torsions:
REMARK  status: ('A' for Active; 'I' for Inactive)
REMARK    1  A    between atoms: C_2  and  C_3 
REMARK    2  A    between atoms: C_4  and  O_5 
REMARK    3  A    between atoms: C_7  and  O_8 
REMARK    4  A    between atoms: C_9  and  C_10 
REMARK    5  A    between atoms: C_14  and  C_15 
REMARK    6  A    between atoms: C_19  and  C_20 
REMARK    7  A    between atoms: N_22  and  C_23 
ROOT
HETATM    1  C   UNL     1      42.465 -14.532   4.757  1.00  0.00     0.103 A 
HETATM    2  N   UNL     1      43.019 -15.514   5.497  1.00  0.00    -0.173 NA
HETATM    3  N   UNL     1      43.294 -16.487   4.622  1.00  0.00    -0.272 N 
HETATM    4  H   UNL     1      43.747 -17.329   4.968  1.00  0.00     0.189 HD
HETATM    5  C   UNL     1      42.891 -16.218   3.351  1.00  0.00     0.147 A 
HETATM    6  C   UNL     1      42.328 -14.960   3.398  1.00  0.00     0.042 A 
ENDROOT
BRANCH   1   7
HETATM    7  C   UNL     1      42.077 -13.274   5.402  1.00  0.00     0.029 A 
HETATM    8  C   UNL     1      40.748 -12.846   5.502  1.00  0.00     0.081 A 
HETATM    9  C   UNL     1      40.431 -11.657   6.161  1.00  0.00     0.074 A 
HETATM   10  C   UNL     1      41.446 -10.865   6.698  1.00  0.00     0.074 A 
HETATM   11  C   UNL     1      42.790 -11.229   6.570  1.00  0.00    -0.024 A 
HETATM   12  C   UNL     1      43.086 -12.446   5.930  1.00  0.00     0.026 A 
BRANCH   8  13
HETATM   13  O   UNL     1      39.740 -13.580   4.937  1.00  0.00    -0.360 OA
HETATM   14  H   UNL     1      39.359 -13.078   4.197  1.00  0.00     0.217 HD
ENDBRANCH   8  13
BRANCH  10  15
HETATM   15  O   UNL     1      41.036  -9.731   7.338  1.00  0.00    -0.360 OA
HETATM   16  H   UNL     1      41.576  -8.980   7.045  1.00  0.00     0.217 HD
ENDBRANCH  10  15
BRANCH  11  17
HETATM   17  C   UNL     1      43.934 -10.387   7.081  1.00  0.00     0.037 C 
HETATM   18  C   UNL     1      45.278 -11.071   6.887  1.00  0.00     0.010 C 
ENDBRANCH  11  17
ENDBRANCH   1   7
BRANCH   6  19
HETATM   19  C   UNL     1      41.719 -14.238   2.291  1.00  0.00     0.016 A 
HETATM   20  C   UNL     1      40.723 -14.664   1.445  1.00  0.00     0.132 A 
HETATM   21  N   UNL     1      40.509 -13.652   0.531  1.00  0.00    -0.245 N 
HETATM   22  N   UNL     1      41.296 -12.574   0.797  1.00  0.00    -0.179 NA
HETATM   23  C   UNL     1      42.023 -12.940   1.855  1.00  0.00     0.153 A 
BRANCH  21  24
HETATM   24  C   UNL     1      39.618 -13.653  -0.580  1.00  0.00     0.058 A 
HETATM   25  C   UNL     1      38.747 -12.580  -0.817  1.00  0.00     0.031 A 
HETATM   26  C   UNL     1      37.872 -12.614  -1.907  1.00  0.00     0.002 A 
HETATM   27  C   UNL     1      37.860 -13.714  -2.763  1.00  0.00     0.000 A 
HETATM   28  C   UNL     1      38.723 -14.783  -2.536  1.00  0.00     0.002 A 
HETATM   29  C   UNL     1      39.601 -14.754  -1.450  1.00  0.00     0.031 A 
ENDBRANCH  21  24
ENDBRANCH   6  19
BRANCH   5  30
HETATM   30  C   UNL     1      43.081 -17.209   2.291  1.00  0.00     0.435 C 
HETATM   31  F   UNL     1      43.365 -16.613   1.103  1.00  0.00    -0.165 F 
HETATM   32  F   UNL     1      44.103 -18.059   2.553  1.00  0.00    -0.165 F 
HETATM   33  F   UNL     1      41.972 -17.963   2.089  1.00  0.00    -0.165 F 
ENDBRANCH   5  30
TORSDOF 7
ENDMDL
MODEL 8
REMARK VINA RESULT:      -8.1      3.888      7.438
REMARK  7 active torsions:
REMARK  status: ('A' for Active; 'I' for Inactive)
REMARK    1  A    between atoms: C_2  and  C_3 
REMARK    2  A    between atoms: C_4  and  O_5 
REMARK    3  A    between atoms: C_7  and  O_8 
REMARK    4  A    between atoms: C_9  and  C_10 
REMARK    5  A    between atoms: C_14  and  C_15 
REMARK    6  A    between atoms: C_19  and  C_20 
REMARK    7  A    between atoms: N_22  and  C_23 
ROOT
HETATM    1  C   UNL     1      41.905 -14.630   4.626  1.00  0.00     0.103 A 
HETATM    2  N   UNL     1      42.645 -15.238   5.575  1.00  0.00    -0.173 NA
HETATM    3  N   UNL     1      43.219 -16.273   4.951  1.00  0.00    -0.272 N 
HETATM    4  H   UNL     1      43.850 -16.864   5.485  1.00  0.00     0.189 HD
HETATM    5  C   UNL     1      42.844 -16.410   3.651  1.00  0.00     0.147 A 
HETATM    6  C   UNL     1      41.973 -15.370   3.402  1.00  0.00     0.042 A 
ENDROOT
BRANCH   1   7
HETATM    7  C   UNL     1      41.164 -13.410   4.961  1.00  0.00     0.029 A 
HETATM    8  C   UNL     1      40.092 -13.392   5.860  1.00  0.00     0.081 A 
HETATM    9  C   UNL     1      39.446 -12.194   6.171  1.00  0.00     0.074 A 
HETATM   10  C   UNL     1      39.845 -11.006   5.559  1.00  0.00     0.074 A 
HETATM   11  C   UNL     1      40.874 -10.991   4.613  1.00  0.00    -0.024 A 
HETATM   12  C   UNL     1      41.533 -12.204   4.337  1.00  0.00     0.026 A 
BRANCH   8  13
HETATM   13  O   UNL     1      39.649 -14.553   6.433  1.00  0.00    -0.360 OA
HETATM   14  H   UNL     1      39.077 -15.020   5.801  1.00  0.00     0.217 HD
ENDBRANCH   8  13
BRANCH  10  15
HETATM   15  O   UNL     1      39.164  -9.885   5.941  1.00  0.00    -0.360 OA
HETATM   16  H   UNL     1      39.179  -9.236   5.221  1.00  0.00     0.217 HD
ENDBRANCH  10  15
BRANCH  11  17
HETATM   17  C   UNL     1      41.313  -9.749   3.877  1.00  0.00     0.037 C 
HETATM   18  C   UNL     1      41.133  -9.882   2.373  1.00  0.00     0.010 C 
ENDBRANCH  11  17
ENDBRANCH   1   7
BRANCH   6  19
HETATM   19  C   UNL     1      41.272 -15.101   2.156  1.00  0.00     0.016 A 
HETATM   20  C   UNL     1      41.497 -14.088   1.256  1.00  0.00     0.132 A 
HETATM   21  N   UNL     1      40.557 -14.219   0.254  1.00  0.00    -0.245 N 
HETATM   22  N   UNL     1      39.773 -15.313   0.457  1.00  0.00    -0.179 NA
HETATM   23  C   UNL     1      40.209 -15.833   1.606  1.00  0.00     0.153 A 
BRANCH  21  24
HETATM   24  C   UNL     1      40.351 -13.367  -0.867  1.00  0.00     0.058 A 
HETATM   25  C   UNL     1      39.570 -13.774  -1.959  1.00  0.00     0.031 A 
HETATM   26  C   UNL     1      39.397 -12.922  -3.054  1.00  0.00     0.002 A 
HETATM   27  C   UNL     1      39.999 -11.665  -3.068  1.00  0.00     0.000 A 
HETATM   28  C   UNL     1      40.774 -11.252  -1.987  1.00  0.00     0.002 A 
HETATM   29  C   UNL     1      40.949 -12.097  -0.889  1.00  0.00     0.031 A 
ENDBRANCH  21  24
ENDBRANCH   6  19
BRANCH   5  30
HETATM   30  C   UNL     1      43.352 -17.525   2.850  1.00  0.00     0.435 C 
HETATM   31  F   UNL     1      42.357 -18.390   2.520  1.00  0.00    -0.165 F 
HETATM   32  F   UNL     1      43.911 -17.114   1.686  1.00  0.00    -0.165 F 
HETATM   33  F   UNL     1      44.288 -18.248   3.512  1.00  0.00    -0.165 F 
ENDBRANCH   5  30
TORSDOF 7
ENDMDL
MODEL 9
REMARK VINA RESULT:      -8.0      3.334      5.858
REMARK  7 active torsions:
REMARK  status: ('A' for Active; 'I' for Inactive)
REMARK    1  A    between atoms: C_2  and  C_3 
REMARK    2  A    between atoms: C_4  and  O_5 
REMARK    3  A    between atoms: C_7  and  O_8 
REMARK    4  A    between atoms: C_9  and  C_10 
REMARK    5  A    between atoms: C_14  and  C_15 
REMARK    6  A    between atoms: C_19  and  C_20 
REMARK    7  A    between atoms: N_22  and  C_23 
ROOT
HETATM    1  C   UNL     1      40.348 -13.906   2.660  1.00  0.00     0.103 A 
HETATM    2  N   UNL     1      39.815 -15.016   2.108  1.00  0.00    -0.173 NA
HETATM    3  N   UNL     1      40.731 -15.970   2.307  1.00  0.00    -0.272 N 
HETATM    4  H   UNL     1      40.521 -16.911   1.985  1.00  0.00     0.189 HD
HETATM    5  C   UNL     1      41.868 -15.528   2.909  1.00  0.00     0.147 A 
HETATM    6  C   UNL     1      41.668 -14.183   3.140  1.00  0.00     0.042 A 
ENDROOT
BRANCH   1   7
HETATM    7  C   UNL     1      39.576 -12.660   2.661  1.00  0.00     0.029 A 
HETATM    8  C   UNL     1      38.913 -12.173   1.529  1.00  0.00     0.081 A 
HETATM    9  C   UNL     1      38.160 -10.999   1.597  1.00  0.00     0.074 A 
HETATM   10  C   UNL     1      38.092 -10.281   2.791  1.00  0.00     0.074 A 
HETATM   11  C   UNL     1      38.787 -10.703   3.928  1.00  0.00    -0.024 A 
HETATM   12  C   UNL     1      39.514 -11.905   3.848  1.00  0.00     0.026 A 
BRANCH   8  13
HETATM   13  O   UNL     1      39.008 -12.832   0.334  1.00  0.00    -0.360 OA
HETATM   14  H   UNL     1      39.931 -13.100   0.192  1.00  0.00     0.217 HD
ENDBRANCH   8  13
BRANCH  10  15
HETATM   15  O   UNL     1      37.318  -9.156   2.762  1.00  0.00    -0.360 OA
HETATM   16  H   UNL     1      37.781  -8.458   2.272  1.00  0.00     0.217 HD
ENDBRANCH  10  15
BRANCH  11  17
HETATM   17  C   UNL     1      38.797  -9.941   5.230  1.00  0.00     0.037 C 
HETATM   18  C   UNL     1      38.780 -10.868   6.435  1.00  0.00     0.010 C 
ENDBRANCH  11  17
ENDBRANCH   1   7
BRANCH   6  19
HETATM   19  C   UNL     1      42.614 -13.253   3.738  1.00  0.00     0.016 A 
HETATM   20  C   UNL     1      42.930 -13.100   5.066  1.00  0.00     0.132 A 
HETATM   21  N   UNL     1      43.844 -12.069   5.149  1.00  0.00    -0.245 N 
HETATM   22  N   UNL     1      44.162 -11.594   3.913  1.00  0.00    -0.179 NA
HETATM   23  C   UNL     1      43.413 -12.310   3.073  1.00  0.00     0.153 A 
BRANCH  21  24
HETATM   24  C   UNL     1      44.418 -11.502   6.322  1.00  0.00     0.058 A 
HETATM   25  C   UNL     1      43.625 -11.148   7.424  1.00  0.00     0.031 A 
HETATM   26  C   UNL     1      44.214 -10.580   8.558  1.00  0.00     0.002 A 
HETATM   27  C   UNL     1      45.590 -10.360   8.599  1.00  0.00     0.000 A 
HETATM   28  C   UNL     1      46.384 -10.711   7.510  1.00  0.00     0.002 A 
HETATM   29  C   UNL     1      45.803 -11.282   6.375  1.00  0.00     0.031 A 
ENDBRANCH  21  24
ENDBRANCH   6  19
BRANCH   5  30
HETATM   30  C   UNL     1      42.982 -16.447   3.150  1.00  0.00     0.435 C 
HETATM   31  F   UNL     1      42.558 -17.738   3.184  1.00  0.00    -0.165 F 
HETATM   32  F   UNL     1      43.930 -16.375   2.185  1.00  0.00    -0.165 F 
HETATM   33  F   UNL     1      43.594 -16.211   4.336  1.00  0.00    -0.165 F 
ENDBRANCH   5  30
TORSDOF 7
ENDMDL
MODEL 10
REMARK VINA RESULT:      -8.0      3.527      6.691
REMARK  7 active torsions:
REMARK  status: ('A' for Active; 'I' for Inactive)
REMARK    1  A    between atoms: C_2  and  C_3 
REMARK    2  A    between atoms: C_4  and  O_5 
REMARK    3  A    between atoms: C_7  and  O_8 
REMARK    4  A    between atoms: C_9  and  C_10 
REMARK    5  A    between atoms: C_14  and  C_15 
REMARK    6  A    between atoms: C_19  and  C_20 
REMARK    7  A    between atoms: N_22  and  C_23 
ROOT
HETATM    1  C   UNL     1      39.831 -11.900   1.358  1.00  0.00     0.103 A 
HETATM    2  N   UNL     1      39.489 -11.137   0.300  1.00  0.00    -0.173 NA
HETATM    3  N   UNL     1      39.285 -12.005  -0.697  1.00  0.00    -0.272 N 
HETATM    4  H   UNL     1      38.989 -11.640  -1.598  1.00  0.00     0.189 HD
HETATM    5  C   UNL     1      39.537 -13.299  -0.362  1.00  0.00     0.147 A 
HETATM    6  C   UNL     1      39.914 -13.274   0.964  1.00  0.00     0.042 A 
ENDROOT
BRANCH   1   7
HETATM    7  C   UNL     1      40.086 -11.264   2.654  1.00  0.00     0.029 A 
HETATM    8  C   UNL     1      39.117 -10.527   3.345  1.00  0.00     0.081 A 
HETATM    9  C   UNL     1      39.402  -9.975   4.595  1.00  0.00     0.074 A 
HETATM   10  C   UNL     1      40.672 -10.126   5.152  1.00  0.00     0.074 A 
HETATM   11  C   UNL     1      41.684 -10.806   4.468  1.00  0.00    -0.024 A 
HETATM   12  C   UNL     1      41.367 -11.382   3.224  1.00  0.00     0.026 A 
BRANCH   8  13
HETATM   13  O   UNL     1      37.881 -10.322   2.795  1.00  0.00    -0.360 OA
HETATM   14  H   UNL     1      37.911 -10.552   1.851  1.00  0.00     0.217 HD
ENDBRANCH   8  13
BRANCH  10  15
HETATM   15  O   UNL     1      40.848  -9.565   6.385  1.00  0.00    -0.360 OA
HETATM   16  H   UNL     1      41.484 -10.092   6.892  1.00  0.00     0.217 HD
ENDBRANCH  10  15
BRANCH  11  17
HETATM   17  C   UNL     1      43.091 -10.954   4.993  1.00  0.00     0.037 C 
HETATM   18  C   UNL     1      44.010 -11.622   3.983  1.00  0.00     0.010 C 
ENDBRANCH  11  17
ENDBRANCH   1   7
BRANCH   6  19
HETATM   19  C   UNL     1      40.318 -14.413   1.776  1.00  0.00     0.016 A 
HETATM   20  C   UNL     1      41.580 -14.925   1.952  1.00  0.00     0.132 A 
HETATM   21  N   UNL     1      41.459 -16.028   2.773  1.00  0.00    -0.245 N 
HETATM   22  N   UNL     1      40.168 -16.207   3.168  1.00  0.00    -0.179 NA
HETATM   23  C   UNL     1      39.491 -15.232   2.559  1.00  0.00     0.153 A 
BRANCH  21  24
HETATM   24  C   UNL     1      42.484 -16.925   3.188  1.00  0.00     0.058 A 
HETATM   25  C   UNL     1      43.178 -16.731   4.391  1.00  0.00     0.031 A 
HETATM   26  C   UNL     1      44.190 -17.619   4.767  1.00  0.00     0.002 A 
HETATM   27  C   UNL     1      44.517 -18.700   3.950  1.00  0.00     0.000 A 
HETATM   28  C   UNL     1      43.831 -18.900   2.754  1.00  0.00     0.002 A 
HETATM   29  C   UNL     1      42.816 -18.018   2.373  1.00  0.00     0.031 A 
ENDBRANCH  21  24
ENDBRANCH   6  19
BRANCH   5  30
HETATM   30  C   UNL     1      39.405 -14.360  -1.362  1.00  0.00     0.435 C 
HETATM   31  F   UNL     1      38.280 -14.198  -2.108  1.00  0.00    -0.165 F 
HETATM   32  F   UNL     1      40.446 -14.387  -2.229  1.00  0.00    -0.165 F 
HETATM   33  F   UNL     1      39.319 -15.589  -0.798  1.00  0.00    -0.165 F 
ENDBRANCH   5  30
TORSDOF 7
ENDMDL
