MODEL 1
REMARK VINA RESULT:      -8.2      0.000      0.000
REMARK  9 active torsions:
REMARK  status: ('A' for Active; 'I' for Inactive)
REMARK       I    between atoms: C_2  and  N_3 
REMARK    1  A    between atoms: N_3  and  C_4 
REMARK    2  A    between atoms: C_6  and  O_7 
REMARK    3  A    between atoms: O_7  and  C_8 
REMARK    4  A    between atoms: C_8  and  C_9 
REMARK    5  A    between atoms: C_9  and  C_10 
REMARK    6  A    between atoms: C_10  and  C_11 
REMARK    7  A    between atoms: C_11  and  N_12 
REMARK       I    between atoms: N_12  and  C_13 
REMARK    8  A    between atoms: C_13  and  C_14 
REMARK    9  A    between atoms: C_18  and  C_19 
ROOT
HETATM    1  C   UNL     1      45.096 -11.026   7.322  1.00  0.00     0.217 C 
ENDROOT
BRANCH   1   2
HETATM    2  C   UNL     1      44.323 -12.296   7.004  1.00  0.00    -0.085 C 
BRANCH   2   3
HETATM    3  C   UNL     1      43.659 -13.385   6.731  1.00  0.00    -0.078 C 
BRANCH   3   4
HETATM    4  C   UNL     1      42.887 -14.655   6.414  1.00  0.00     0.269 C 
BRANCH   4   5
HETATM    5  O   UNL     1      42.035 -14.442   5.292  1.00  0.00    -0.339 OA
BRANCH   5   6
HETATM    6  C   UNL     1      42.462 -14.988   4.107  1.00  0.00     0.072 A 
HETATM    7  C   UNL     1      42.481 -16.353   3.794  1.00  0.00     0.066 A 
HETATM    8  C   UNL     1      42.925 -16.796   2.543  1.00  0.00     0.037 A 
HETATM    9  C   UNL     1      43.365 -15.853   1.607  1.00  0.00     0.029 A 
HETATM   10  C   UNL     1      43.354 -14.492   1.915  1.00  0.00     0.005 A 
HETATM   11  C   UNL     1      42.901 -14.063   3.161  1.00  0.00     0.037 A 
BRANCH   8  12
HETATM   12  N   UNL     1      42.957 -18.155   2.158  1.00  0.00    -0.327 N 
HETATM   13  C   UNL     1      43.738 -19.165   2.690  1.00  0.00     0.218 C 
HETATM   14  C   UNL     1      43.490 -20.500   2.031  1.00  0.00     0.117 C 
HETATM   15  O   UNL     1      44.539 -19.069   3.614  1.00  0.00    -0.274 OA
HETATM   16  H   UNL     1      42.319 -18.416   1.416  1.00  0.00     0.169 HD
ENDBRANCH   8  12
ENDBRANCH   5   6
ENDBRANCH   4   5
ENDBRANCH   3   4
ENDBRANCH   2   3
ENDBRANCH   1   2
BRANCH   1  17
HETATM   17  N   UNL     1      44.496 -10.385   8.462  1.00  0.00    -0.345 N 
HETATM   18  C   UNL     1      44.807  -9.089   8.784  1.00  0.00     0.270 C 
HETATM   19  O   UNL     1      45.640  -8.437   8.163  1.00  0.00    -0.266 OA
HETATM   20  H   UNL     1      43.732 -10.853   8.926  1.00  0.00     0.163 HD
BRANCH  18  21
HETATM   21  C   UNL     1      44.077  -8.540   9.894  1.00  0.00     0.120 A 
HETATM   22  N   UNL     1      43.296  -7.424   9.755  1.00  0.00    -0.272 N 
HETATM   23  H   UNL     1      43.154  -6.887   8.905  1.00  0.00     0.189 HD
HETATM   24  N   UNL     1      42.669  -7.047  10.879  1.00  0.00    -0.173 NA
HETATM   25  C   UNL     1      43.068  -7.943  11.790  1.00  0.00     0.096 A 
HETATM   26  C   UNL     1      43.952  -8.893  11.224  1.00  0.00     0.071 A 
BRANCH  25  27
HETATM   27  C   UNL     1      42.601  -7.894  13.215  1.00  0.00     0.035 A 
HETATM   28  S   UNL     1      41.421  -8.936  13.883  1.00  0.00    -0.100 SA
HETATM   29  C   UNL     1      41.538  -8.191  15.419  1.00  0.00     0.050 A 
HETATM   30  C   UNL     1      42.458  -7.166  15.425  1.00  0.00     0.008 A 
HETATM   31  C   UNL     1      43.074  -6.996  14.150  1.00  0.00     0.022 A 
ENDBRANCH  25  27
ENDBRANCH  18  21
ENDBRANCH   1  17
TORSDOF 9
ENDMDL
MODEL 2
REMARK VINA RESULT:      -8.1      1.803      2.830
REMARK  9 active torsions:
REMARK  status: ('A' for Active; 'I' for Inactive)
REMARK       I    between atoms: C_2  and  N_3 
REMARK    1  A    between atoms: N_3  and  C_4 
REMARK    2  A    between atoms: C_6  and  O_7 
REMARK    3  A    between atoms: O_7  and  C_8 
REMARK    4  A    between atoms: C_8  and  C_9 
REMARK    5  A    between atoms: C_9  and  C_10 
REMARK    6  A    between atoms: C_10  and  C_11 
REMARK    7  A    between atoms: C_11  and  N_12 
REMARK       I    between atoms: N_12  and  C_13 
REMARK    8  A    between atoms: C_13  and  C_14 
REMARK    9  A    between atoms: C_18  and  C_19 
ROOT
HETATM    1  C   UNL     1      44.204 -12.393   6.850  1.00  0.00     0.217 C 
ENDROOT
BRANCH   1   2
HETATM    2  C   UNL     1      43.779 -13.852   6.884  1.00  0.00    -0.085 C 
BRANCH   2   3
HETATM    3  C   UNL     1      43.414 -15.104   6.914  1.00  0.00    -0.078 C 
BRANCH   3   4
HETATM    4  C   UNL     1      42.989 -16.563   6.950  1.00  0.00     0.269 C 
BRANCH   4   5
HETATM    5  O   UNL     1      43.936 -17.366   6.251  1.00  0.00    -0.339 OA
BRANCH   5   6
HETATM    6  C   UNL     1      43.629 -17.646   4.943  1.00  0.00     0.072 A 
HETATM    7  C   UNL     1      42.908 -16.818   4.075  1.00  0.00     0.066 A 
HETATM    8  C   UNL     1      42.666 -17.201   2.751  1.00  0.00     0.037 A 
HETATM    9  C   UNL     1      43.148 -18.437   2.306  1.00  0.00     0.029 A 
HETATM   10  C   UNL     1      43.863 -19.271   3.167  1.00  0.00     0.005 A 
HETATM   11  C   UNL     1      44.104 -18.873   4.480  1.00  0.00     0.037 A 
BRANCH   8  12
HETATM   12  N   UNL     1      41.959 -16.408   1.821  1.00  0.00    -0.327 N 
HETATM   13  C   UNL     1      40.684 -15.885   1.953  1.00  0.00     0.218 C 
HETATM   14  C   UNL     1      40.262 -15.073   0.754  1.00  0.00     0.117 C 
HETATM   15  O   UNL     1      39.937 -16.001   2.919  1.00  0.00    -0.274 OA
HETATM   16  H   UNL     1      42.455 -16.186   0.966  1.00  0.00     0.169 HD
ENDBRANCH   8  12
ENDBRANCH   5   6
ENDBRANCH   4   5
ENDBRANCH   3   4
ENDBRANCH   2   3
ENDBRANCH   1   2
BRANCH   1  17
HETATM   17  N   UNL     1      43.585 -11.698   7.948  1.00  0.00    -0.345 N 
HETATM   18  C   UNL     1      44.336 -10.957   8.822  1.00  0.00     0.270 C 
HETATM   19  O   UNL     1      45.559 -10.891   8.752  1.00  0.00    -0.266 OA
HETATM   20  H   UNL     1      42.578 -11.643   7.971  1.00  0.00     0.163 HD
BRANCH  18  21
HETATM   21  C   UNL     1      43.588 -10.246   9.823  1.00  0.00     0.120 A 
HETATM   22  N   UNL     1      42.313  -9.808   9.586  1.00  0.00    -0.272 N 
HETATM   23  H   UNL     1      41.781  -9.925   8.729  1.00  0.00     0.189 HD
HETATM   24  N   UNL     1      41.745  -9.175  10.625  1.00  0.00    -0.173 NA
HETATM   25  C   UNL     1      42.694  -9.188  11.570  1.00  0.00     0.096 A 
HETATM   26  C   UNL     1      43.865  -9.841  11.115  1.00  0.00     0.071 A 
BRANCH  25  27
HETATM   27  C   UNL     1      42.481  -8.571  12.921  1.00  0.00     0.035 A 
HETATM   28  S   UNL     1      41.259  -9.045  14.019  1.00  0.00    -0.100 SA
HETATM   29  C   UNL     1      41.755  -7.884  15.174  1.00  0.00     0.050 A 
HETATM   30  C   UNL     1      42.832  -7.147  14.733  1.00  0.00     0.008 A 
HETATM   31  C   UNL     1      43.252  -7.546  13.429  1.00  0.00     0.022 A 
ENDBRANCH  25  27
ENDBRANCH  18  21
ENDBRANCH   1  17
TORSDOF 9
ENDMDL
MODEL 3
REMARK VINA RESULT:      -7.8      3.705     11.226
REMARK  9 active torsions:
REMARK  status: ('A' for Active; 'I' for Inactive)
REMARK       I    between atoms: C_2  and  N_3 
REMARK    1  A    between atoms: N_3  and  C_4 
REMARK    2  A    between atoms: C_6  and  O_7 
REMARK    3  A    between atoms: O_7  and  C_8 
REMARK    4  A    between atoms: C_8  and  C_9 
REMARK    5  A    between atoms: C_9  and  C_10 
REMARK    6  A    between atoms: C_10  and  C_11 
REMARK    7  A    between atoms: C_11  and  N_12 
REMARK       I    between atoms: N_12  and  C_13 
REMARK    8  A    between atoms: C_13  and  C_14 
REMARK    9  A    between atoms: C_18  and  C_19 
ROOT
HETATM    1  C   UNL     1      42.247 -12.079   5.847  1.00  0.00     0.217 C 
ENDROOT
BRANCH   1   2
HETATM    2  C   UNL     1      43.555 -11.675   6.507  1.00  0.00    -0.085 C 
BRANCH   2   3
HETATM    3  C   UNL     1      44.678 -11.329   7.073  1.00  0.00    -0.078 C 
BRANCH   3   4
HETATM    4  C   UNL     1      45.987 -10.926   7.733  1.00  0.00     0.269 C 
BRANCH   4   5
HETATM    5  O   UNL     1      45.804 -10.791   9.140  1.00  0.00    -0.339 OA
BRANCH   5   6
HETATM    6  C   UNL     1      44.724 -10.039   9.530  1.00  0.00     0.072 A 
HETATM    7  C   UNL     1      43.607 -10.511  10.231  1.00  0.00     0.066 A 
HETATM    8  C   UNL     1      42.567  -9.647  10.591  1.00  0.00     0.037 A 
HETATM    9  C   UNL     1      42.653  -8.297  10.230  1.00  0.00     0.029 A 
HETATM   10  C   UNL     1      43.759  -7.821   9.526  1.00  0.00     0.005 A 
HETATM   11  C   UNL     1      44.792  -8.690   9.181  1.00  0.00     0.037 A 
BRANCH   8  12
HETATM   12  N   UNL     1      41.421 -10.054  11.310  1.00  0.00    -0.327 N 
HETATM   13  C   UNL     1      41.216  -9.991  12.677  1.00  0.00     0.218 C 
HETATM   14  C   UNL     1      39.858 -10.507  13.085  1.00  0.00     0.117 C 
HETATM   15  O   UNL     1      41.991  -9.550  13.519  1.00  0.00    -0.274 OA
HETATM   16  H   UNL     1      40.659 -10.418  10.752  1.00  0.00     0.169 HD
ENDBRANCH   8  12
ENDBRANCH   5   6
ENDBRANCH   4   5
ENDBRANCH   3   4
ENDBRANCH   2   3
ENDBRANCH   1   2
BRANCH   1  17
HETATM   17  N   UNL     1      42.416 -13.360   5.215  1.00  0.00    -0.345 N 
HETATM   18  C   UNL     1      42.700 -13.451   3.877  1.00  0.00     0.270 C 
HETATM   19  O   UNL     1      42.770 -12.468   3.148  1.00  0.00    -0.266 OA
HETATM   20  H   UNL     1      42.472 -14.179   5.802  1.00  0.00     0.163 HD
BRANCH  18  21
HETATM   21  C   UNL     1      42.927 -14.784   3.387  1.00  0.00     0.120 A 
HETATM   22  N   UNL     1      43.003 -15.050   2.046  1.00  0.00    -0.272 N 
HETATM   23  H   UNL     1      42.910 -14.379   1.289  1.00  0.00     0.189 HD
HETATM   24  N   UNL     1      43.233 -16.339   1.752  1.00  0.00    -0.173 NA
HETATM   25  C   UNL     1      43.294 -16.938   2.948  1.00  0.00     0.096 A 
HETATM   26  C   UNL     1      43.104 -16.010   3.999  1.00  0.00     0.071 A 
BRANCH  25  27
HETATM   27  C   UNL     1      43.538 -18.412   3.089  1.00  0.00     0.035 A 
HETATM   28  S   UNL     1      44.236 -19.150   4.465  1.00  0.00    -0.100 SA
HETATM   29  C   UNL     1      44.125 -20.708   3.767  1.00  0.00     0.050 A 
HETATM   30  C   UNL     1      43.568 -20.669   2.507  1.00  0.00     0.008 A 
HETATM   31  C   UNL     1      43.228 -19.340   2.117  1.00  0.00     0.022 A 
ENDBRANCH  25  27
ENDBRANCH  18  21
ENDBRANCH   1  17
TORSDOF 9
ENDMDL
MODEL 4
REMARK VINA RESULT:      -7.6      1.893      2.241
REMARK  9 active torsions:
REMARK  status: ('A' for Active; 'I' for Inactive)
REMARK       I    between atoms: C_2  and  N_3 
REMARK    1  A    between atoms: N_3  and  C_4 
REMARK    2  A    between atoms: C_6  and  O_7 
REMARK    3  A    between atoms: O_7  and  C_8 
REMARK    4  A    between atoms: C_8  and  C_9 
REMARK    5  A    between atoms: C_9  and  C_10 
REMARK    6  A    between atoms: C_10  and  C_11 
REMARK    7  A    between atoms: C_11  and  N_12 
REMARK       I    between atoms: N_12  and  C_13 
REMARK    8  A    between atoms: C_13  and  C_14 
REMARK    9  A    between atoms: C_18  and  C_19 
ROOT
HETATM    1  C   UNL     1      45.628 -11.376   6.475  1.00  0.00     0.217 C 
ENDROOT
BRANCH   1   2
HETATM    2  C   UNL     1      44.640 -11.423   5.321  1.00  0.00    -0.085 C 
BRANCH   2   3
HETATM    3  C   UNL     1      43.792 -11.463   4.330  1.00  0.00    -0.078 C 
BRANCH   3   4
HETATM    4  C   UNL     1      42.805 -11.509   3.176  1.00  0.00     0.269 C 
BRANCH   4   5
HETATM    5  O   UNL     1      41.856 -12.551   3.384  1.00  0.00    -0.339 OA
BRANCH   5   6
HETATM    6  C   UNL     1      42.329 -13.829   3.221  1.00  0.00     0.072 A 
HETATM    7  C   UNL     1      42.292 -14.846   4.183  1.00  0.00     0.066 A 
HETATM    8  C   UNL     1      42.792 -16.121   3.900  1.00  0.00     0.037 A 
HETATM    9  C   UNL     1      43.345 -16.367   2.638  1.00  0.00     0.029 A 
HETATM   10  C   UNL     1      43.391 -15.357   1.676  1.00  0.00     0.005 A 
HETATM   11  C   UNL     1      42.881 -14.094   1.968  1.00  0.00     0.037 A 
BRANCH   8  12
HETATM   12  N   UNL     1      42.773 -17.194   4.819  1.00  0.00    -0.327 N 
HETATM   13  C   UNL     1      43.748 -17.535   5.740  1.00  0.00     0.218 C 
HETATM   14  C   UNL     1      43.372 -18.740   6.566  1.00  0.00     0.117 C 
HETATM   15  O   UNL     1      44.808 -16.951   5.940  1.00  0.00    -0.274 OA
HETATM   16  H   UNL     1      41.937 -17.766   4.808  1.00  0.00     0.169 HD
ENDBRANCH   8  12
ENDBRANCH   5   6
ENDBRANCH   4   5
ENDBRANCH   3   4
ENDBRANCH   2   3
ENDBRANCH   1   2
BRANCH   1  17
HETATM   17  N   UNL     1      44.913 -11.117   7.696  1.00  0.00    -0.345 N 
HETATM   18  C   UNL     1      45.304 -10.110   8.539  1.00  0.00     0.270 C 
HETATM   19  O   UNL     1      46.298  -9.423   8.331  1.00  0.00    -0.266 OA
HETATM   20  H   UNL     1      44.033 -11.588   7.843  1.00  0.00     0.163 HD
BRANCH  18  21
HETATM   21  C   UNL     1      44.456  -9.902   9.681  1.00  0.00     0.120 A 
HETATM   22  N   UNL     1      43.388 -10.719   9.937  1.00  0.00    -0.272 N 
HETATM   23  H   UNL     1      43.087 -11.516   9.383  1.00  0.00     0.189 HD
HETATM   24  N   UNL     1      42.705 -10.403  11.048  1.00  0.00    -0.173 NA
HETATM   25  C   UNL     1      43.344  -9.327  11.526  1.00  0.00     0.096 A 
HETATM   26  C   UNL     1      44.441  -8.974  10.704  1.00  0.00     0.071 A 
BRANCH  25  27
HETATM   27  C   UNL     1      42.905  -8.631  12.781  1.00  0.00     0.035 A 
HETATM   28  S   UNL     1      41.560  -9.100  13.727  1.00  0.00    -0.100 SA
HETATM   29  C   UNL     1      41.823  -7.832  14.845  1.00  0.00     0.050 A 
HETATM   30  C   UNL     1      42.913  -7.062  14.505  1.00  0.00     0.008 A 
HETATM   31  C   UNL     1      43.540  -7.527  13.310  1.00  0.00     0.022 A 
ENDBRANCH  25  27
ENDBRANCH  18  21
ENDBRANCH   1  17
TORSDOF 9
ENDMDL
MODEL 5
REMARK VINA RESULT:      -7.4      2.815      3.652
REMARK  9 active torsions:
REMARK  status: ('A' for Active; 'I' for Inactive)
REMARK       I    between atoms: C_2  and  N_3 
REMARK    1  A    between atoms: N_3  and  C_4 
REMARK    2  A    between atoms: C_6  and  O_7 
REMARK    3  A    between atoms: O_7  and  C_8 
REMARK    4  A    between atoms: C_8  and  C_9 
REMARK    5  A    between atoms: C_9  and  C_10 
REMARK    6  A    between atoms: C_10  and  C_11 
REMARK    7  A    between atoms: C_11  and  N_12 
REMARK       I    between atoms: N_12  and  C_13 
REMARK    8  A    between atoms: C_13  and  C_14 
REMARK    9  A    between atoms: C_18  and  C_19 
ROOT
HETATM    1  C   UNL     1      45.461 -11.409   6.880  1.00  0.00     0.217 C 
ENDROOT
BRANCH   1   2
HETATM    2  C   UNL     1      44.547 -11.541   5.672  1.00  0.00    -0.085 C 
BRANCH   2   3
HETATM    3  C   UNL     1      43.762 -11.653   4.637  1.00  0.00    -0.078 C 
BRANCH   3   4
HETATM    4  C   UNL     1      42.848 -11.786   3.430  1.00  0.00     0.269 C 
BRANCH   4   5
HETATM    5  O   UNL     1      41.618 -12.396   3.811  1.00  0.00    -0.339 OA
BRANCH   5   6
HETATM    6  C   UNL     1      41.181 -13.413   3.000  1.00  0.00     0.072 A 
HETATM    7  C   UNL     1      41.086 -13.365   1.604  1.00  0.00     0.066 A 
HETATM    8  C   UNL     1      40.639 -14.472   0.876  1.00  0.00     0.037 A 
HETATM    9  C   UNL     1      40.273 -15.634   1.566  1.00  0.00     0.029 A 
HETATM   10  C   UNL     1      40.359 -15.688   2.958  1.00  0.00     0.005 A 
HETATM   11  C   UNL     1      40.815 -14.580   3.670  1.00  0.00     0.037 A 
BRANCH   8  12
HETATM   12  N   UNL     1      40.533 -14.495  -0.533  1.00  0.00    -0.327 N 
HETATM   13  C   UNL     1      39.623 -13.815  -1.322  1.00  0.00     0.218 C 
HETATM   14  C   UNL     1      39.823 -14.074  -2.795  1.00  0.00     0.117 C 
HETATM   15  O   UNL     1      38.746 -13.046  -0.940  1.00  0.00    -0.274 OA
HETATM   16  H   UNL     1      41.217 -15.065  -1.015  1.00  0.00     0.169 HD
ENDBRANCH   8  12
ENDBRANCH   5   6
ENDBRANCH   4   5
ENDBRANCH   3   4
ENDBRANCH   2   3
ENDBRANCH   1   2
BRANCH   1  17
HETATM   17  N   UNL     1      44.671 -11.057   8.030  1.00  0.00    -0.345 N 
HETATM   18  C   UNL     1      45.023 -10.000   8.828  1.00  0.00     0.270 C 
HETATM   19  O   UNL     1      46.042  -9.342   8.641  1.00  0.00    -0.266 OA
HETATM   20  H   UNL     1      43.775 -11.506   8.149  1.00  0.00     0.163 HD
BRANCH  18  21
HETATM   21  C   UNL     1      44.106  -9.703   9.894  1.00  0.00     0.120 A 
HETATM   22  N   UNL     1      42.801 -10.115   9.850  1.00  0.00    -0.272 N 
HETATM   23  H   UNL     1      42.356 -10.641   9.103  1.00  0.00     0.189 HD
HETATM   24  N   UNL     1      42.078  -9.772  10.928  1.00  0.00    -0.173 NA
HETATM   25  C   UNL     1      42.942  -9.098  11.697  1.00  0.00     0.096 A 
HETATM   26  C   UNL     1      44.220  -9.025  11.092  1.00  0.00     0.071 A 
BRANCH  25  27
HETATM   27  C   UNL     1      42.546  -8.520  13.023  1.00  0.00     0.035 A 
HETATM   28  S   UNL     1      41.198  -9.038  13.941  1.00  0.00    -0.100 SA
HETATM   29  C   UNL     1      41.521  -7.900  15.178  1.00  0.00     0.050 A 
HETATM   30  C   UNL     1      42.634  -7.138  14.898  1.00  0.00     0.008 A 
HETATM   31  C   UNL     1      43.227  -7.498  13.652  1.00  0.00     0.022 A 
ENDBRANCH  25  27
ENDBRANCH  18  21
ENDBRANCH   1  17
TORSDOF 9
ENDMDL
MODEL 6
REMARK VINA RESULT:      -7.3      2.133      3.240
REMARK  9 active torsions:
REMARK  status: ('A' for Active; 'I' for Inactive)
REMARK       I    between atoms: C_2  and  N_3 
REMARK    1  A    between atoms: N_3  and  C_4 
REMARK    2  A    between atoms: C_6  and  O_7 
REMARK    3  A    between atoms: O_7  and  C_8 
REMARK    4  A    between atoms: C_8  and  C_9 
REMARK    5  A    between atoms: C_9  and  C_10 
REMARK    6  A    between atoms: C_10  and  C_11 
REMARK    7  A    between atoms: C_11  and  N_12 
REMARK       I    between atoms: N_12  and  C_13 
REMARK    8  A    between atoms: C_13  and  C_14 
REMARK    9  A    between atoms: C_18  and  C_19 
ROOT
HETATM    1  C   UNL     1      44.504 -10.911   7.489  1.00  0.00     0.217 C 
ENDROOT
BRANCH   1   2
HETATM    2  C   UNL     1      44.162 -12.340   7.102  1.00  0.00    -0.085 C 
BRANCH   2   3
HETATM    3  C   UNL     1      43.868 -13.566   6.769  1.00  0.00    -0.078 C 
BRANCH   3   4
HETATM    4  C   UNL     1      43.526 -14.996   6.382  1.00  0.00     0.269 C 
BRANCH   4   5
HETATM    5  O   UNL     1      42.318 -15.022   5.626  1.00  0.00    -0.339 OA
BRANCH   5   6
HETATM    6  C   UNL     1      42.463 -15.239   4.278  1.00  0.00     0.072 A 
HETATM    7  C   UNL     1      42.120 -14.339   3.262  1.00  0.00     0.066 A 
HETATM    8  C   UNL     1      42.327 -14.663   1.917  1.00  0.00     0.037 A 
HETATM    9  C   UNL     1      42.874 -15.911   1.597  1.00  0.00     0.029 A 
HETATM   10  C   UNL     1      43.213 -16.815   2.604  1.00  0.00     0.005 A 
HETATM   11  C   UNL     1      43.009 -16.477   3.940  1.00  0.00     0.037 A 
BRANCH   8  12
HETATM   12  N   UNL     1      42.017 -13.797   0.844  1.00  0.00    -0.327 N 
HETATM   13  C   UNL     1      40.777 -13.285   0.504  1.00  0.00     0.218 C 
HETATM   14  C   UNL     1      40.833 -12.379  -0.701  1.00  0.00     0.117 C 
HETATM   15  O   UNL     1      39.715 -13.477   1.087  1.00  0.00    -0.274 OA
HETATM   16  H   UNL     1      42.801 -13.508   0.272  1.00  0.00     0.169 HD
ENDBRANCH   8  12
ENDBRANCH   5   6
ENDBRANCH   4   5
ENDBRANCH   3   4
ENDBRANCH   2   3
ENDBRANCH   1   2
BRANCH   1  17
HETATM   17  N   UNL     1      43.665 -10.509   8.587  1.00  0.00    -0.345 N 
HETATM   18  C   UNL     1      44.180 -10.365   9.849  1.00  0.00     0.270 C 
HETATM   19  O   UNL     1      45.349 -10.621  10.118  1.00  0.00    -0.266 OA
HETATM   20  H   UNL     1      42.731 -10.188   8.382  1.00  0.00     0.163 HD
BRANCH  18  21
HETATM   21  C   UNL     1      43.257  -9.879  10.838  1.00  0.00     0.120 A 
HETATM   22  N   UNL     1      41.963 -10.325  10.889  1.00  0.00    -0.272 N 
HETATM   23  H   UNL     1      41.532 -11.007  10.271  1.00  0.00     0.189 HD
HETATM   24  N   UNL     1      41.233  -9.786  11.877  1.00  0.00    -0.173 NA
HETATM   25  C   UNL     1      42.079  -8.944  12.484  1.00  0.00     0.096 A 
HETATM   26  C   UNL     1      43.354  -8.963  11.868  1.00  0.00     0.071 A 
BRANCH  25  27
HETATM   27  C   UNL     1      41.669  -8.114  13.664  1.00  0.00     0.035 A 
HETATM   28  S   UNL     1      41.106  -6.502  13.565  1.00  0.00    -0.100 SA
HETATM   29  C   UNL     1      40.907  -6.398  15.261  1.00  0.00     0.050 A 
HETATM   30  C   UNL     1      41.264  -7.568  15.894  1.00  0.00     0.008 A 
HETATM   31  C   UNL     1      41.703  -8.561  14.969  1.00  0.00     0.022 A 
ENDBRANCH  25  27
ENDBRANCH  18  21
ENDBRANCH   1  17
TORSDOF 9
ENDMDL
MODEL 7
REMARK VINA RESULT:      -7.3      4.347     11.370
REMARK  9 active torsions:
REMARK  status: ('A' for Active; 'I' for Inactive)
REMARK       I    between atoms: C_2  and  N_3 
REMARK    1  A    between atoms: N_3  and  C_4 
REMARK    2  A    between atoms: C_6  and  O_7 
REMARK    3  A    between atoms: O_7  and  C_8 
REMARK    4  A    between atoms: C_8  and  C_9 
REMARK    5  A    between atoms: C_9  and  C_10 
REMARK    6  A    between atoms: C_10  and  C_11 
REMARK    7  A    between atoms: C_11  and  N_12 
REMARK       I    between atoms: N_12  and  C_13 
REMARK    8  A    between atoms: C_13  and  C_14 
REMARK    9  A    between atoms: C_18  and  C_19 
ROOT
HETATM    1  C   UNL     1      42.787 -14.766   6.575  1.00  0.00     0.217 C 
ENDROOT
BRANCH   1   2
HETATM    2  C   UNL     1      43.699 -13.550   6.606  1.00  0.00    -0.085 C 
BRANCH   2   3
HETATM    3  C   UNL     1      44.480 -12.506   6.631  1.00  0.00    -0.078 C 
BRANCH   3   4
HETATM    4  C   UNL     1      45.391 -11.290   6.660  1.00  0.00     0.269 C 
BRANCH   4   5
HETATM    5  O   UNL     1      44.657 -10.138   7.063  1.00  0.00    -0.339 OA
BRANCH   5   6
HETATM    6  C   UNL     1      44.406 -10.032   8.408  1.00  0.00     0.072 A 
HETATM    7  C   UNL     1      43.146 -10.108   9.014  1.00  0.00     0.066 A 
HETATM    8  C   UNL     1      43.010 -10.000  10.403  1.00  0.00     0.037 A 
HETATM    9  C   UNL     1      44.155  -9.803  11.182  1.00  0.00     0.029 A 
HETATM   10  C   UNL     1      45.413  -9.720  10.584  1.00  0.00     0.005 A 
HETATM   11  C   UNL     1      45.536  -9.837   9.201  1.00  0.00     0.037 A 
BRANCH   8  12
HETATM   12  N   UNL     1      41.772 -10.082  11.079  1.00  0.00    -0.327 N 
HETATM   13  C   UNL     1      40.928  -9.041  11.423  1.00  0.00     0.218 C 
HETATM   14  C   UNL     1      39.681  -9.514  12.130  1.00  0.00     0.117 C 
HETATM   15  O   UNL     1      41.092  -7.850  11.185  1.00  0.00    -0.274 OA
HETATM   16  H   UNL     1      41.465 -11.016  11.322  1.00  0.00     0.169 HD
ENDBRANCH   8  12
ENDBRANCH   5   6
ENDBRANCH   4   5
ENDBRANCH   3   4
ENDBRANCH   2   3
ENDBRANCH   1   2
BRANCH   1  17
HETATM   17  N   UNL     1      42.257 -14.923   5.247  1.00  0.00    -0.345 N 
HETATM   18  C   UNL     1      41.015 -14.441   4.924  1.00  0.00     0.270 C 
HETATM   19  O   UNL     1      40.279 -13.909   5.748  1.00  0.00    -0.266 OA
HETATM   20  H   UNL     1      42.875 -15.256   4.523  1.00  0.00     0.163 HD
BRANCH  18  21
HETATM   21  C   UNL     1      40.640 -14.588   3.544  1.00  0.00     0.120 A 
HETATM   22  N   UNL     1      39.989 -15.707   3.096  1.00  0.00    -0.272 N 
HETATM   23  H   UNL     1      39.717 -16.513   3.650  1.00  0.00     0.189 HD
HETATM   24  N   UNL     1      39.695 -15.685   1.786  1.00  0.00    -0.173 NA
HETATM   25  C   UNL     1      40.186 -14.514   1.363  1.00  0.00     0.096 A 
HETATM   26  C   UNL     1      40.790 -13.795   2.423  1.00  0.00     0.071 A 
BRANCH  25  27
HETATM   27  C   UNL     1      40.078 -14.074  -0.068  1.00  0.00     0.035 A 
HETATM   28  S   UNL     1      40.689 -12.597  -0.675  1.00  0.00    -0.100 SA
HETATM   29  C   UNL     1      40.140 -12.945  -2.258  1.00  0.00     0.050 A 
HETATM   30  C   UNL     1      39.501 -14.164  -2.325  1.00  0.00     0.008 A 
HETATM   31  C   UNL     1      39.467 -14.817  -1.057  1.00  0.00     0.022 A 
ENDBRANCH  25  27
ENDBRANCH  18  21
ENDBRANCH   1  17
TORSDOF 9
ENDMDL
MODEL 8
REMARK VINA RESULT:      -7.3      2.478      2.678
REMARK  9 active torsions:
REMARK  status: ('A' for Active; 'I' for Inactive)
REMARK       I    between atoms: C_2  and  N_3 
REMARK    1  A    between atoms: N_3  and  C_4 
REMARK    2  A    between atoms: C_6  and  O_7 
REMARK    3  A    between atoms: O_7  and  C_8 
REMARK    4  A    between atoms: C_8  and  C_9 
REMARK    5  A    between atoms: C_9  and  C_10 
REMARK    6  A    between atoms: C_10  and  C_11 
REMARK    7  A    between atoms: C_11  and  N_12 
REMARK       I    between atoms: N_12  and  C_13 
REMARK    8  A    between atoms: C_13  and  C_14 
REMARK    9  A    between atoms: C_18  and  C_19 
ROOT
HETATM    1  C   UNL     1      39.399 -10.249   6.891  1.00  0.00     0.217 C 
ENDROOT
BRANCH   1   2
HETATM    2  C   UNL     1      39.772 -11.629   6.374  1.00  0.00    -0.085 C 
BRANCH   2   3
HETATM    3  C   UNL     1      40.091 -12.813   5.930  1.00  0.00    -0.078 C 
BRANCH   3   4
HETATM    4  C   UNL     1      40.464 -14.193   5.413  1.00  0.00     0.269 C 
BRANCH   4   5
HETATM    5  O   UNL     1      41.880 -14.310   5.307  1.00  0.00    -0.339 OA
BRANCH   5   6
HETATM    6  C   UNL     1      42.345 -14.872   4.144  1.00  0.00     0.072 A 
HETATM    7  C   UNL     1      42.355 -16.240   3.843  1.00  0.00     0.066 A 
HETATM    8  C   UNL     1      42.842 -16.701   2.615  1.00  0.00     0.037 A 
HETATM    9  C   UNL     1      43.333 -15.772   1.690  1.00  0.00     0.029 A 
HETATM   10  C   UNL     1      43.332 -14.408   1.985  1.00  0.00     0.005 A 
HETATM   11  C   UNL     1      42.836 -13.962   3.209  1.00  0.00     0.037 A 
BRANCH   8  12
HETATM   12  N   UNL     1      42.868 -18.063   2.242  1.00  0.00    -0.327 N 
HETATM   13  C   UNL     1      43.688 -19.059   2.740  1.00  0.00     0.218 C 
HETATM   14  C   UNL     1      43.420 -20.403   2.109  1.00  0.00     0.117 C 
HETATM   15  O   UNL     1      44.537 -18.944   3.618  1.00  0.00    -0.274 OA
HETATM   16  H   UNL     1      42.193 -18.338   1.538  1.00  0.00     0.169 HD
ENDBRANCH   8  12
ENDBRANCH   5   6
ENDBRANCH   4   5
ENDBRANCH   3   4
ENDBRANCH   2   3
ENDBRANCH   1   2
BRANCH   1  17
HETATM   17  N   UNL     1      39.786 -10.146   8.273  1.00  0.00    -0.345 N 
HETATM   18  C   UNL     1      40.703  -9.211   8.678  1.00  0.00     0.270 C 
HETATM   19  O   UNL     1      41.275  -8.463   7.893  1.00  0.00    -0.266 OA
HETATM   20  H   UNL     1      39.260 -10.669   8.957  1.00  0.00     0.163 HD
BRANCH  18  21
HETATM   21  C   UNL     1      40.939  -9.157  10.096  1.00  0.00     0.120 A 
HETATM   22  N   UNL     1      41.709 -10.096  10.729  1.00  0.00    -0.272 N 
HETATM   23  H   UNL     1      42.171 -10.891  10.298  1.00  0.00     0.189 HD
HETATM   24  N   UNL     1      41.846  -9.897  12.049  1.00  0.00    -0.173 NA
HETATM   25  C   UNL     1      41.124  -8.795  12.288  1.00  0.00     0.096 A 
HETATM   26  C   UNL     1      40.535  -8.298  11.100  1.00  0.00     0.071 A 
BRANCH  25  27
HETATM   27  C   UNL     1      40.997  -8.207  13.662  1.00  0.00     0.035 A 
HETATM   28  S   UNL     1      39.950  -6.918  14.070  1.00  0.00    -0.100 SA
HETATM   29  C   UNL     1      40.455  -6.940  15.705  1.00  0.00     0.050 A 
HETATM   30  C   UNL     1      41.404  -7.910  15.938  1.00  0.00     0.008 A 
HETATM   31  C   UNL     1      41.716  -8.644  14.755  1.00  0.00     0.022 A 
ENDBRANCH  25  27
ENDBRANCH  18  21
ENDBRANCH   1  17
TORSDOF 9
ENDMDL
MODEL 9
REMARK VINA RESULT:      -7.2      2.036      2.196
REMARK  9 active torsions:
REMARK  status: ('A' for Active; 'I' for Inactive)
REMARK       I    between atoms: C_2  and  N_3 
REMARK    1  A    between atoms: N_3  and  C_4 
REMARK    2  A    between atoms: C_6  and  O_7 
REMARK    3  A    between atoms: O_7  and  C_8 
REMARK    4  A    between atoms: C_8  and  C_9 
REMARK    5  A    between atoms: C_9  and  C_10 
REMARK    6  A    between atoms: C_10  and  C_11 
REMARK    7  A    between atoms: C_11  and  N_12 
REMARK       I    between atoms: N_12  and  C_13 
REMARK    8  A    between atoms: C_13  and  C_14 
REMARK    9  A    between atoms: C_18  and  C_19 
ROOT
HETATM    1  C   UNL     1      44.758 -10.762   8.366  1.00  0.00     0.217 C 
ENDROOT
BRANCH   1   2
HETATM    2  C   UNL     1      43.911 -11.536   7.370  1.00  0.00    -0.085 C 
BRANCH   2   3
HETATM    3  C   UNL     1      43.185 -12.201   6.515  1.00  0.00    -0.078 C 
BRANCH   3   4
HETATM    4  C   UNL     1      42.339 -12.976   5.518  1.00  0.00     0.269 C 
BRANCH   4   5
HETATM    5  O   UNL     1      42.735 -14.345   5.500  1.00  0.00    -0.339 OA
BRANCH   5   6
HETATM    6  C   UNL     1      42.904 -14.899   4.255  1.00  0.00     0.072 A 
HETATM    7  C   UNL     1      42.907 -16.268   3.962  1.00  0.00     0.066 A 
HETATM    8  C   UNL     1      43.075 -16.721   2.649  1.00  0.00     0.037 A 
HETATM    9  C   UNL     1      43.253 -15.782   1.627  1.00  0.00     0.029 A 
HETATM   10  C   UNL     1      43.257 -14.416   1.912  1.00  0.00     0.005 A 
HETATM   11  C   UNL     1      43.081 -13.978   3.223  1.00  0.00     0.037 A 
BRANCH   8  12
HETATM   12  N   UNL     1      43.074 -18.085   2.283  1.00  0.00    -0.327 N 
HETATM   13  C   UNL     1      43.816 -19.110   2.842  1.00  0.00     0.218 C 
HETATM   14  C   UNL     1      43.541 -20.446   2.197  1.00  0.00     0.117 C 
HETATM   15  O   UNL     1      44.603 -19.024   3.779  1.00  0.00    -0.274 OA
HETATM   16  H   UNL     1      42.441 -18.338   1.533  1.00  0.00     0.169 HD
ENDBRANCH   8  12
ENDBRANCH   5   6
ENDBRANCH   4   5
ENDBRANCH   3   4
ENDBRANCH   2   3
ENDBRANCH   1   2
BRANCH   1  17
HETATM   17  N   UNL     1      43.900  -9.930   9.166  1.00  0.00    -0.345 N 
HETATM   18  C   UNL     1      43.544 -10.302  10.436  1.00  0.00     0.270 C 
HETATM   19  O   UNL     1      43.885 -11.371  10.931  1.00  0.00    -0.266 OA
HETATM   20  H   UNL     1      43.690  -9.000   8.833  1.00  0.00     0.163 HD
BRANCH  18  21
HETATM   21  C   UNL     1      42.751  -9.344  11.158  1.00  0.00     0.120 A 
HETATM   22  N   UNL     1      43.332  -8.348  11.897  1.00  0.00    -0.272 N 
HETATM   23  H   UNL     1      44.327  -8.184  12.017  1.00  0.00     0.189 HD
HETATM   24  N   UNL     1      42.457  -7.527  12.498  1.00  0.00    -0.173 NA
HETATM   25  C   UNL     1      41.260  -8.015  12.148  1.00  0.00     0.096 A 
HETATM   26  C   UNL     1      41.392  -9.153  11.316  1.00  0.00     0.071 A 
BRANCH  25  27
HETATM   27  C   UNL     1      39.977  -7.390  12.612  1.00  0.00     0.035 A 
HETATM   28  S   UNL     1      38.627  -7.092  11.605  1.00  0.00    -0.100 SA
HETATM   29  C   UNL     1      37.731  -6.418  12.897  1.00  0.00     0.050 A 
HETATM   30  C   UNL     1      38.445  -6.418  14.075  1.00  0.00     0.008 A 
HETATM   31  C   UNL     1      39.745  -6.982  13.909  1.00  0.00     0.022 A 
ENDBRANCH  25  27
ENDBRANCH  18  21
ENDBRANCH   1  17
TORSDOF 9
ENDMDL
MODEL 10
REMARK VINA RESULT:      -7.2      2.761      3.499
REMARK  9 active torsions:
REMARK  status: ('A' for Active; 'I' for Inactive)
REMARK       I    between atoms: C_2  and  N_3 
REMARK    1  A    between atoms: N_3  and  C_4 
REMARK    2  A    between atoms: C_6  and  O_7 
REMARK    3  A    between atoms: O_7  and  C_8 
REMARK    4  A    between atoms: C_8  and  C_9 
REMARK    5  A    between atoms: C_9  and  C_10 
REMARK    6  A    between atoms: C_10  and  C_11 
REMARK    7  A    between atoms: C_11  and  N_12 
REMARK       I    between atoms: N_12  and  C_13 
REMARK    8  A    between atoms: C_13  and  C_14 
REMARK    9  A    between atoms: C_18  and  C_19 
ROOT
HETATM    1  C   UNL     1      44.419 -11.554   6.985  1.00  0.00     0.217 C 
ENDROOT
BRANCH   1   2
HETATM    2  C   UNL     1      43.835 -12.899   6.586  1.00  0.00    -0.085 C 
BRANCH   2   3
HETATM    3  C   UNL     1      43.333 -14.053   6.244  1.00  0.00    -0.078 C 
BRANCH   3   4
HETATM    4  C   UNL     1      42.750 -15.399   5.845  1.00  0.00     0.269 C 
BRANCH   4   5
HETATM    5  O   UNL     1      41.327 -15.354   5.909  1.00  0.00    -0.339 OA
BRANCH   5   6
HETATM    6  C   UNL     1      40.709 -14.620   4.927  1.00  0.00     0.072 A 
HETATM    7  C   UNL     1      40.557 -15.006   3.589  1.00  0.00     0.066 A 
HETATM    8  C   UNL     1      39.894 -14.181   2.675  1.00  0.00     0.037 A 
HETATM    9  C   UNL     1      39.392 -12.950   3.114  1.00  0.00     0.029 A 
HETATM   10  C   UNL     1      39.545 -12.556   4.444  1.00  0.00     0.005 A 
HETATM   11  C   UNL     1      40.200 -13.391   5.346  1.00  0.00     0.037 A 
BRANCH   8  12
HETATM   12  N   UNL     1      39.694 -14.515   1.317  1.00  0.00    -0.327 N 
HETATM   13  C   UNL     1      40.097 -13.800   0.203  1.00  0.00     0.218 C 
HETATM   14  C   UNL     1      39.716 -14.476  -1.091  1.00  0.00     0.117 C 
HETATM   15  O   UNL     1      40.724 -12.746   0.191  1.00  0.00    -0.274 OA
HETATM   16  H   UNL     1      39.212 -15.390   1.147  1.00  0.00     0.169 HD
ENDBRANCH   8  12
ENDBRANCH   5   6
ENDBRANCH   4   5
ENDBRANCH   3   4
ENDBRANCH   2   3
ENDBRANCH   1   2
BRANCH   1  17
HETATM   17  N   UNL     1      43.696 -11.046   8.121  1.00  0.00    -0.345 N 
HETATM   18  C   UNL     1      44.356 -10.654   9.256  1.00  0.00     0.270 C 
HETATM   19  O   UNL     1      45.570 -10.763   9.385  1.00  0.00    -0.266 OA
HETATM   20  H   UNL     1      42.714 -10.843   8.010  1.00  0.00     0.163 HD
BRANCH  18  21
HETATM   21  C   UNL     1      43.525 -10.088  10.285  1.00  0.00     0.120 A 
HETATM   22  N   UNL     1      42.165 -10.020  10.148  1.00  0.00    -0.272 N 
HETATM   23  H   UNL     1      41.618 -10.338   9.352  1.00  0.00     0.189 HD
HETATM   24  N   UNL     1      41.531  -9.480  11.201  1.00  0.00    -0.173 NA
HETATM   25  C   UNL     1      42.519  -9.170  12.050  1.00  0.00     0.096 A 
HETATM   26  C   UNL     1      43.783  -9.526  11.520  1.00  0.00     0.071 A 
BRANCH  25  27
HETATM   27  C   UNL     1      42.256  -8.529  13.380  1.00  0.00     0.035 A 
HETATM   28  S   UNL     1      43.099  -7.168  13.982  1.00  0.00    -0.100 SA
HETATM   29  C   UNL     1      42.190  -7.166  15.432  1.00  0.00     0.050 A 
HETATM   30  C   UNL     1      41.262  -8.183  15.460  1.00  0.00     0.008 A 
HETATM   31  C   UNL     1      41.300  -8.971  14.271  1.00  0.00     0.022 A 
ENDBRANCH  25  27
ENDBRANCH  18  21
ENDBRANCH   1  17
TORSDOF 9
ENDMDL
