MODEL 1
REMARK VINA RESULT:      -8.1      0.000      0.000
REMARK  6 active torsions:
REMARK  status: ('A' for Active; 'I' for Inactive)
REMARK    1  A    between atoms: C_4  and  C_5 
REMARK    2  A    between atoms: C_5  and  C_6 
REMARK    3  A    between atoms: C_6  and  N_7 
REMARK       I    between atoms: N_7  and  C_8 
REMARK    4  A    between atoms: C_8  and  C_9 
REMARK    5  A    between atoms: C_12  and  N_13 
REMARK       I    between atoms: N_13  and  C_14 
REMARK       I    between atoms: C_14  and  N_15 
REMARK    6  A    between atoms: N_15  and  C_16 
ROOT
HETATM    1  C   UNL     1      43.851 -12.467   5.449  1.00  0.00     0.032 A 
HETATM    2  C   UNL     1      43.246 -13.723   5.333  1.00  0.00     0.019 A 
HETATM    3  C   UNL     1      42.728 -14.145   4.102  1.00  0.00     0.030 A 
HETATM    4  C   UNL     1      42.814 -13.329   2.973  1.00  0.00     0.036 A 
HETATM    5  C   UNL     1      43.443 -12.082   3.088  1.00  0.00     0.030 A 
HETATM    6  C   UNL     1      43.962 -11.656   4.316  1.00  0.00     0.019 A 
ENDROOT
BRANCH   1   7
HETATM    7  C   UNL     1      44.399 -11.964   6.740  1.00  0.00     0.251 C 
HETATM    8  N   UNL     1      45.438 -11.059   6.656  1.00  0.00    -0.357 N 
HETATM    9  H   UNL     1      45.943 -10.998   5.780  1.00  0.00     0.162 HD
HETATM   10  O   UNL     1      43.951 -12.383   7.803  1.00  0.00    -0.268 OA
BRANCH   8  11
HETATM   11  C   UNL     1      46.158 -10.648   7.849  1.00  0.00     0.127 C 
BRANCH  11  12
HETATM   12  C   UNL     1      46.044  -9.145   8.117  1.00  0.00     0.058 C 
BRANCH  12  13
HETATM   13  C   UNL     1      45.005  -8.781   9.154  1.00  0.00    -0.057 A 
HETATM   14  C   UNL     1      44.924  -9.497  10.357  1.00  0.00     0.007 A 
HETATM   15  C   UNL     1      43.973  -9.159  11.321  1.00  0.00     0.001 A 
HETATM   16  C   UNL     1      43.094  -8.103  11.094  1.00  0.00     0.000 A 
HETATM   17  C   UNL     1      43.167  -7.381   9.905  1.00  0.00     0.001 A 
HETATM   18  C   UNL     1      44.120  -7.714   8.942  1.00  0.00     0.007 A 
ENDBRANCH  12  13
ENDBRANCH  11  12
ENDBRANCH   8  11
ENDBRANCH   1   7
BRANCH   4  19
HETATM   19  N   UNL     1      42.285 -13.668   1.710  1.00  0.00    -0.309 N 
HETATM   20  C   UNL     1      40.985 -13.487   1.261  1.00  0.00     0.325 C 
HETATM   21  N   UNL     1      40.882 -13.803  -0.085  1.00  0.00    -0.306 N 
HETATM   22  O   UNL     1      40.050 -13.090   1.945  1.00  0.00    -0.247 OA
HETATM   23  H   UNL     1      41.714 -14.043  -0.600  1.00  0.00     0.171 HD
HETATM   24  H   UNL     1      42.915 -14.138   1.079  1.00  0.00     0.170 HD
BRANCH  21  25
HETATM   25  C   UNL     1      39.713 -13.705  -0.816  1.00  0.00     0.072 A 
HETATM   26  C   UNL     1      38.837 -12.620  -1.048  1.00  0.00     0.169 A 
HETATM   27  N   UNL     1      37.807 -12.957  -1.832  1.00  0.00    -0.185 NA
HETATM   28  N   UNL     1      38.026 -14.253  -2.101  1.00  0.00    -0.287 N 
HETATM   29  H   UNL     1      37.363 -14.735  -2.699  1.00  0.00     0.188 HD
HETATM   30  C   UNL     1      39.153 -14.750  -1.512  1.00  0.00     0.140 A 
ENDBRANCH  21  25
ENDBRANCH   4  19
TORSDOF 6
ENDMDL
MODEL 2
REMARK VINA RESULT:      -8.0      5.705      7.671
REMARK  6 active torsions:
REMARK  status: ('A' for Active; 'I' for Inactive)
REMARK    1  A    between atoms: C_4  and  C_5 
REMARK    2  A    between atoms: C_5  and  C_6 
REMARK    3  A    between atoms: C_6  and  N_7 
REMARK       I    between atoms: N_7  and  C_8 
REMARK    4  A    between atoms: C_8  and  C_9 
REMARK    5  A    between atoms: C_12  and  N_13 
REMARK       I    between atoms: N_13  and  C_14 
REMARK       I    between atoms: C_14  and  N_15 
REMARK    6  A    between atoms: N_15  and  C_16 
ROOT
HETATM    1  C   UNL     1      40.631 -15.214   3.444  1.00  0.00     0.032 A 
HETATM    2  C   UNL     1      40.093 -13.924   3.500  1.00  0.00     0.019 A 
HETATM    3  C   UNL     1      39.637 -13.299   2.332  1.00  0.00     0.030 A 
HETATM    4  C   UNL     1      39.702 -13.952   1.100  1.00  0.00     0.036 A 
HETATM    5  C   UNL     1      40.220 -15.254   1.053  1.00  0.00     0.030 A 
HETATM    6  C   UNL     1      40.676 -15.882   2.217  1.00  0.00     0.019 A 
ENDROOT
BRANCH   1   7
HETATM    7  C   UNL     1      41.148 -15.913   4.654  1.00  0.00     0.251 C 
HETATM    8  N   UNL     1      42.509 -15.841   4.872  1.00  0.00    -0.357 N 
HETATM    9  H   UNL     1      43.100 -15.575   4.092  1.00  0.00     0.162 HD
HETATM   10  O   UNL     1      40.380 -16.542   5.376  1.00  0.00    -0.268 OA
BRANCH   8  11
HETATM   11  C   UNL     1      43.134 -16.634   5.916  1.00  0.00     0.127 C 
BRANCH  11  12
HETATM   12  C   UNL     1      44.369 -17.390   5.422  1.00  0.00     0.058 C 
BRANCH  12  13
HETATM   13  C   UNL     1      44.064 -18.485   4.424  1.00  0.00    -0.057 A 
HETATM   14  C   UNL     1      43.675 -18.162   3.116  1.00  0.00     0.007 A 
HETATM   15  C   UNL     1      43.401 -19.169   2.189  1.00  0.00     0.001 A 
HETATM   16  C   UNL     1      43.514 -20.508   2.558  1.00  0.00     0.000 A 
HETATM   17  C   UNL     1      43.903 -20.841   3.854  1.00  0.00     0.001 A 
HETATM   18  C   UNL     1      44.182 -19.836   4.781  1.00  0.00     0.007 A 
ENDBRANCH  12  13
ENDBRANCH  11  12
ENDBRANCH   8  11
ENDBRANCH   1   7
BRANCH   4  19
HETATM   19  N   UNL     1      39.298 -13.376  -0.122  1.00  0.00    -0.309 N 
HETATM   20  C   UNL     1      39.802 -12.235  -0.728  1.00  0.00     0.325 C 
HETATM   21  N   UNL     1      39.258 -12.068  -1.993  1.00  0.00    -0.306 N 
HETATM   22  O   UNL     1      40.626 -11.477  -0.231  1.00  0.00    -0.247 OA
HETATM   23  H   UNL     1      38.650 -12.780  -2.365  1.00  0.00     0.171 HD
HETATM   24  H   UNL     1      38.520 -13.822  -0.584  1.00  0.00     0.170 HD
BRANCH  21  25
HETATM   25  C   UNL     1      39.583 -11.029  -2.844  1.00  0.00     0.072 A 
HETATM   26  C   UNL     1      40.813 -10.631  -3.416  1.00  0.00     0.169 A 
HETATM   27  N   UNL     1      40.683  -9.557  -4.202  1.00  0.00    -0.185 NA
HETATM   28  N   UNL     1      39.375  -9.270  -4.133  1.00  0.00    -0.287 N 
HETATM   29  H   UNL     1      39.030  -8.479  -4.665  1.00  0.00     0.188 HD
HETATM   30  C   UNL     1      38.672 -10.121  -3.328  1.00  0.00     0.140 A 
ENDBRANCH  21  25
ENDBRANCH   4  19
TORSDOF 6
ENDMDL
MODEL 3
REMARK VINA RESULT:      -7.9      3.771     10.239
REMARK  6 active torsions:
REMARK  status: ('A' for Active; 'I' for Inactive)
REMARK    1  A    between atoms: C_4  and  C_5 
REMARK    2  A    between atoms: C_5  and  C_6 
REMARK    3  A    between atoms: C_6  and  N_7 
REMARK       I    between atoms: N_7  and  C_8 
REMARK    4  A    between atoms: C_8  and  C_9 
REMARK    5  A    between atoms: C_12  and  N_13 
REMARK       I    between atoms: N_13  and  C_14 
REMARK       I    between atoms: C_14  and  N_15 
REMARK    6  A    between atoms: N_15  and  C_16 
ROOT
HETATM    1  C   UNL     1      43.127 -13.335   4.369  1.00  0.00     0.032 A 
HETATM    2  C   UNL     1      43.564 -12.020   4.180  1.00  0.00     0.019 A 
HETATM    3  C   UNL     1      43.948 -11.238   5.277  1.00  0.00     0.030 A 
HETATM    4  C   UNL     1      43.910 -11.758   6.572  1.00  0.00     0.036 A 
HETATM    5  C   UNL     1      43.495 -13.084   6.755  1.00  0.00     0.030 A 
HETATM    6  C   UNL     1      43.111 -13.868   5.661  1.00  0.00     0.019 A 
ENDROOT
BRANCH   1   7
HETATM    7  C   UNL     1      42.690 -14.199   3.237  1.00  0.00     0.251 C 
HETATM    8  N   UNL     1      42.266 -15.472   3.564  1.00  0.00    -0.357 N 
HETATM    9  H   UNL     1      42.527 -15.839   4.471  1.00  0.00     0.162 HD
HETATM   10  O   UNL     1      42.751 -13.782   2.086  1.00  0.00    -0.268 OA
BRANCH   8  11
HETATM   11  C   UNL     1      41.991 -16.448   2.524  1.00  0.00     0.127 C 
BRANCH  11  12
HETATM   12  C   UNL     1      43.247 -17.200   2.077  1.00  0.00     0.058 C 
BRANCH  12  13
HETATM   13  C   UNL     1      43.542 -18.444   2.884  1.00  0.00    -0.057 A 
HETATM   14  C   UNL     1      43.905 -18.342   4.235  1.00  0.00     0.007 A 
HETATM   15  C   UNL     1      44.169 -19.489   4.987  1.00  0.00     0.001 A 
HETATM   16  C   UNL     1      44.073 -20.747   4.399  1.00  0.00     0.000 A 
HETATM   17  C   UNL     1      43.708 -20.862   3.058  1.00  0.00     0.001 A 
HETATM   18  C   UNL     1      43.440 -19.718   2.306  1.00  0.00     0.007 A 
ENDBRANCH  12  13
ENDBRANCH  11  12
ENDBRANCH   8  11
ENDBRANCH   1   7
BRANCH   4  19
HETATM   19  N   UNL     1      44.245 -11.024   7.729  1.00  0.00    -0.309 N 
HETATM   20  C   UNL     1      43.432 -10.161   8.448  1.00  0.00     0.325 C 
HETATM   21  N   UNL     1      44.065  -9.743   9.610  1.00  0.00    -0.306 N 
HETATM   22  O   UNL     1      42.302  -9.818   8.122  1.00  0.00    -0.247 OA
HETATM   23  H   UNL     1      44.961 -10.135   9.851  1.00  0.00     0.171 HD
HETATM   24  H   UNL     1      45.202 -11.101   8.039  1.00  0.00     0.170 HD
BRANCH  21  25
HETATM   25  C   UNL     1      43.495  -8.893  10.538  1.00  0.00     0.072 A 
HETATM   26  C   UNL     1      43.147  -7.524  10.471  1.00  0.00     0.169 A 
HETATM   27  N   UNL     1      42.604  -7.082  11.610  1.00  0.00    -0.185 NA
HETATM   28  N   UNL     1      42.603  -8.165  12.402  1.00  0.00    -0.287 N 
HETATM   29  H   UNL     1      42.224  -8.072  13.338  1.00  0.00     0.188 HD
HETATM   30  C   UNL     1      43.131  -9.275  11.807  1.00  0.00     0.140 A 
ENDBRANCH  21  25
ENDBRANCH   4  19
TORSDOF 6
ENDMDL
MODEL 4
REMARK VINA RESULT:      -7.9      3.909     10.186
REMARK  6 active torsions:
REMARK  status: ('A' for Active; 'I' for Inactive)
REMARK    1  A    between atoms: C_4  and  C_5 
REMARK    2  A    between atoms: C_5  and  C_6 
REMARK    3  A    between atoms: C_6  and  N_7 
REMARK       I    between atoms: N_7  and  C_8 
REMARK    4  A    between atoms: C_8  and  C_9 
REMARK    5  A    between atoms: C_12  and  N_13 
REMARK       I    between atoms: N_13  and  C_14 
REMARK       I    between atoms: C_14  and  N_15 
REMARK    6  A    between atoms: N_15  and  C_16 
ROOT
HETATM    1  C   UNL     1      42.794 -13.738   5.323  1.00  0.00     0.032 A 
HETATM    2  C   UNL     1      42.431 -12.492   4.802  1.00  0.00     0.019 A 
HETATM    3  C   UNL     1      42.794 -11.315   5.470  1.00  0.00     0.030 A 
HETATM    4  C   UNL     1      43.528 -11.365   6.657  1.00  0.00     0.036 A 
HETATM    5  C   UNL     1      43.910 -12.615   7.162  1.00  0.00     0.030 A 
HETATM    6  C   UNL     1      43.549 -13.792   6.498  1.00  0.00     0.019 A 
ENDROOT
BRANCH   1   7
HETATM    7  C   UNL     1      42.415 -15.018   4.661  1.00  0.00     0.251 C 
HETATM    8  N   UNL     1      42.688 -15.116   3.311  1.00  0.00    -0.357 N 
HETATM    9  H   UNL     1      42.859 -14.258   2.799  1.00  0.00     0.162 HD
HETATM   10  O   UNL     1      41.858 -15.901   5.304  1.00  0.00    -0.268 OA
BRANCH   8  11
HETATM   11  C   UNL     1      42.197 -16.244   2.539  1.00  0.00     0.127 C 
BRANCH  11  12
HETATM   12  C   UNL     1      43.328 -17.115   1.986  1.00  0.00     0.058 C 
BRANCH  12  13
HETATM   13  C   UNL     1      43.582 -18.375   2.782  1.00  0.00    -0.057 A 
HETATM   14  C   UNL     1      43.427 -19.634   2.184  1.00  0.00     0.007 A 
HETATM   15  C   UNL     1      43.669 -20.800   2.913  1.00  0.00     0.001 A 
HETATM   16  C   UNL     1      44.067 -20.720   4.245  1.00  0.00     0.000 A 
HETATM   17  C   UNL     1      44.228 -19.475   4.850  1.00  0.00     0.001 A 
HETATM   18  C   UNL     1      43.991 -18.309   4.122  1.00  0.00     0.007 A 
ENDBRANCH  12  13
ENDBRANCH  11  12
ENDBRANCH   8  11
ENDBRANCH   1   7
BRANCH   4  19
HETATM   19  N   UNL     1      43.898 -10.228   7.405  1.00  0.00    -0.309 N 
HETATM   20  C   UNL     1      43.087  -9.445   8.213  1.00  0.00     0.325 C 
HETATM   21  N   UNL     1      43.839  -8.508   8.905  1.00  0.00    -0.306 N 
HETATM   22  O   UNL     1      41.873  -9.565   8.323  1.00  0.00    -0.247 OA
HETATM   23  H   UNL     1      44.844  -8.527   8.826  1.00  0.00     0.171 HD
HETATM   24  H   UNL     1      44.854  -9.924   7.302  1.00  0.00     0.170 HD
BRANCH  21  25
HETATM   25  C   UNL     1      43.310  -7.599   9.801  1.00  0.00     0.072 A 
HETATM   26  C   UNL     1      42.924  -7.728  11.155  1.00  0.00     0.169 A 
HETATM   27  N   UNL     1      42.458  -6.581  11.661  1.00  0.00    -0.185 NA
HETATM   28  N   UNL     1      42.547  -5.723  10.634  1.00  0.00    -0.287 N 
HETATM   29  H   UNL     1      42.248  -4.765  10.786  1.00  0.00     0.188 HD
HETATM   30  C   UNL     1      43.047  -6.285   9.495  1.00  0.00     0.140 A 
ENDBRANCH  21  25
ENDBRANCH   4  19
TORSDOF 6
ENDMDL
MODEL 5
REMARK VINA RESULT:      -7.8      6.200     10.338
REMARK  6 active torsions:
REMARK  status: ('A' for Active; 'I' for Inactive)
REMARK    1  A    between atoms: C_4  and  C_5 
REMARK    2  A    between atoms: C_5  and  C_6 
REMARK    3  A    between atoms: C_6  and  N_7 
REMARK       I    between atoms: N_7  and  C_8 
REMARK    4  A    between atoms: C_8  and  C_9 
REMARK    5  A    between atoms: C_12  and  N_13 
REMARK       I    between atoms: N_13  and  C_14 
REMARK       I    between atoms: C_14  and  N_15 
REMARK    6  A    between atoms: N_15  and  C_16 
ROOT
HETATM    1  C   UNL     1      42.037  -8.178  14.044  1.00  0.00     0.032 A 
HETATM    2  C   UNL     1      43.174  -7.858  13.294  1.00  0.00     0.019 A 
HETATM    3  C   UNL     1      43.527  -8.632  12.181  1.00  0.00     0.030 A 
HETATM    4  C   UNL     1      42.749  -9.726  11.796  1.00  0.00     0.036 A 
HETATM    5  C   UNL     1      41.597 -10.028  12.535  1.00  0.00     0.030 A 
HETATM    6  C   UNL     1      41.242  -9.258  13.648  1.00  0.00     0.019 A 
ENDROOT
BRANCH   1   7
HETATM    7  C   UNL     1      41.632  -7.399  15.246  1.00  0.00     0.251 C 
HETATM    8  N   UNL     1      41.168  -8.127  16.323  1.00  0.00    -0.357 N 
HETATM    9  H   UNL     1      40.870  -9.081  16.156  1.00  0.00     0.162 HD
HETATM   10  O   UNL     1      41.686  -6.173  15.232  1.00  0.00    -0.268 OA
BRANCH   8  11
HETATM   11  C   UNL     1      40.581  -7.457  17.471  1.00  0.00     0.127 C 
BRANCH  11  12
HETATM   12  C   UNL     1      41.583  -7.257  18.611  1.00  0.00     0.058 C 
BRANCH  12  13
HETATM   13  C   UNL     1      41.560  -8.354  19.652  1.00  0.00    -0.057 A 
HETATM   14  C   UNL     1      40.367  -9.034  19.937  1.00  0.00     0.007 A 
HETATM   15  C   UNL     1      40.343 -10.054  20.891  1.00  0.00     0.001 A 
HETATM   16  C   UNL     1      41.509 -10.404  21.568  1.00  0.00     0.000 A 
HETATM   17  C   UNL     1      42.701  -9.739  21.290  1.00  0.00     0.001 A 
HETATM   18  C   UNL     1      42.728  -8.722  20.334  1.00  0.00     0.007 A 
ENDBRANCH  12  13
ENDBRANCH  11  12
ENDBRANCH   8  11
ENDBRANCH   1   7
BRANCH   4  19
HETATM   19  N   UNL     1      43.058 -10.573  10.712  1.00  0.00    -0.309 N 
HETATM   20  C   UNL     1      43.549 -10.209   9.466  1.00  0.00     0.325 C 
HETATM   21  N   UNL     1      43.873 -11.330   8.718  1.00  0.00    -0.306 N 
HETATM   22  O   UNL     1      43.695  -9.058   9.074  1.00  0.00    -0.247 OA
HETATM   23  H   UNL     1      43.803 -12.242   9.142  1.00  0.00     0.171 HD
HETATM   24  H   UNL     1      42.855 -11.552  10.844  1.00  0.00     0.170 HD
BRANCH  21  25
HETATM   25  C   UNL     1      44.401 -11.283   7.442  1.00  0.00     0.072 A 
HETATM   26  C   UNL     1      43.788 -11.313   6.169  1.00  0.00     0.169 A 
HETATM   27  N   UNL     1      44.679 -11.237   5.174  1.00  0.00    -0.185 NA
HETATM   28  N   UNL     1      45.857 -11.156   5.811  1.00  0.00    -0.287 N 
HETATM   29  H   UNL     1      46.699 -11.082   5.250  1.00  0.00     0.188 HD
HETATM   30  C   UNL     1      45.745 -11.185   7.171  1.00  0.00     0.140 A 
ENDBRANCH  21  25
ENDBRANCH   4  19
TORSDOF 6
ENDMDL
MODEL 6
REMARK VINA RESULT:      -7.7      4.974      7.273
REMARK  6 active torsions:
REMARK  status: ('A' for Active; 'I' for Inactive)
REMARK    1  A    between atoms: C_4  and  C_5 
REMARK    2  A    between atoms: C_5  and  C_6 
REMARK    3  A    between atoms: C_6  and  N_7 
REMARK       I    between atoms: N_7  and  C_8 
REMARK    4  A    between atoms: C_8  and  C_9 
REMARK    5  A    between atoms: C_12  and  N_13 
REMARK       I    between atoms: N_13  and  C_14 
REMARK       I    between atoms: C_14  and  N_15 
REMARK    6  A    between atoms: N_15  and  C_16 
ROOT
HETATM    1  C   UNL     1      41.320 -14.613   4.838  1.00  0.00     0.032 A 
HETATM    2  C   UNL     1      40.707 -13.391   5.138  1.00  0.00     0.019 A 
HETATM    3  C   UNL     1      39.816 -12.807   4.229  1.00  0.00     0.030 A 
HETATM    4  C   UNL     1      39.517 -13.435   3.018  1.00  0.00     0.036 A 
HETATM    5  C   UNL     1      40.113 -14.671   2.733  1.00  0.00     0.030 A 
HETATM    6  C   UNL     1      41.004 -15.257   3.639  1.00  0.00     0.019 A 
ENDROOT
BRANCH   1   7
HETATM    7  C   UNL     1      42.290 -15.264   5.762  1.00  0.00     0.251 C 
HETATM    8  N   UNL     1      43.400 -15.842   5.181  1.00  0.00    -0.357 N 
HETATM    9  H   UNL     1      43.365 -16.039   4.187  1.00  0.00     0.162 HD
HETATM   10  O   UNL     1      42.063 -15.298   6.967  1.00  0.00    -0.268 OA
BRANCH   8  11
HETATM   11  C   UNL     1      44.309 -16.655   5.970  1.00  0.00     0.127 C 
BRANCH  11  12
HETATM   12  C   UNL     1      43.809 -18.090   6.152  1.00  0.00     0.058 C 
BRANCH  12  13
HETATM   13  C   UNL     1      43.795 -18.905   4.878  1.00  0.00    -0.057 A 
HETATM   14  C   UNL     1      43.976 -20.294   4.924  1.00  0.00     0.007 A 
HETATM   15  C   UNL     1      43.955 -21.052   3.752  1.00  0.00     0.001 A 
HETATM   16  C   UNL     1      43.752 -20.430   2.523  1.00  0.00     0.000 A 
HETATM   17  C   UNL     1      43.567 -19.050   2.464  1.00  0.00     0.001 A 
HETATM   18  C   UNL     1      43.584 -18.291   3.635  1.00  0.00     0.007 A 
ENDBRANCH  12  13
ENDBRANCH  11  12
ENDBRANCH   8  11
ENDBRANCH   1   7
BRANCH   4  19
HETATM   19  N   UNL     1      38.659 -12.894   2.038  1.00  0.00    -0.309 N 
HETATM   20  C   UNL     1      39.016 -12.299   0.837  1.00  0.00     0.325 C 
HETATM   21  N   UNL     1      37.892 -12.027   0.070  1.00  0.00    -0.306 N 
HETATM   22  O   UNL     1      40.162 -12.056   0.482  1.00  0.00    -0.247 OA
HETATM   23  H   UNL     1      36.989 -12.334   0.394  1.00  0.00     0.171 HD
HETATM   24  H   UNL     1      37.675 -12.899   2.260  1.00  0.00     0.170 HD
BRANCH  21  25
HETATM   25  C   UNL     1      37.933 -11.451  -1.185  1.00  0.00     0.072 A 
HETATM   26  C   UNL     1      37.969 -10.101  -1.600  1.00  0.00     0.169 A 
HETATM   27  N   UNL     1      38.010  -9.979  -2.931  1.00  0.00    -0.185 NA
HETATM   28  N   UNL     1      38.003 -11.248  -3.365  1.00  0.00    -0.287 N 
HETATM   29  H   UNL     1      38.036 -11.410  -4.366  1.00  0.00     0.188 HD
HETATM   30  C   UNL     1      37.953 -12.168  -2.358  1.00  0.00     0.140 A 
ENDBRANCH  21  25
ENDBRANCH   4  19
TORSDOF 6
ENDMDL
MODEL 7
REMARK VINA RESULT:      -7.7      4.745     10.016
REMARK  6 active torsions:
REMARK  status: ('A' for Active; 'I' for Inactive)
REMARK    1  A    between atoms: C_4  and  C_5 
REMARK    2  A    between atoms: C_5  and  C_6 
REMARK    3  A    between atoms: C_6  and  N_7 
REMARK       I    between atoms: N_7  and  C_8 
REMARK    4  A    between atoms: C_8  and  C_9 
REMARK    5  A    between atoms: C_12  and  N_13 
REMARK       I    between atoms: N_13  and  C_14 
REMARK       I    between atoms: C_14  and  N_15 
REMARK    6  A    between atoms: N_15  and  C_16 
ROOT
HETATM    1  C   UNL     1      40.551 -13.247   4.020  1.00  0.00     0.032 A 
HETATM    2  C   UNL     1      39.646 -12.181   3.990  1.00  0.00     0.019 A 
HETATM    3  C   UNL     1      39.694 -11.186   4.974  1.00  0.00     0.030 A 
HETATM    4  C   UNL     1      40.648 -11.235   5.993  1.00  0.00     0.036 A 
HETATM    5  C   UNL     1      41.569 -12.291   6.005  1.00  0.00     0.030 A 
HETATM    6  C   UNL     1      41.524 -13.287   5.024  1.00  0.00     0.019 A 
ENDROOT
BRANCH   1   7
HETATM    7  C   UNL     1      40.527 -14.340   3.008  1.00  0.00     0.251 C 
HETATM    8  N   UNL     1      41.318 -15.440   3.273  1.00  0.00    -0.357 N 
HETATM    9  H   UNL     1      42.057 -15.338   3.959  1.00  0.00     0.162 HD
HETATM   10  O   UNL     1      39.858 -14.219   1.988  1.00  0.00    -0.268 OA
BRANCH   8  11
HETATM   11  C   UNL     1      41.505 -16.474   2.270  1.00  0.00     0.127 C 
BRANCH  11  12
HETATM   12  C   UNL     1      42.974 -16.870   2.098  1.00  0.00     0.058 C 
BRANCH  12  13
HETATM   13  C   UNL     1      43.365 -18.128   2.840  1.00  0.00    -0.057 A 
HETATM   14  C   UNL     1      43.782 -18.062   4.177  1.00  0.00     0.007 A 
HETATM   15  C   UNL     1      44.135 -19.222   4.868  1.00  0.00     0.001 A 
HETATM   16  C   UNL     1      44.075 -20.460   4.232  1.00  0.00     0.000 A 
HETATM   17  C   UNL     1      43.658 -20.540   2.904  1.00  0.00     0.001 A 
HETATM   18  C   UNL     1      43.300 -19.381   2.213  1.00  0.00     0.007 A 
ENDBRANCH  12  13
ENDBRANCH  11  12
ENDBRANCH   8  11
ENDBRANCH   1   7
BRANCH   4  19
HETATM   19  N   UNL     1      40.737 -10.292   7.038  1.00  0.00    -0.309 N 
HETATM   20  C   UNL     1      39.857 -10.116   8.096  1.00  0.00     0.325 C 
HETATM   21  N   UNL     1      40.358  -9.194   9.003  1.00  0.00    -0.306 N 
HETATM   22  O   UNL     1      38.789 -10.700   8.232  1.00  0.00    -0.247 OA
HETATM   23  H   UNL     1      41.282  -8.819   8.865  1.00  0.00     0.171 HD
HETATM   24  H   UNL     1      41.505  -9.641   6.981  1.00  0.00     0.170 HD
BRANCH  21  25
HETATM   25  C   UNL     1      39.712  -8.826  10.168  1.00  0.00     0.072 A 
HETATM   26  C   UNL     1      39.908  -9.211  11.514  1.00  0.00     0.169 A 
HETATM   27  N   UNL     1      39.055  -8.602  12.346  1.00  0.00    -0.185 NA
HETATM   28  N   UNL     1      38.319  -7.829  11.534  1.00  0.00    -0.287 N 
HETATM   29  H   UNL     1      37.593  -7.256  11.949  1.00  0.00     0.188 HD
HETATM   30  C   UNL     1      38.670  -7.931  10.218  1.00  0.00     0.140 A 
ENDBRANCH  21  25
ENDBRANCH   4  19
TORSDOF 6
ENDMDL
MODEL 8
REMARK VINA RESULT:      -7.6      5.456      7.896
REMARK  6 active torsions:
REMARK  status: ('A' for Active; 'I' for Inactive)
REMARK    1  A    between atoms: C_4  and  C_5 
REMARK    2  A    between atoms: C_5  and  C_6 
REMARK    3  A    between atoms: C_6  and  N_7 
REMARK       I    between atoms: N_7  and  C_8 
REMARK    4  A    between atoms: C_8  and  C_9 
REMARK    5  A    between atoms: C_12  and  N_13 
REMARK       I    between atoms: N_13  and  C_14 
REMARK       I    between atoms: C_14  and  N_15 
REMARK    6  A    between atoms: N_15  and  C_16 
ROOT
HETATM    1  C   UNL     1      41.696 -14.050   3.811  1.00  0.00     0.032 A 
HETATM    2  C   UNL     1      40.520 -13.453   3.347  1.00  0.00     0.019 A 
HETATM    3  C   UNL     1      40.567 -12.218   2.688  1.00  0.00     0.030 A 
HETATM    4  C   UNL     1      41.785 -11.570   2.473  1.00  0.00     0.036 A 
HETATM    5  C   UNL     1      42.964 -12.184   2.917  1.00  0.00     0.030 A 
HETATM    6  C   UNL     1      42.920 -13.417   3.577  1.00  0.00     0.019 A 
ENDROOT
BRANCH   1   7
HETATM    7  C   UNL     1      41.696 -15.352   4.536  1.00  0.00     0.251 C 
HETATM    8  N   UNL     1      42.754 -15.579   5.392  1.00  0.00    -0.357 N 
HETATM    9  H   UNL     1      43.585 -15.009   5.279  1.00  0.00     0.162 HD
HETATM   10  O   UNL     1      40.805 -16.170   4.330  1.00  0.00    -0.268 OA
BRANCH   8  11
HETATM   11  C   UNL     1      42.942 -16.882   6.005  1.00  0.00     0.127 C 
BRANCH  11  12
HETATM   12  C   UNL     1      44.206 -17.590   5.510  1.00  0.00     0.058 C 
BRANCH  12  13
HETATM   13  C   UNL     1      43.957 -18.605   4.417  1.00  0.00    -0.057 A 
HETATM   14  C   UNL     1      43.554 -18.187   3.141  1.00  0.00     0.007 A 
HETATM   15  C   UNL     1      43.332 -19.120   2.126  1.00  0.00     0.001 A 
HETATM   16  C   UNL     1      43.508 -20.479   2.376  1.00  0.00     0.000 A 
HETATM   17  C   UNL     1      43.912 -20.907   3.640  1.00  0.00     0.001 A 
HETATM   18  C   UNL     1      44.139 -19.976   4.654  1.00  0.00     0.007 A 
ENDBRANCH  12  13
ENDBRANCH  11  12
ENDBRANCH   8  11
ENDBRANCH   1   7
BRANCH   4  19
HETATM   19  N   UNL     1      41.911 -10.310   1.850  1.00  0.00    -0.309 N 
HETATM   20  C   UNL     1      41.653  -9.992   0.525  1.00  0.00     0.325 C 
HETATM   21  N   UNL     1      41.744  -8.624   0.321  1.00  0.00    -0.306 N 
HETATM   22  O   UNL     1      41.368 -10.798  -0.352  1.00  0.00    -0.247 OA
HETATM   23  H   UNL     1      41.900  -8.017   1.111  1.00  0.00     0.171 HD
HETATM   24  H   UNL     1      42.275  -9.567   2.427  1.00  0.00     0.170 HD
BRANCH  21  25
HETATM   25  C   UNL     1      41.522  -8.006  -0.895  1.00  0.00     0.072 A 
HETATM   26  C   UNL     1      42.368  -7.783  -2.005  1.00  0.00     0.169 A 
HETATM   27  N   UNL     1      41.744  -7.142  -2.999  1.00  0.00    -0.185 NA
HETATM   28  N   UNL     1      40.502  -6.959  -2.526  1.00  0.00    -0.287 N 
HETATM   29  H   UNL     1      39.829  -6.487  -3.121  1.00  0.00     0.188 HD
HETATM   30  C   UNL     1      40.319  -7.455  -1.267  1.00  0.00     0.140 A 
ENDBRANCH  21  25
ENDBRANCH   4  19
TORSDOF 6
ENDMDL
MODEL 9
REMARK VINA RESULT:      -7.6      4.007     10.747
REMARK  6 active torsions:
REMARK  status: ('A' for Active; 'I' for Inactive)
REMARK    1  A    between atoms: C_4  and  C_5 
REMARK    2  A    between atoms: C_5  and  C_6 
REMARK    3  A    between atoms: C_6  and  N_7 
REMARK       I    between atoms: N_7  and  C_8 
REMARK    4  A    between atoms: C_8  and  C_9 
REMARK    5  A    between atoms: C_12  and  N_13 
REMARK       I    between atoms: N_13  and  C_14 
REMARK       I    between atoms: C_14  and  N_15 
REMARK    6  A    between atoms: N_15  and  C_16 
ROOT
HETATM    1  C   UNL     1      43.820 -11.194   6.137  1.00  0.00     0.032 A 
HETATM    2  C   UNL     1      44.832 -11.515   7.048  1.00  0.00     0.019 A 
HETATM    3  C   UNL     1      44.916 -10.845   8.275  1.00  0.00     0.030 A 
HETATM    4  C   UNL     1      43.989  -9.857   8.614  1.00  0.00     0.036 A 
HETATM    5  C   UNL     1      42.962  -9.556   7.709  1.00  0.00     0.030 A 
HETATM    6  C   UNL     1      42.876 -10.223   6.482  1.00  0.00     0.019 A 
ENDROOT
BRANCH   1   7
HETATM    7  C   UNL     1      43.702 -11.864   4.812  1.00  0.00     0.251 C 
HETATM    8  N   UNL     1      42.923 -13.002   4.766  1.00  0.00    -0.357 N 
HETATM    9  H   UNL     1      42.713 -13.468   5.641  1.00  0.00     0.162 HD
HETATM   10  O   UNL     1      44.307 -11.419   3.842  1.00  0.00    -0.268 OA
BRANCH   8  11
HETATM   11  C   UNL     1      42.888 -13.826   3.570  1.00  0.00     0.127 C 
BRANCH  11  12
HETATM   12  C   UNL     1      41.980 -15.049   3.723  1.00  0.00     0.058 C 
BRANCH  12  13
HETATM   13  C   UNL     1      42.695 -16.372   3.566  1.00  0.00    -0.057 A 
HETATM   14  C   UNL     1      43.567 -16.828   4.564  1.00  0.00     0.007 A 
HETATM   15  C   UNL     1      44.223 -18.053   4.428  1.00  0.00     0.001 A 
HETATM   16  C   UNL     1      44.014 -18.834   3.294  1.00  0.00     0.000 A 
HETATM   17  C   UNL     1      43.146 -18.394   2.296  1.00  0.00     0.001 A 
HETATM   18  C   UNL     1      42.487 -17.172   2.433  1.00  0.00     0.007 A 
ENDBRANCH  12  13
ENDBRANCH  11  12
ENDBRANCH   8  11
ENDBRANCH   1   7
BRANCH   4  19
HETATM   19  N   UNL     1      44.028  -9.114   9.812  1.00  0.00    -0.309 N 
HETATM   20  C   UNL     1      43.087  -9.102  10.831  1.00  0.00     0.325 C 
HETATM   21  N   UNL     1      43.545  -8.367  11.915  1.00  0.00    -0.306 N 
HETATM   22  O   UNL     1      42.003  -9.671  10.799  1.00  0.00    -0.247 OA
HETATM   23  H   UNL     1      44.483  -7.999  11.899  1.00  0.00     0.171 HD
HETATM   24  H   UNL     1      44.809  -8.485   9.916  1.00  0.00     0.170 HD
BRANCH  21  25
HETATM   25  C   UNL     1      42.834  -8.191  13.086  1.00  0.00     0.072 A 
HETATM   26  C   UNL     1      42.250  -9.117  13.980  1.00  0.00     0.169 A 
HETATM   27  N   UNL     1      41.649  -8.516  15.013  1.00  0.00    -0.185 NA
HETATM   28  N   UNL     1      41.851  -7.210  14.780  1.00  0.00    -0.287 N 
HETATM   29  H   UNL     1      41.481  -6.543  15.449  1.00  0.00     0.188 HD
HETATM   30  C   UNL     1      42.552  -6.963  13.635  1.00  0.00     0.140 A 
ENDBRANCH  21  25
ENDBRANCH   4  19
TORSDOF 6
ENDMDL
MODEL 10
REMARK VINA RESULT:      -7.6      2.013      2.849
REMARK  6 active torsions:
REMARK  status: ('A' for Active; 'I' for Inactive)
REMARK    1  A    between atoms: C_4  and  C_5 
REMARK    2  A    between atoms: C_5  and  C_6 
REMARK    3  A    between atoms: C_6  and  N_7 
REMARK       I    between atoms: N_7  and  C_8 
REMARK    4  A    between atoms: C_8  and  C_9 
REMARK    5  A    between atoms: C_12  and  N_13 
REMARK       I    between atoms: N_13  and  C_14 
REMARK       I    between atoms: C_14  and  N_15 
REMARK    6  A    between atoms: N_15  and  C_16 
ROOT
HETATM    1  C   UNL     1      43.757 -11.008   6.666  1.00  0.00     0.032 A 
HETATM    2  C   UNL     1      42.458 -10.554   6.414  1.00  0.00     0.019 A 
HETATM    3  C   UNL     1      41.926 -10.620   5.121  1.00  0.00     0.030 A 
HETATM    4  C   UNL     1      42.675 -11.147   4.066  1.00  0.00     0.036 A 
HETATM    5  C   UNL     1      43.966 -11.624   4.328  1.00  0.00     0.030 A 
HETATM    6  C   UNL     1      44.501 -11.559   5.619  1.00  0.00     0.019 A 
ENDROOT
BRANCH   1   7
HETATM    7  C   UNL     1      44.375 -10.940   8.020  1.00  0.00     0.251 C 
HETATM    8  N   UNL     1      43.549 -10.547   9.054  1.00  0.00    -0.357 N 
HETATM    9  H   UNL     1      42.686 -10.072   8.816  1.00  0.00     0.162 HD
HETATM   10  O   UNL     1      45.567 -11.192   8.165  1.00  0.00    -0.268 OA
BRANCH   8  11
HETATM   11  C   UNL     1      44.094 -10.276  10.373  1.00  0.00     0.127 C 
BRANCH  11  12
HETATM   12  C   UNL     1      43.813  -8.847  10.844  1.00  0.00     0.058 C 
BRANCH  12  13
HETATM   13  C   UNL     1      43.047  -8.766  12.145  1.00  0.00    -0.057 A 
HETATM   14  C   UNL     1      43.399  -7.817  13.116  1.00  0.00     0.007 A 
HETATM   15  C   UNL     1      42.689  -7.733  14.315  1.00  0.00     0.001 A 
HETATM   16  C   UNL     1      41.621  -8.594  14.556  1.00  0.00     0.000 A 
HETATM   17  C   UNL     1      41.259  -9.538  13.597  1.00  0.00     0.001 A 
HETATM   18  C   UNL     1      41.964  -9.621  12.396  1.00  0.00     0.007 A 
ENDBRANCH  12  13
ENDBRANCH  11  12
ENDBRANCH   8  11
ENDBRANCH   1   7
BRANCH   4  19
HETATM   19  N   UNL     1      42.222 -11.214   2.732  1.00  0.00    -0.309 N 
HETATM   20  C   UNL     1      41.350 -12.140   2.180  1.00  0.00     0.325 C 
HETATM   21  N   UNL     1      41.024 -11.793   0.878  1.00  0.00    -0.306 N 
HETATM   22  O   UNL     1      40.908 -13.126   2.757  1.00  0.00    -0.247 OA
HETATM   23  H   UNL     1      41.361 -10.922   0.501  1.00  0.00     0.171 HD
HETATM   24  H   UNL     1      42.617 -10.537   2.098  1.00  0.00     0.170 HD
BRANCH  21  25
HETATM   25  C   UNL     1      40.160 -12.516   0.077  1.00  0.00     0.072 A 
HETATM   26  C   UNL     1      40.324 -13.731  -0.626  1.00  0.00     0.169 A 
HETATM   27  N   UNL     1      39.217 -14.091  -1.285  1.00  0.00    -0.185 NA
HETATM   28  N   UNL     1      38.348 -13.110  -1.001  1.00  0.00    -0.287 N 
HETATM   29  H   UNL     1      37.415 -13.170  -1.394  1.00  0.00     0.188 HD
HETATM   30  C   UNL     1      38.866 -12.139  -0.192  1.00  0.00     0.140 A 
ENDBRANCH  21  25
ENDBRANCH   4  19
TORSDOF 6
ENDMDL
