MODEL 1
REMARK VINA RESULT:      -9.2      0.000      0.000
REMARK  11 active torsions:
REMARK  status: ('A' for Active; 'I' for Inactive)
REMARK    1  A    between atoms: C_2  and  O_3 
REMARK    2  A    between atoms: O_3  and  C_4 
REMARK    3  A    between atoms: C_5  and  O_6 
REMARK    4  A    between atoms: C_9  and  C_10 
REMARK    5  A    between atoms: N_11  and  C_12 
REMARK    6  A    between atoms: C_12  and  C_13 
REMARK    7  A    between atoms: C_13  and  C_14 
REMARK    8  A    between atoms: C_14  and  N_15 
REMARK    9  A    between atoms: C_24  and  O_25 
REMARK   10  A    between atoms: C_26  and  C_27 
REMARK   11  A    between atoms: C_27  and  C_28 
ROOT
HETATM    1  C   UNL     1      42.815 -13.602   5.157  1.00  0.00     0.161 C 
HETATM    2  N   UNL     1      41.448 -13.095   5.247  1.00  0.00    -0.333 N 
HETATM    3  C   UNL     1      40.676 -13.855   6.094  1.00  0.00     0.278 C 
HETATM    4  O   UNL     1      39.472 -13.749   6.280  1.00  0.00    -0.265 OA
HETATM    5  C   UNL     1      41.489 -15.009   6.522  1.00  0.00     0.146 C 
HETATM    6  C   UNL     1      42.650 -14.924   5.860  1.00  0.00     0.059 C 
ENDROOT
BRANCH   1   7
HETATM    7  C   UNL     1      43.799 -12.637   5.803  1.00  0.00    -0.028 A 
HETATM    8  C   UNL     1      44.807 -11.990   5.057  1.00  0.00     0.012 A 
HETATM    9  C   UNL     1      45.705 -11.116   5.667  1.00  0.00     0.040 A 
HETATM   10  C   UNL     1      45.611 -10.888   7.029  1.00  0.00     0.099 A 
HETATM   11  C   UNL     1      44.626 -11.505   7.804  1.00  0.00     0.102 A 
HETATM   12  C   UNL     1      43.730 -12.387   7.192  1.00  0.00     0.049 A 
BRANCH  10  13
HETATM   13  O   UNL     1      46.505 -10.027   7.601  1.00  0.00    -0.358 OA
HETATM   14  H   UNL     1      46.147  -9.134   7.437  1.00  0.00     0.218 HD
ENDBRANCH  10  13
BRANCH  11  15
HETATM   15  O   UNL     1      44.663 -11.187   9.135  1.00  0.00    -0.349 OA
BRANCH  15  16
HETATM   16  C   UNL     1      43.731 -10.207   9.588  1.00  0.00     0.171 C 
HETATM   17  C   UNL     1      44.422  -9.375  10.654  1.00  0.00     0.034 C 
ENDBRANCH  15  16
ENDBRANCH  11  15
ENDBRANCH   1   7
BRANCH   2  18
HETATM   18  C   UNL     1      40.888 -12.132   4.317  1.00  0.00     0.129 C 
BRANCH  18  19
HETATM   19  C   UNL     1      40.920 -12.606   2.857  1.00  0.00     0.048 C 
BRANCH  19  20
HETATM   20  C   UNL     1      40.057 -13.819   2.493  1.00  0.00     0.236 C 
BRANCH  20  21
HETATM   21  N   UNL     1      39.394 -13.723   1.144  1.00  0.00    -0.067 N 
HETATM   22  H   UNL     1      38.448 -14.153   1.215  1.00  0.00     0.280 HD
HETATM   23  C   UNL     1      39.263 -12.300   0.620  1.00  0.00     0.261 C 
HETATM   24  C   UNL     1      38.624 -12.303  -0.773  1.00  0.00     0.195 C 
HETATM   25  O   UNL     1      39.367 -13.121  -1.683  1.00  0.00    -0.388 OA
HETATM   26  C   UNL     1      39.403 -14.483  -1.244  1.00  0.00     0.195 C 
HETATM   27  C   UNL     1      40.114 -14.593   0.107  1.00  0.00     0.261 C 
ENDBRANCH  20  21
ENDBRANCH  19  20
ENDBRANCH  18  19
ENDBRANCH   2  18
BRANCH   6  28
HETATM   28  C   UNL     1      43.722 -15.931   5.714  1.00  0.00     0.193 C 
HETATM   29  O   UNL     1      44.748 -15.829   6.379  1.00  0.00    -0.287 OA
BRANCH  28  30
HETATM   30  C   UNL     1      43.619 -17.004   4.700  1.00  0.00     0.015 A 
HETATM   31  C   UNL     1      43.093 -16.759   3.425  1.00  0.00     0.016 A 
HETATM   32  C   UNL     1      43.028 -17.790   2.486  1.00  0.00     0.007 A 
HETATM   33  C   UNL     1      43.506 -19.066   2.804  1.00  0.00    -0.062 A 
HETATM   34  C   UNL     1      43.456 -20.171   1.789  1.00  0.00     0.048 C 
HETATM   35  C   UNL     1      44.088 -19.287   4.058  1.00  0.00     0.007 A 
HETATM   36  C   UNL     1      44.149 -18.260   5.003  1.00  0.00     0.016 A 
ENDBRANCH  28  30
ENDBRANCH   6  28
BRANCH   5  37
HETATM   37  O   UNL     1      41.001 -16.015   7.296  1.00  0.00    -0.355 OA
HETATM   38  H   UNL     1      40.581 -16.666   6.700  1.00  0.00     0.218 HD
ENDBRANCH   5  37
TORSDOF 11
ENDMDL
MODEL 2
REMARK VINA RESULT:      -8.6      1.507      1.815
REMARK  11 active torsions:
REMARK  status: ('A' for Active; 'I' for Inactive)
REMARK    1  A    between atoms: C_2  and  O_3 
REMARK    2  A    between atoms: O_3  and  C_4 
REMARK    3  A    between atoms: C_5  and  O_6 
REMARK    4  A    between atoms: C_9  and  C_10 
REMARK    5  A    between atoms: N_11  and  C_12 
REMARK    6  A    between atoms: C_12  and  C_13 
REMARK    7  A    between atoms: C_13  and  C_14 
REMARK    8  A    between atoms: C_14  and  N_15 
REMARK    9  A    between atoms: C_24  and  O_25 
REMARK   10  A    between atoms: C_26  and  C_27 
REMARK   11  A    between atoms: C_27  and  C_28 
ROOT
HETATM    1  C   UNL     1      42.692 -12.600   5.121  1.00  0.00     0.161 C 
HETATM    2  N   UNL     1      41.502 -11.858   4.712  1.00  0.00    -0.333 N 
HETATM    3  C   UNL     1      40.353 -12.410   5.227  1.00  0.00     0.278 C 
HETATM    4  O   UNL     1      39.204 -12.084   4.968  1.00  0.00    -0.265 OA
HETATM    5  C   UNL     1      40.731 -13.654   5.925  1.00  0.00     0.146 C 
HETATM    6  C   UNL     1      42.045 -13.820   5.725  1.00  0.00     0.059 C 
ENDROOT
BRANCH   1   7
HETATM    7  C   UNL     1      43.548 -11.777   6.074  1.00  0.00    -0.028 A 
HETATM    8  C   UNL     1      44.947 -11.939   6.148  1.00  0.00     0.012 A 
HETATM    9  C   UNL     1      45.714 -11.182   7.032  1.00  0.00     0.040 A 
HETATM   10  C   UNL     1      45.089 -10.264   7.858  1.00  0.00     0.099 A 
HETATM   11  C   UNL     1      43.706 -10.070   7.815  1.00  0.00     0.102 A 
HETATM   12  C   UNL     1      42.937 -10.835   6.932  1.00  0.00     0.049 A 
BRANCH  10  13
HETATM   13  O   UNL     1      45.865  -9.536   8.716  1.00  0.00    -0.358 OA
HETATM   14  H   UNL     1      45.587  -9.808   9.612  1.00  0.00     0.218 HD
ENDBRANCH  10  13
BRANCH  11  15
HETATM   15  O   UNL     1      43.232  -9.133   8.695  1.00  0.00    -0.349 OA
BRANCH  15  16
HETATM   16  C   UNL     1      42.898  -7.857   8.155  1.00  0.00     0.171 C 
HETATM   17  C   UNL     1      43.281  -6.809   9.187  1.00  0.00     0.034 C 
ENDBRANCH  15  16
ENDBRANCH  11  15
ENDBRANCH   1   7
BRANCH   2  18
HETATM   18  C   UNL     1      41.497 -10.883   3.638  1.00  0.00     0.129 C 
BRANCH  18  19
HETATM   19  C   UNL     1      42.181 -11.383   2.357  1.00  0.00     0.048 C 
BRANCH  19  20
HETATM   20  C   UNL     1      41.372 -11.315   1.057  1.00  0.00     0.236 C 
BRANCH  20  21
HETATM   21  N   UNL     1      41.147 -12.651   0.400  1.00  0.00    -0.067 N 
HETATM   22  H   UNL     1      42.066 -13.014   0.074  1.00  0.00     0.280 HD
HETATM   23  C   UNL     1      40.492 -13.683   1.307  1.00  0.00     0.261 C 
HETATM   24  C   UNL     1      40.257 -14.991   0.544  1.00  0.00     0.195 C 
HETATM   25  O   UNL     1      39.475 -14.770  -0.635  1.00  0.00    -0.388 OA
HETATM   26  C   UNL     1      40.138 -13.880  -1.538  1.00  0.00     0.195 C 
HETATM   27  C   UNL     1      40.333 -12.506  -0.891  1.00  0.00     0.261 C 
ENDBRANCH  20  21
ENDBRANCH  19  20
ENDBRANCH  18  19
ENDBRANCH   2  18
BRANCH   6  28
HETATM   28  C   UNL     1      42.890 -15.006   5.979  1.00  0.00     0.193 C 
HETATM   29  O   UNL     1      43.581 -15.055   6.991  1.00  0.00    -0.287 OA
BRANCH  28  30
HETATM   30  C   UNL     1      42.994 -16.089   4.977  1.00  0.00     0.015 A 
HETATM   31  C   UNL     1      42.348 -16.005   3.737  1.00  0.00     0.016 A 
HETATM   32  C   UNL     1      42.483 -17.038   2.807  1.00  0.00     0.007 A 
HETATM   33  C   UNL     1      43.279 -18.151   3.098  1.00  0.00    -0.062 A 
HETATM   34  C   UNL     1      43.443 -19.254   2.093  1.00  0.00     0.048 C 
HETATM   35  C   UNL     1      43.972 -18.199   4.314  1.00  0.00     0.007 A 
HETATM   36  C   UNL     1      43.834 -17.171   5.250  1.00  0.00     0.016 A 
ENDBRANCH  28  30
ENDBRANCH   6  28
BRANCH   5  37
HETATM   37  O   UNL     1      39.822 -14.502   6.476  1.00  0.00    -0.355 OA
HETATM   38  H   UNL     1      39.504 -15.094   5.765  1.00  0.00     0.218 HD
ENDBRANCH   5  37
TORSDOF 11
ENDMDL
MODEL 3
REMARK VINA RESULT:      -8.6      1.987      7.559
REMARK  11 active torsions:
REMARK  status: ('A' for Active; 'I' for Inactive)
REMARK    1  A    between atoms: C_2  and  O_3 
REMARK    2  A    between atoms: O_3  and  C_4 
REMARK    3  A    between atoms: C_5  and  O_6 
REMARK    4  A    between atoms: C_9  and  C_10 
REMARK    5  A    between atoms: N_11  and  C_12 
REMARK    6  A    between atoms: C_12  and  C_13 
REMARK    7  A    between atoms: C_13  and  C_14 
REMARK    8  A    between atoms: C_14  and  N_15 
REMARK    9  A    between atoms: C_24  and  O_25 
REMARK   10  A    between atoms: C_26  and  C_27 
REMARK   11  A    between atoms: C_27  and  C_28 
ROOT
HETATM    1  C   UNL     1      42.505 -14.221   4.215  1.00  0.00     0.161 C 
HETATM    2  N   UNL     1      41.895 -14.299   5.540  1.00  0.00    -0.333 N 
HETATM    3  C   UNL     1      40.557 -13.985   5.505  1.00  0.00     0.278 C 
HETATM    4  O   UNL     1      39.811 -13.850   6.464  1.00  0.00    -0.265 OA
HETATM    5  C   UNL     1      40.236 -13.554   4.130  1.00  0.00     0.146 C 
HETATM    6  C   UNL     1      41.391 -13.554   3.452  1.00  0.00     0.059 C 
ENDROOT
BRANCH   1   7
HETATM    7  C   UNL     1      42.902 -15.604   3.715  1.00  0.00    -0.028 A 
HETATM    8  C   UNL     1      42.620 -16.029   2.399  1.00  0.00     0.012 A 
HETATM    9  C   UNL     1      42.983 -17.301   1.960  1.00  0.00     0.040 A 
HETATM   10  C   UNL     1      43.621 -18.164   2.835  1.00  0.00     0.099 A 
HETATM   11  C   UNL     1      43.922 -17.781   4.145  1.00  0.00     0.102 A 
HETATM   12  C   UNL     1      43.551 -16.507   4.585  1.00  0.00     0.049 A 
BRANCH  10  13
HETATM   13  O   UNL     1      43.965 -19.406   2.379  1.00  0.00    -0.358 OA
HETATM   14  H   UNL     1      43.131 -19.914   2.355  1.00  0.00     0.218 HD
ENDBRANCH  10  13
BRANCH  11  15
HETATM   15  O   UNL     1      44.548 -18.743   4.892  1.00  0.00    -0.349 OA
BRANCH  15  16
HETATM   16  C   UNL     1      43.735 -19.478   5.804  1.00  0.00     0.171 C 
HETATM   17  C   UNL     1      43.851 -20.948   5.439  1.00  0.00     0.034 C 
ENDBRANCH  15  16
ENDBRANCH  11  15
ENDBRANCH   1   7
BRANCH   2  18
HETATM   18  C   UNL     1      42.660 -14.363   6.771  1.00  0.00     0.129 C 
BRANCH  18  19
HETATM   19  C   UNL     1      43.750 -13.286   6.868  1.00  0.00     0.048 C 
BRANCH  19  20
HETATM   20  C   UNL     1      43.299 -11.823   6.809  1.00  0.00     0.236 C 
BRANCH  20  21
HETATM   21  N   UNL     1      44.146 -10.882   7.623  1.00  0.00    -0.067 N 
HETATM   22  H   UNL     1      44.215 -11.259   8.591  1.00  0.00     0.280 HD
HETATM   23  C   UNL     1      45.546 -10.671   7.064  1.00  0.00     0.261 C 
HETATM   24  C   UNL     1      46.318  -9.665   7.926  1.00  0.00     0.195 C 
HETATM   25  O   UNL     1      45.612  -8.424   8.031  1.00  0.00    -0.388 OA
HETATM   26  C   UNL     1      44.336  -8.604   8.652  1.00  0.00     0.195 C 
HETATM   27  C   UNL     1      43.453  -9.527   7.807  1.00  0.00     0.261 C 
ENDBRANCH  20  21
ENDBRANCH  19  20
ENDBRANCH  18  19
ENDBRANCH   2  18
BRANCH   6  28
HETATM   28  C   UNL     1      41.699 -12.978   2.126  1.00  0.00     0.193 C 
HETATM   29  O   UNL     1      42.706 -12.294   1.978  1.00  0.00    -0.287 OA
BRANCH  28  30
HETATM   30  C   UNL     1      40.752 -13.127   0.998  1.00  0.00     0.015 A 
HETATM   31  C   UNL     1      40.077 -12.025   0.458  1.00  0.00     0.016 A 
HETATM   32  C   UNL     1      39.204 -12.199  -0.619  1.00  0.00     0.007 A 
HETATM   33  C   UNL     1      39.014 -13.468  -1.175  1.00  0.00    -0.062 A 
HETATM   34  C   UNL     1      38.093 -13.656  -2.346  1.00  0.00     0.048 C 
HETATM   35  C   UNL     1      39.740 -14.554  -0.670  1.00  0.00     0.007 A 
HETATM   36  C   UNL     1      40.609 -14.385   0.410  1.00  0.00     0.016 A 
ENDBRANCH  28  30
ENDBRANCH   6  28
BRANCH   5  37
HETATM   37  O   UNL     1      39.013 -13.084   3.766  1.00  0.00    -0.355 OA
HETATM   38  H   UNL     1      39.133 -12.165   3.454  1.00  0.00     0.218 HD
ENDBRANCH   5  37
TORSDOF 11
ENDMDL
MODEL 4
REMARK VINA RESULT:      -8.5      1.962      3.149
REMARK  11 active torsions:
REMARK  status: ('A' for Active; 'I' for Inactive)
REMARK    1  A    between atoms: C_2  and  O_3 
REMARK    2  A    between atoms: O_3  and  C_4 
REMARK    3  A    between atoms: C_5  and  O_6 
REMARK    4  A    between atoms: C_9  and  C_10 
REMARK    5  A    between atoms: N_11  and  C_12 
REMARK    6  A    between atoms: C_12  and  C_13 
REMARK    7  A    between atoms: C_13  and  C_14 
REMARK    8  A    between atoms: C_14  and  N_15 
REMARK    9  A    between atoms: C_24  and  O_25 
REMARK   10  A    between atoms: C_26  and  C_27 
REMARK   11  A    between atoms: C_27  and  C_28 
ROOT
HETATM    1  C   UNL     1      42.381 -13.067   2.872  1.00  0.00     0.161 C 
HETATM    2  N   UNL     1      41.022 -12.533   2.838  1.00  0.00    -0.333 N 
HETATM    3  C   UNL     1      40.080 -13.534   2.854  1.00  0.00     0.278 C 
HETATM    4  O   UNL     1      38.872 -13.404   2.717  1.00  0.00    -0.265 OA
HETATM    5  C   UNL     1      40.795 -14.822   2.776  1.00  0.00     0.146 C 
HETATM    6  C   UNL     1      42.095 -14.527   2.636  1.00  0.00     0.059 C 
ENDROOT
BRANCH   1   7
HETATM    7  C   UNL     1      43.063 -12.741   4.194  1.00  0.00    -0.028 A 
HETATM    8  C   UNL     1      43.962 -11.662   4.322  1.00  0.00     0.012 A 
HETATM    9  C   UNL     1      44.584 -11.383   5.538  1.00  0.00     0.040 A 
HETATM   10  C   UNL     1      44.321 -12.186   6.635  1.00  0.00     0.099 A 
HETATM   11  C   UNL     1      43.434 -13.262   6.551  1.00  0.00     0.102 A 
HETATM   12  C   UNL     1      42.817 -13.545   5.329  1.00  0.00     0.049 A 
BRANCH  10  13
HETATM   13  O   UNL     1      44.944 -11.891   7.814  1.00  0.00    -0.358 OA
HETATM   14  H   UNL     1      44.314 -11.331   8.308  1.00  0.00     0.218 HD
ENDBRANCH  10  13
BRANCH  11  15
HETATM   15  O   UNL     1      43.280 -13.968   7.715  1.00  0.00    -0.349 OA
BRANCH  15  16
HETATM   16  C   UNL     1      43.299 -15.390   7.612  1.00  0.00     0.171 C 
HETATM   17  C   UNL     1      41.884 -15.846   7.300  1.00  0.00     0.034 C 
ENDBRANCH  15  16
ENDBRANCH  11  15
ENDBRANCH   1   7
BRANCH   2  18
HETATM   18  C   UNL     1      40.711 -11.159   2.490  1.00  0.00     0.129 C 
BRANCH  18  19
HETATM   19  C   UNL     1      41.373 -10.695   1.185  1.00  0.00     0.048 C 
BRANCH  19  20
HETATM   20  C   UNL     1      40.451 -10.181   0.074  1.00  0.00     0.236 C 
BRANCH  20  21
HETATM   21  N   UNL     1      39.935 -11.254  -0.848  1.00  0.00    -0.067 N 
HETATM   22  H   UNL     1      39.899 -10.865  -1.813  1.00  0.00     0.280 HD
HETATM   23  C   UNL     1      40.775 -12.523  -0.849  1.00  0.00     0.261 C 
HETATM   24  C   UNL     1      40.152 -13.574  -1.774  1.00  0.00     0.195 C 
HETATM   25  O   UNL     1      38.797 -13.852  -1.405  1.00  0.00    -0.388 OA
HETATM   26  C   UNL     1      37.981 -12.680  -1.504  1.00  0.00     0.195 C 
HETATM   27  C   UNL     1      38.474 -11.600  -0.537  1.00  0.00     0.261 C 
ENDBRANCH  20  21
ENDBRANCH  19  20
ENDBRANCH  18  19
ENDBRANCH   2  18
BRANCH   6  28
HETATM   28  C   UNL     1      43.221 -15.410   2.265  1.00  0.00     0.193 C 
HETATM   29  O   UNL     1      43.952 -15.103   1.328  1.00  0.00    -0.287 OA
BRANCH  28  30
HETATM   30  C   UNL     1      43.416 -16.712   2.940  1.00  0.00     0.015 A 
HETATM   31  C   UNL     1      43.327 -17.921   2.239  1.00  0.00     0.016 A 
HETATM   32  C   UNL     1      43.535 -19.132   2.903  1.00  0.00     0.007 A 
HETATM   33  C   UNL     1      43.852 -19.144   4.266  1.00  0.00    -0.062 A 
HETATM   34  C   UNL     1      44.096 -20.442   4.979  1.00  0.00     0.048 C 
HETATM   35  C   UNL     1      44.000 -17.928   4.946  1.00  0.00     0.007 A 
HETATM   36  C   UNL     1      43.787 -16.716   4.286  1.00  0.00     0.016 A 
ENDBRANCH  28  30
ENDBRANCH   6  28
BRANCH   5  37
HETATM   37  O   UNL     1      40.160 -16.020   2.679  1.00  0.00    -0.355 OA
HETATM   38  H   UNL     1      39.702 -16.179   3.528  1.00  0.00     0.218 HD
ENDBRANCH   5  37
TORSDOF 11
ENDMDL
MODEL 5
REMARK VINA RESULT:      -8.3      2.640      5.743
REMARK  11 active torsions:
REMARK  status: ('A' for Active; 'I' for Inactive)
REMARK    1  A    between atoms: C_2  and  O_3 
REMARK    2  A    between atoms: O_3  and  C_4 
REMARK    3  A    between atoms: C_5  and  O_6 
REMARK    4  A    between atoms: C_9  and  C_10 
REMARK    5  A    between atoms: N_11  and  C_12 
REMARK    6  A    between atoms: C_12  and  C_13 
REMARK    7  A    between atoms: C_13  and  C_14 
REMARK    8  A    between atoms: C_14  and  N_15 
REMARK    9  A    between atoms: C_24  and  O_25 
REMARK   10  A    between atoms: C_26  and  C_27 
REMARK   11  A    between atoms: C_27  and  C_28 
ROOT
HETATM    1  C   UNL     1      41.548 -12.755   3.896  1.00  0.00     0.161 C 
HETATM    2  N   UNL     1      41.099 -14.145   3.874  1.00  0.00    -0.333 N 
HETATM    3  C   UNL     1      41.703 -14.891   4.858  1.00  0.00     0.278 C 
HETATM    4  O   UNL     1      41.619 -16.101   5.015  1.00  0.00    -0.265 OA
HETATM    5  C   UNL     1      42.702 -14.031   5.521  1.00  0.00     0.146 C 
HETATM    6  C   UNL     1      42.701 -12.867   4.859  1.00  0.00     0.059 C 
ENDROOT
BRANCH   1   7
HETATM    7  C   UNL     1      40.423 -11.825   4.330  1.00  0.00    -0.028 A 
HETATM    8  C   UNL     1      39.734 -11.009   3.408  1.00  0.00     0.012 A 
HETATM    9  C   UNL     1      38.711 -10.157   3.824  1.00  0.00     0.040 A 
HETATM   10  C   UNL     1      38.376 -10.105   5.166  1.00  0.00     0.099 A 
HETATM   11  C   UNL     1      39.031 -10.899   6.111  1.00  0.00     0.102 A 
HETATM   12  C   UNL     1      40.060 -11.748   5.693  1.00  0.00     0.049 A 
BRANCH  10  13
HETATM   13  O   UNL     1      37.371  -9.261   5.547  1.00  0.00    -0.358 OA
HETATM   14  H   UNL     1      36.561  -9.619   5.135  1.00  0.00     0.218 HD
ENDBRANCH  10  13
BRANCH  11  15
HETATM   15  O   UNL     1      38.594 -10.734   7.399  1.00  0.00    -0.349 OA
BRANCH  15  16
HETATM   16  C   UNL     1      39.393  -9.912   8.247  1.00  0.00     0.171 C 
HETATM   17  C   UNL     1      38.923 -10.135   9.674  1.00  0.00     0.034 C 
ENDBRANCH  15  16
ENDBRANCH  11  15
ENDBRANCH   1   7
BRANCH   2  18
HETATM   18  C   UNL     1      40.380 -14.737   2.762  1.00  0.00     0.129 C 
BRANCH  18  19
HETATM   19  C   UNL     1      41.154 -14.681   1.437  1.00  0.00     0.048 C 
BRANCH  19  20
HETATM   20  C   UNL     1      41.086 -13.375   0.638  1.00  0.00     0.236 C 
BRANCH  20  21
HETATM   21  N   UNL     1      40.871 -13.565  -0.840  1.00  0.00    -0.067 N 
HETATM   22  H   UNL     1      41.708 -14.043  -1.232  1.00  0.00     0.280 HD
HETATM   23  C   UNL     1      39.625 -14.369  -1.185  1.00  0.00     0.261 C 
HETATM   24  C   UNL     1      39.460 -14.470  -2.705  1.00  0.00     0.195 C 
HETATM   25  O   UNL     1      39.422 -13.173  -3.310  1.00  0.00    -0.388 OA
HETATM   26  C   UNL     1      40.637 -12.454  -3.075  1.00  0.00     0.195 C 
HETATM   27  C   UNL     1      40.840 -12.220  -1.575  1.00  0.00     0.261 C 
ENDBRANCH  20  21
ENDBRANCH  19  20
ENDBRANCH  18  19
ENDBRANCH   2  18
BRANCH   6  28
HETATM   28  C   UNL     1      43.663 -11.747   4.930  1.00  0.00     0.193 C 
HETATM   29  O   UNL     1      44.189 -11.330   3.903  1.00  0.00    -0.287 OA
BRANCH  28  30
HETATM   30  C   UNL     1      44.082 -11.192   6.236  1.00  0.00     0.015 A 
HETATM   31  C   UNL     1      43.154 -10.646   7.132  1.00  0.00     0.016 A 
HETATM   32  C   UNL     1      43.581 -10.148   8.365  1.00  0.00     0.007 A 
HETATM   33  C   UNL     1      44.933 -10.208   8.720  1.00  0.00    -0.062 A 
HETATM   34  C   UNL     1      45.394  -9.692  10.053  1.00  0.00     0.048 C 
HETATM   35  C   UNL     1      45.846 -10.812   7.846  1.00  0.00     0.007 A 
HETATM   36  C   UNL     1      45.423 -11.306   6.610  1.00  0.00     0.016 A 
ENDBRANCH  28  30
ENDBRANCH   6  28
BRANCH   5  37
HETATM   37  O   UNL     1      43.547 -14.482   6.486  1.00  0.00    -0.355 OA
HETATM   38  H   UNL     1      43.301 -15.407   6.683  1.00  0.00     0.218 HD
ENDBRANCH   5  37
TORSDOF 11
ENDMDL
MODEL 6
REMARK VINA RESULT:      -8.3      1.712      2.829
REMARK  11 active torsions:
REMARK  status: ('A' for Active; 'I' for Inactive)
REMARK    1  A    between atoms: C_2  and  O_3 
REMARK    2  A    between atoms: O_3  and  C_4 
REMARK    3  A    between atoms: C_5  and  O_6 
REMARK    4  A    between atoms: C_9  and  C_10 
REMARK    5  A    between atoms: N_11  and  C_12 
REMARK    6  A    between atoms: C_12  and  C_13 
REMARK    7  A    between atoms: C_13  and  C_14 
REMARK    8  A    between atoms: C_14  and  N_15 
REMARK    9  A    between atoms: C_24  and  O_25 
REMARK   10  A    between atoms: C_26  and  C_27 
REMARK   11  A    between atoms: C_27  and  C_28 
ROOT
HETATM    1  C   UNL     1      41.395 -11.976   4.460  1.00  0.00     0.161 C 
HETATM    2  N   UNL     1      40.751 -10.709   4.124  1.00  0.00    -0.333 N 
HETATM    3  C   UNL     1      39.669 -10.455   4.934  1.00  0.00     0.278 C 
HETATM    4  O   UNL     1      38.868  -9.539   4.819  1.00  0.00    -0.265 OA
HETATM    5  C   UNL     1      39.467 -11.639   5.791  1.00  0.00     0.146 C 
HETATM    6  C   UNL     1      40.368 -12.550   5.401  1.00  0.00     0.059 C 
ENDROOT
BRANCH   1   7
HETATM    7  C   UNL     1      42.775 -11.745   5.062  1.00  0.00    -0.028 A 
HETATM    8  C   UNL     1      43.922 -11.585   4.256  1.00  0.00     0.012 A 
HETATM    9  C   UNL     1      45.178 -11.382   4.825  1.00  0.00     0.040 A 
HETATM   10  C   UNL     1      45.301 -11.349   6.204  1.00  0.00     0.099 A 
HETATM   11  C   UNL     1      44.191 -11.498   7.037  1.00  0.00     0.102 A 
HETATM   12  C   UNL     1      42.932 -11.708   6.466  1.00  0.00     0.049 A 
BRANCH  10  13
HETATM   13  O   UNL     1      46.545 -11.149   6.734  1.00  0.00    -0.358 OA
HETATM   14  H   UNL     1      47.169 -11.308   6.000  1.00  0.00     0.218 HD
ENDBRANCH  10  13
BRANCH  11  15
HETATM   15  O   UNL     1      44.470 -11.448   8.377  1.00  0.00    -0.349 OA
BRANCH  15  16
HETATM   16  C   UNL     1      43.875 -10.386   9.118  1.00  0.00     0.171 C 
HETATM   17  C   UNL     1      44.939  -9.323   9.332  1.00  0.00     0.034 C 
ENDBRANCH  15  16
ENDBRANCH  11  15
ENDBRANCH   1   7
BRANCH   2  18
HETATM   18  C   UNL     1      41.004  -9.984   2.893  1.00  0.00     0.129 C 
BRANCH  18  19
HETATM   19  C   UNL     1      40.395 -10.655   1.654  1.00  0.00     0.048 C 
BRANCH  19  20
HETATM   20  C   UNL     1      41.353 -11.036   0.520  1.00  0.00     0.236 C 
BRANCH  20  21
HETATM   21  N   UNL     1      41.036 -12.353  -0.139  1.00  0.00    -0.067 N 
HETATM   22  H   UNL     1      41.928 -12.777  -0.467  1.00  0.00     0.280 HD
HETATM   23  C   UNL     1      40.314 -13.340   0.767  1.00  0.00     0.261 C 
HETATM   24  C   UNL     1      39.989 -14.627   0.002  1.00  0.00     0.195 C 
HETATM   25  O   UNL     1      39.223 -14.351  -1.175  1.00  0.00    -0.388 OA
HETATM   26  C   UNL     1      39.943 -13.506  -2.078  1.00  0.00     0.195 C 
HETATM   27  C   UNL     1      40.231 -12.150  -1.429  1.00  0.00     0.261 C 
ENDBRANCH  20  21
ENDBRANCH  19  20
ENDBRANCH  18  19
ENDBRANCH   2  18
BRANCH   6  28
HETATM   28  C   UNL     1      40.454 -13.987   5.737  1.00  0.00     0.193 C 
HETATM   29  O   UNL     1      39.937 -14.403   6.769  1.00  0.00    -0.287 OA
BRANCH  28  30
HETATM   30  C   UNL     1      41.247 -14.914   4.899  1.00  0.00     0.015 A 
HETATM   31  C   UNL     1      42.538 -15.313   5.267  1.00  0.00     0.016 A 
HETATM   32  C   UNL     1      43.251 -16.204   4.462  1.00  0.00     0.007 A 
HETATM   33  C   UNL     1      42.674 -16.718   3.295  1.00  0.00    -0.062 A 
HETATM   34  C   UNL     1      43.429 -17.691   2.438  1.00  0.00     0.048 C 
HETATM   35  C   UNL     1      41.360 -16.363   2.967  1.00  0.00     0.007 A 
HETATM   36  C   UNL     1      40.646 -15.468   3.767  1.00  0.00     0.016 A 
ENDBRANCH  28  30
ENDBRANCH   6  28
BRANCH   5  37
HETATM   37  O   UNL     1      38.423 -11.763   6.652  1.00  0.00    -0.355 OA
HETATM   38  H   UNL     1      38.625 -11.221   7.440  1.00  0.00     0.218 HD
ENDBRANCH   5  37
TORSDOF 11
ENDMDL
MODEL 7
REMARK VINA RESULT:      -8.1      2.719      4.865
REMARK  11 active torsions:
REMARK  status: ('A' for Active; 'I' for Inactive)
REMARK    1  A    between atoms: C_2  and  O_3 
REMARK    2  A    between atoms: O_3  and  C_4 
REMARK    3  A    between atoms: C_5  and  O_6 
REMARK    4  A    between atoms: C_9  and  C_10 
REMARK    5  A    between atoms: N_11  and  C_12 
REMARK    6  A    between atoms: C_12  and  C_13 
REMARK    7  A    between atoms: C_13  and  C_14 
REMARK    8  A    between atoms: C_14  and  N_15 
REMARK    9  A    between atoms: C_24  and  O_25 
REMARK   10  A    between atoms: C_26  and  C_27 
REMARK   11  A    between atoms: C_27  and  C_28 
ROOT
HETATM    1  C   UNL     1      42.142 -13.836   3.412  1.00  0.00     0.161 C 
HETATM    2  N   UNL     1      40.860 -13.153   3.263  1.00  0.00    -0.333 N 
HETATM    3  C   UNL     1      39.926 -13.951   2.644  1.00  0.00     0.278 C 
HETATM    4  O   UNL     1      38.807 -13.619   2.279  1.00  0.00    -0.265 OA
HETATM    5  C   UNL     1      40.604 -15.195   2.234  1.00  0.00     0.146 C 
HETATM    6  C   UNL     1      41.897 -15.045   2.548  1.00  0.00     0.059 C 
ENDROOT
BRANCH   1   7
HETATM    7  C   UNL     1      42.437 -14.130   4.877  1.00  0.00    -0.028 A 
HETATM    8  C   UNL     1      41.858 -15.228   5.547  1.00  0.00     0.012 A 
HETATM    9  C   UNL     1      42.132 -15.478   6.891  1.00  0.00     0.040 A 
HETATM   10  C   UNL     1      42.979 -14.625   7.580  1.00  0.00     0.099 A 
HETATM   11  C   UNL     1      43.576 -13.529   6.953  1.00  0.00     0.102 A 
HETATM   12  C   UNL     1      43.294 -13.277   5.607  1.00  0.00     0.049 A 
BRANCH  10  13
HETATM   13  O   UNL     1      43.230 -14.893   8.897  1.00  0.00    -0.358 OA
HETATM   14  H   UNL     1      44.134 -15.262   8.919  1.00  0.00     0.218 HD
ENDBRANCH  10  13
BRANCH  11  15
HETATM   15  O   UNL     1      44.383 -12.776   7.763  1.00  0.00    -0.349 OA
BRANCH  15  16
HETATM   16  C   UNL     1      44.179 -11.365   7.740  1.00  0.00     0.171 C 
HETATM   17  C   UNL     1      45.493 -10.706   8.120  1.00  0.00     0.034 C 
ENDBRANCH  15  16
ENDBRANCH  11  15
ENDBRANCH   1   7
BRANCH   2  18
HETATM   18  C   UNL     1      40.690 -11.722   3.430  1.00  0.00     0.129 C 
BRANCH  18  19
HETATM   19  C   UNL     1      39.900 -11.346   4.692  1.00  0.00     0.048 C 
BRANCH  19  20
HETATM   20  C   UNL     1      40.701 -10.844   5.898  1.00  0.00     0.236 C 
BRANCH  20  21
HETATM   21  N   UNL     1      40.264  -9.499   6.414  1.00  0.00    -0.067 N 
HETATM   22  H   UNL     1      41.097  -8.875   6.446  1.00  0.00     0.280 HD
HETATM   23  C   UNL     1      39.175  -8.840   5.578  1.00  0.00     0.261 C 
HETATM   24  C   UNL     1      38.759  -7.504   6.201  1.00  0.00     0.195 C 
HETATM   25  O   UNL     1      38.336  -7.674   7.558  1.00  0.00    -0.388 OA
HETATM   26  C   UNL     1      39.393  -8.196   8.370  1.00  0.00     0.195 C 
HETATM   27  C   UNL     1      39.814  -9.583   7.877  1.00  0.00     0.261 C 
ENDBRANCH  20  21
ENDBRANCH  19  20
ENDBRANCH  18  19
ENDBRANCH   2  18
BRANCH   6  28
HETATM   28  C   UNL     1      43.061 -15.862   2.143  1.00  0.00     0.193 C 
HETATM   29  O   UNL     1      43.773 -15.490   1.216  1.00  0.00    -0.287 OA
BRANCH  28  30
HETATM   30  C   UNL     1      43.317 -17.178   2.771  1.00  0.00     0.015 A 
HETATM   31  C   UNL     1      43.057 -18.376   2.094  1.00  0.00     0.016 A 
HETATM   32  C   UNL     1      43.329 -19.599   2.710  1.00  0.00     0.007 A 
HETATM   33  C   UNL     1      43.878 -19.636   3.996  1.00  0.00    -0.062 A 
HETATM   34  C   UNL     1      44.190 -20.949   4.653  1.00  0.00     0.048 C 
HETATM   35  C   UNL     1      44.193 -18.434   4.641  1.00  0.00     0.007 A 
HETATM   36  C   UNL     1      43.918 -17.208   4.031  1.00  0.00     0.016 A 
ENDBRANCH  28  30
ENDBRANCH   6  28
BRANCH   5  37
HETATM   37  O   UNL     1      39.992 -16.171   1.512  1.00  0.00    -0.355 OA
HETATM   38  H   UNL     1      39.064 -16.224   1.817  1.00  0.00     0.218 HD
ENDBRANCH   5  37
TORSDOF 11
ENDMDL
MODEL 8
REMARK VINA RESULT:      -8.0      1.926      2.628
REMARK  11 active torsions:
REMARK  status: ('A' for Active; 'I' for Inactive)
REMARK    1  A    between atoms: C_2  and  O_3 
REMARK    2  A    between atoms: O_3  and  C_4 
REMARK    3  A    between atoms: C_5  and  O_6 
REMARK    4  A    between atoms: C_9  and  C_10 
REMARK    5  A    between atoms: N_11  and  C_12 
REMARK    6  A    between atoms: C_12  and  C_13 
REMARK    7  A    between atoms: C_13  and  C_14 
REMARK    8  A    between atoms: C_14  and  N_15 
REMARK    9  A    between atoms: C_24  and  O_25 
REMARK   10  A    between atoms: C_26  and  C_27 
REMARK   11  A    between atoms: C_27  and  C_28 
ROOT
HETATM    1  C   UNL     1      42.634 -13.652   4.255  1.00  0.00     0.161 C 
HETATM    2  N   UNL     1      41.711 -13.511   3.132  1.00  0.00    -0.333 N 
HETATM    3  C   UNL     1      40.650 -14.380   3.230  1.00  0.00     0.278 C 
HETATM    4  O   UNL     1      39.784 -14.575   2.390  1.00  0.00    -0.265 OA
HETATM    5  C   UNL     1      40.893 -15.249   4.398  1.00  0.00     0.146 C 
HETATM    6  C   UNL     1      42.098 -14.916   4.877  1.00  0.00     0.059 C 
ENDROOT
BRANCH   1   7
HETATM    7  C   UNL     1      42.600 -12.420   5.149  1.00  0.00    -0.028 A 
HETATM    8  C   UNL     1      41.393 -11.762   5.464  1.00  0.00     0.012 A 
HETATM    9  C   UNL     1      41.381 -10.629   6.277  1.00  0.00     0.040 A 
HETATM   10  C   UNL     1      42.577 -10.138   6.773  1.00  0.00     0.099 A 
HETATM   11  C   UNL     1      43.794 -10.762   6.488  1.00  0.00     0.102 A 
HETATM   12  C   UNL     1      43.804 -11.894   5.667  1.00  0.00     0.049 A 
BRANCH  10  13
HETATM   13  O   UNL     1      42.536  -9.026   7.567  1.00  0.00    -0.358 OA
HETATM   14  H   UNL     1      43.122  -9.226   8.323  1.00  0.00     0.218 HD
ENDBRANCH  10  13
BRANCH  11  15
HETATM   15  O   UNL     1      44.890 -10.158   7.044  1.00  0.00    -0.349 OA
BRANCH  15  16
HETATM   16  C   UNL     1      45.506 -10.829   8.141  1.00  0.00     0.171 C 
HETATM   17  C   UNL     1      45.442  -9.900   9.341  1.00  0.00     0.034 C 
ENDBRANCH  15  16
ENDBRANCH  11  15
ENDBRANCH   1   7
BRANCH   2  18
HETATM   18  C   UNL     1      42.039 -12.799   1.911  1.00  0.00     0.129 C 
BRANCH  18  19
HETATM   19  C   UNL     1      41.258 -11.488   1.741  1.00  0.00     0.048 C 
BRANCH  19  20
HETATM   20  C   UNL     1      40.233 -11.424   0.605  1.00  0.00     0.236 C 
BRANCH  20  21
HETATM   21  N   UNL     1      40.570 -12.287  -0.582  1.00  0.00    -0.067 N 
HETATM   22  H   UNL     1      41.460 -12.787  -0.379  1.00  0.00     0.280 HD
HETATM   23  C   UNL     1      39.492 -13.302  -0.934  1.00  0.00     0.261 C 
HETATM   24  C   UNL     1      39.897 -14.100  -2.178  1.00  0.00     0.195 C 
HETATM   25  O   UNL     1      40.171 -13.233  -3.284  1.00  0.00    -0.388 OA
HETATM   26  C   UNL     1      41.256 -12.346  -2.992  1.00  0.00     0.195 C 
HETATM   27  C   UNL     1      40.903 -11.435  -1.813  1.00  0.00     0.261 C 
ENDBRANCH  20  21
ENDBRANCH  19  20
ENDBRANCH  18  19
ENDBRANCH   2  18
BRANCH   6  28
HETATM   28  C   UNL     1      42.940 -15.619   5.867  1.00  0.00     0.193 C 
HETATM   29  O   UNL     1      43.395 -15.004   6.826  1.00  0.00    -0.287 OA
BRANCH  28  30
HETATM   30  C   UNL     1      43.330 -17.032   5.662  1.00  0.00     0.015 A 
HETATM   31  C   UNL     1      43.124 -18.000   6.652  1.00  0.00     0.016 A 
HETATM   32  C   UNL     1      43.487 -19.328   6.417  1.00  0.00     0.007 A 
HETATM   33  C   UNL     1      44.037 -19.703   5.187  1.00  0.00    -0.062 A 
HETATM   34  C   UNL     1      44.409 -21.133   4.924  1.00  0.00     0.048 C 
HETATM   35  C   UNL     1      44.181 -18.741   4.179  1.00  0.00     0.007 A 
HETATM   36  C   UNL     1      43.825 -17.411   4.412  1.00  0.00     0.016 A 
ENDBRANCH  28  30
ENDBRANCH   6  28
BRANCH   5  37
HETATM   37  O   UNL     1      40.080 -16.286   4.733  1.00  0.00    -0.355 OA
HETATM   38  H   UNL     1      40.651 -17.060   4.913  1.00  0.00     0.218 HD
ENDBRANCH   5  37
TORSDOF 11
ENDMDL
MODEL 9
REMARK VINA RESULT:      -8.0      2.543      6.185
REMARK  11 active torsions:
REMARK  status: ('A' for Active; 'I' for Inactive)
REMARK    1  A    between atoms: C_2  and  O_3 
REMARK    2  A    between atoms: O_3  and  C_4 
REMARK    3  A    between atoms: C_5  and  O_6 
REMARK    4  A    between atoms: C_9  and  C_10 
REMARK    5  A    between atoms: N_11  and  C_12 
REMARK    6  A    between atoms: C_12  and  C_13 
REMARK    7  A    between atoms: C_13  and  C_14 
REMARK    8  A    between atoms: C_14  and  N_15 
REMARK    9  A    between atoms: C_24  and  O_25 
REMARK   10  A    between atoms: C_26  and  C_27 
REMARK   11  A    between atoms: C_27  and  C_28 
ROOT
HETATM    1  C   UNL     1      41.325 -11.480   3.481  1.00  0.00     0.161 C 
HETATM    2  N   UNL     1      40.341 -10.524   3.982  1.00  0.00    -0.333 N 
HETATM    3  C   UNL     1      39.083 -10.780   3.491  1.00  0.00     0.278 C 
HETATM    4  O   UNL     1      38.085 -10.088   3.636  1.00  0.00    -0.265 OA
HETATM    5  C   UNL     1      39.201 -11.880   2.515  1.00  0.00     0.146 C 
HETATM    6  C   UNL     1      40.507 -12.162   2.415  1.00  0.00     0.059 C 
ENDROOT
BRANCH   1   7
HETATM    7  C   UNL     1      41.825 -12.386   4.599  1.00  0.00    -0.028 A 
HETATM    8  C   UNL     1      41.067 -13.480   5.066  1.00  0.00     0.012 A 
HETATM    9  C   UNL     1      41.537 -14.294   6.096  1.00  0.00     0.040 A 
HETATM   10  C   UNL     1      42.763 -14.014   6.676  1.00  0.00     0.099 A 
HETATM   11  C   UNL     1      43.546 -12.943   6.240  1.00  0.00     0.102 A 
HETATM   12  C   UNL     1      43.070 -12.124   5.212  1.00  0.00     0.049 A 
BRANCH  10  13
HETATM   13  O   UNL     1      43.199 -14.827   7.684  1.00  0.00    -0.358 OA
HETATM   14  H   UNL     1      42.441 -14.913   8.295  1.00  0.00     0.218 HD
ENDBRANCH  10  13
BRANCH  11  15
HETATM   15  O   UNL     1      44.729 -12.788   6.913  1.00  0.00    -0.349 OA
BRANCH  15  16
HETATM   16  C   UNL     1      45.450 -11.581   6.677  1.00  0.00     0.171 C 
HETATM   17  C   UNL     1      45.463 -10.794   7.976  1.00  0.00     0.034 C 
ENDBRANCH  15  16
ENDBRANCH  11  15
ENDBRANCH   1   7
BRANCH   2  18
HETATM   18  C   UNL     1      40.697  -9.276   4.633  1.00  0.00     0.129 C 
BRANCH  18  19
HETATM   19  C   UNL     1      40.438  -9.282   6.146  1.00  0.00     0.048 C 
BRANCH  19  20
HETATM   20  C   UNL     1      41.661  -9.233   7.068  1.00  0.00     0.236 C 
BRANCH  20  21
HETATM   21  N   UNL     1      41.390  -9.682   8.479  1.00  0.00    -0.067 N 
HETATM   22  H   UNL     1      41.317 -10.720   8.483  1.00  0.00     0.280 HD
HETATM   23  C   UNL     1      42.452  -9.249   9.480  1.00  0.00     0.261 C 
HETATM   24  C   UNL     1      42.071  -9.705  10.893  1.00  0.00     0.195 C 
HETATM   25  O   UNL     1      40.779  -9.213  11.265  1.00  0.00    -0.388 OA
HETATM   26  C   UNL     1      39.763  -9.704  10.386  1.00  0.00     0.195 C 
HETATM   27  C   UNL     1      40.009  -9.216   8.955  1.00  0.00     0.261 C 
ENDBRANCH  20  21
ENDBRANCH  19  20
ENDBRANCH  18  19
ENDBRANCH   2  18
BRANCH   6  28
HETATM   28  C   UNL     1      41.213 -12.993   1.417  1.00  0.00     0.193 C 
HETATM   29  O   UNL     1      41.324 -12.595   0.262  1.00  0.00    -0.287 OA
BRANCH  28  30
HETATM   30  C   UNL     1      41.696 -14.348   1.766  1.00  0.00     0.015 A 
HETATM   31  C   UNL     1      40.809 -15.414   1.961  1.00  0.00     0.016 A 
HETATM   32  C   UNL     1      41.300 -16.684   2.271  1.00  0.00     0.007 A 
HETATM   33  C   UNL     1      42.678 -16.903   2.369  1.00  0.00    -0.062 A 
HETATM   34  C   UNL     1      43.210 -18.272   2.682  1.00  0.00     0.048 C 
HETATM   35  C   UNL     1      43.560 -15.847   2.111  1.00  0.00     0.007 A 
HETATM   36  C   UNL     1      43.073 -14.574   1.806  1.00  0.00     0.016 A 
ENDBRANCH  28  30
ENDBRANCH   6  28
BRANCH   5  37
HETATM   37  O   UNL     1      38.156 -12.327   1.769  1.00  0.00    -0.355 OA
HETATM   38  H   UNL     1      38.338 -13.259   1.537  1.00  0.00     0.218 HD
ENDBRANCH   5  37
TORSDOF 11
ENDMDL
MODEL 10
REMARK VINA RESULT:      -7.8      1.741      2.202
REMARK  11 active torsions:
REMARK  status: ('A' for Active; 'I' for Inactive)
REMARK    1  A    between atoms: C_2  and  O_3 
REMARK    2  A    between atoms: O_3  and  C_4 
REMARK    3  A    between atoms: C_5  and  O_6 
REMARK    4  A    between atoms: C_9  and  C_10 
REMARK    5  A    between atoms: N_11  and  C_12 
REMARK    6  A    between atoms: C_12  and  C_13 
REMARK    7  A    between atoms: C_13  and  C_14 
REMARK    8  A    between atoms: C_14  and  N_15 
REMARK    9  A    between atoms: C_24  and  O_25 
REMARK   10  A    between atoms: C_26  and  C_27 
REMARK   11  A    between atoms: C_27  and  C_28 
ROOT
HETATM    1  C   UNL     1      41.950 -11.830   4.728  1.00  0.00     0.161 C 
HETATM    2  N   UNL     1      40.680 -11.481   5.358  1.00  0.00    -0.333 N 
HETATM    3  C   UNL     1      39.971 -12.598   5.731  1.00  0.00     0.278 C 
HETATM    4  O   UNL     1      38.831 -12.627   6.172  1.00  0.00    -0.265 OA
HETATM    5  C   UNL     1      40.707 -13.778   5.240  1.00  0.00     0.146 C 
HETATM    6  C   UNL     1      41.752 -13.312   4.543  1.00  0.00     0.059 C 
ENDROOT
BRANCH   1   7
HETATM    7  C   UNL     1      43.126 -11.434   5.611  1.00  0.00    -0.028 A 
HETATM    8  C   UNL     1      44.438 -11.884   5.351  1.00  0.00     0.012 A 
HETATM    9  C   UNL     1      45.501 -11.518   6.175  1.00  0.00     0.040 A 
HETATM   10  C   UNL     1      45.261 -10.709   7.273  1.00  0.00     0.099 A 
HETATM   11  C   UNL     1      43.978 -10.238   7.563  1.00  0.00     0.102 A 
HETATM   12  C   UNL     1      42.912 -10.612   6.739  1.00  0.00     0.049 A 
BRANCH  10  13
HETATM   13  O   UNL     1      46.321 -10.366   8.064  1.00  0.00    -0.358 OA
HETATM   14  H   UNL     1      46.056 -10.607   8.972  1.00  0.00     0.218 HD
ENDBRANCH  10  13
BRANCH  11  15
HETATM   15  O   UNL     1      43.896  -9.454   8.683  1.00  0.00    -0.349 OA
BRANCH  15  16
HETATM   16  C   UNL     1      43.240 -10.017   9.816  1.00  0.00     0.171 C 
HETATM   17  C   UNL     1      44.274 -10.167  10.918  1.00  0.00     0.034 C 
ENDBRANCH  15  16
ENDBRANCH  11  15
ENDBRANCH   1   7
BRANCH   2  18
HETATM   18  C   UNL     1      40.092 -10.156   5.293  1.00  0.00     0.129 C 
BRANCH  18  19
HETATM   19  C   UNL     1      39.685  -9.739   3.873  1.00  0.00     0.048 C 
BRANCH  19  20
HETATM   20  C   UNL     1      38.713 -10.656   3.123  1.00  0.00     0.236 C 
BRANCH  20  21
HETATM   21  N   UNL     1      39.240 -11.174   1.811  1.00  0.00    -0.067 N 
HETATM   22  H   UNL     1      38.526 -10.990   1.077  1.00  0.00     0.280 HD
HETATM   23  C   UNL     1      40.566 -10.555   1.389  1.00  0.00     0.261 C 
HETATM   24  C   UNL     1      41.049 -11.175   0.074  1.00  0.00     0.195 C 
HETATM   25  O   UNL     1      41.155 -12.598   0.179  1.00  0.00    -0.388 OA
HETATM   26  C   UNL     1      39.886 -13.193   0.473  1.00  0.00     0.195 C 
HETATM   27  C   UNL     1      39.364 -12.703   1.826  1.00  0.00     0.261 C 
ENDBRANCH  20  21
ENDBRANCH  19  20
ENDBRANCH  18  19
ENDBRANCH   2  18
BRANCH   6  28
HETATM   28  C   UNL     1      42.668 -14.033   3.635  1.00  0.00     0.193 C 
HETATM   29  O   UNL     1      43.057 -13.490   2.605  1.00  0.00    -0.287 OA
BRANCH  28  30
HETATM   30  C   UNL     1      43.041 -15.441   3.896  1.00  0.00     0.015 A 
HETATM   31  C   UNL     1      42.928 -16.425   2.906  1.00  0.00     0.016 A 
HETATM   32  C   UNL     1      43.306 -17.741   3.181  1.00  0.00     0.007 A 
HETATM   33  C   UNL     1      43.817 -18.080   4.439  1.00  0.00    -0.062 A 
HETATM   34  C   UNL     1      44.243 -19.489   4.732  1.00  0.00     0.048 C 
HETATM   35  C   UNL     1      43.985 -17.079   5.403  1.00  0.00     0.007 A 
HETATM   36  C   UNL     1      43.603 -15.762   5.133  1.00  0.00     0.016 A 
ENDBRANCH  28  30
ENDBRANCH   6  28
BRANCH   5  37
HETATM   37  O   UNL     1      40.237 -15.048   5.358  1.00  0.00    -0.355 OA
HETATM   38  H   UNL     1      40.788 -15.619   4.786  1.00  0.00     0.218 HD
ENDBRANCH   5  37
TORSDOF 11
ENDMDL
