MODEL 1
REMARK VINA RESULT:      -8.4      0.000      0.000
REMARK  7 active torsions:
REMARK  status: ('A' for Active; 'I' for Inactive)
REMARK    1  A    between atoms: O_2  and  C_3 
REMARK    2  A    between atoms: C_5  and  C_6 
REMARK    3  A    between atoms: C_6  and  C_7 
REMARK       I    between atoms: C_7  and  N_8 
REMARK    4  A    between atoms: N_8  and  C_9 
REMARK    5  A    between atoms: C_9  and  C_10 
REMARK    6  A    between atoms: C_13  and  N_14 
REMARK       I    between atoms: N_14  and  C_15 
REMARK    7  A    between atoms: C_15  and  C_16 
ROOT
HETATM    1  C   UNL     1      42.711 -12.819   3.672  1.00  0.00    -0.040 A 
HETATM    2  C   UNL     1      42.833 -13.651   4.790  1.00  0.00     0.011 A 
HETATM    3  C   UNL     1      43.020 -13.110   6.068  1.00  0.00     0.030 A 
HETATM    4  C   UNL     1      43.079 -11.727   6.249  1.00  0.00     0.035 A 
HETATM    5  C   UNL     1      42.974 -10.894   5.131  1.00  0.00     0.030 A 
HETATM    6  C   UNL     1      42.792 -11.433   3.853  1.00  0.00     0.011 A 
ENDROOT
BRANCH   1   7
HETATM    7  C   UNL     1      42.442 -13.392   2.306  1.00  0.00     0.161 C 
BRANCH   7   8
HETATM    8  N   UNL     1      43.119 -14.659   2.152  1.00  0.00    -0.357 N 
HETATM    9  C   UNL     1      42.418 -15.843   2.185  1.00  0.00     0.222 C 
HETATM   10  O   UNL     1      41.209 -15.901   2.390  1.00  0.00    -0.273 OA
HETATM   11  H   UNL     1      44.037 -14.653   1.726  1.00  0.00     0.162 HD
BRANCH   9  12
HETATM   12  C   UNL     1      43.272 -17.078   1.965  1.00  0.00     0.141 C 
BRANCH  12  13
HETATM   13  C   UNL     1      43.507 -17.962   3.169  1.00  0.00    -0.047 A 
HETATM   14  C   UNL     1      43.448 -17.504   4.494  1.00  0.00     0.044 A 
HETATM   15  C   UNL     1      43.678 -18.368   5.572  1.00  0.00     0.068 A 
HETATM   16  C   UNL     1      43.978 -19.708   5.326  1.00  0.00     0.037 A 
HETATM   17  C   UNL     1      44.043 -20.178   4.014  1.00  0.00     0.003 A 
HETATM   18  C   UNL     1      43.809 -19.314   2.945  1.00  0.00     0.007 A 
BRANCH  15  19
HETATM   19  O   UNL     1      43.580 -17.783   6.804  1.00  0.00    -0.356 OA
HETATM   20  C   UNL     1      42.648 -16.717   6.937  1.00  0.00     0.210 C 
ENDBRANCH  15  19
ENDBRANCH  12  13
ENDBRANCH   9  12
ENDBRANCH   7   8
ENDBRANCH   1   7
BRANCH   4  21
HETATM   21  N   UNL     1      43.206 -11.103   7.503  1.00  0.00    -0.321 N 
HETATM   22  C   UNL     1      44.335 -10.980   8.294  1.00  0.00     0.279 C 
HETATM   23  O   UNL     1      45.466 -11.339   7.984  1.00  0.00    -0.265 OA
HETATM   24  H   UNL     1      42.361 -10.721   7.916  1.00  0.00     0.169 HD
BRANCH  22  25
HETATM   25  C   UNL     1      44.047 -10.369   9.581  1.00  0.00     0.142 A 
HETATM   26  O   UNL     1      43.758 -11.169  10.659  1.00  0.00    -0.317 OA
HETATM   27  C   UNL     1      43.559 -10.348  11.723  1.00  0.00     0.143 A 
HETATM   28  C   UNL     1      43.709  -9.032  11.354  1.00  0.00     0.027 A 
HETATM   29  C   UNL     1      44.022  -9.043   9.973  1.00  0.00     0.045 A 
ENDBRANCH  22  25
ENDBRANCH   4  21
TORSDOF 7
ENDMDL
MODEL 2
REMARK VINA RESULT:      -8.0      2.132      2.968
REMARK  7 active torsions:
REMARK  status: ('A' for Active; 'I' for Inactive)
REMARK    1  A    between atoms: O_2  and  C_3 
REMARK    2  A    between atoms: C_5  and  C_6 
REMARK    3  A    between atoms: C_6  and  C_7 
REMARK       I    between atoms: C_7  and  N_8 
REMARK    4  A    between atoms: N_8  and  C_9 
REMARK    5  A    between atoms: C_9  and  C_10 
REMARK    6  A    between atoms: C_13  and  N_14 
REMARK       I    between atoms: N_14  and  C_15 
REMARK    7  A    between atoms: C_15  and  C_16 
ROOT
HETATM    1  C   UNL     1      39.793 -12.280   3.875  1.00  0.00    -0.040 A 
HETATM    2  C   UNL     1      40.516 -11.097   3.685  1.00  0.00     0.011 A 
HETATM    3  C   UNL     1      41.321 -10.578   4.706  1.00  0.00     0.030 A 
HETATM    4  C   UNL     1      41.424 -11.239   5.931  1.00  0.00     0.035 A 
HETATM    5  C   UNL     1      40.689 -12.412   6.129  1.00  0.00     0.030 A 
HETATM    6  C   UNL     1      39.881 -12.930   5.112  1.00  0.00     0.011 A 
ENDROOT
BRANCH   1   7
HETATM    7  C   UNL     1      38.981 -12.878   2.758  1.00  0.00     0.161 C 
BRANCH   7   8
HETATM    8  N   UNL     1      39.303 -14.278   2.598  1.00  0.00    -0.357 N 
HETATM    9  C   UNL     1      40.373 -14.672   1.826  1.00  0.00     0.222 C 
HETATM   10  O   UNL     1      41.075 -13.882   1.200  1.00  0.00    -0.273 OA
HETATM   11  H   UNL     1      38.937 -14.926   3.283  1.00  0.00     0.162 HD
BRANCH   9  12
HETATM   12  C   UNL     1      40.599 -16.172   1.797  1.00  0.00     0.141 C 
BRANCH  12  13
HETATM   13  C   UNL     1      41.729 -16.702   2.650  1.00  0.00    -0.047 A 
HETATM   14  C   UNL     1      42.511 -17.814   2.302  1.00  0.00     0.044 A 
HETATM   15  C   UNL     1      43.545 -18.265   3.134  1.00  0.00     0.068 A 
HETATM   16  C   UNL     1      43.799 -17.601   4.333  1.00  0.00     0.037 A 
HETATM   17  C   UNL     1      43.029 -16.496   4.695  1.00  0.00     0.003 A 
HETATM   18  C   UNL     1      42.005 -16.049   3.861  1.00  0.00     0.007 A 
BRANCH  15  19
HETATM   19  O   UNL     1      44.224 -19.354   2.661  1.00  0.00    -0.356 OA
HETATM   20  C   UNL     1      43.466 -20.329   1.956  1.00  0.00     0.210 C 
ENDBRANCH  15  19
ENDBRANCH  12  13
ENDBRANCH   9  12
ENDBRANCH   7   8
ENDBRANCH   1   7
BRANCH   4  21
HETATM   21  N   UNL     1      42.254 -10.817   6.986  1.00  0.00    -0.321 N 
HETATM   22  C   UNL     1      43.633 -10.875   7.072  1.00  0.00     0.279 C 
HETATM   23  O   UNL     1      44.390 -11.245   6.181  1.00  0.00    -0.265 OA
HETATM   24  H   UNL     1      41.796 -10.457   7.817  1.00  0.00     0.169 HD
BRANCH  22  25
HETATM   25  C   UNL     1      44.126 -10.450   8.372  1.00  0.00     0.142 A 
HETATM   26  O   UNL     1      43.230 -10.119   9.359  1.00  0.00    -0.317 OA
HETATM   27  C   UNL     1      43.954  -9.788  10.461  1.00  0.00     0.143 A 
HETATM   28  C   UNL     1      45.300  -9.895  10.204  1.00  0.00     0.027 A 
HETATM   29  C   UNL     1      45.413 -10.319   8.859  1.00  0.00     0.045 A 
ENDBRANCH  22  25
ENDBRANCH   4  21
TORSDOF 7
ENDMDL
MODEL 3
REMARK VINA RESULT:      -8.0      1.827      2.236
REMARK  7 active torsions:
REMARK  status: ('A' for Active; 'I' for Inactive)
REMARK    1  A    between atoms: O_2  and  C_3 
REMARK    2  A    between atoms: C_5  and  C_6 
REMARK    3  A    between atoms: C_6  and  C_7 
REMARK       I    between atoms: C_7  and  N_8 
REMARK    4  A    between atoms: N_8  and  C_9 
REMARK    5  A    between atoms: C_9  and  C_10 
REMARK    6  A    between atoms: C_13  and  N_14 
REMARK       I    between atoms: N_14  and  C_15 
REMARK    7  A    between atoms: C_15  and  C_16 
ROOT
HETATM    1  C   UNL     1      40.002 -12.427   3.955  1.00  0.00    -0.040 A 
HETATM    2  C   UNL     1      40.830 -11.336   3.668  1.00  0.00     0.011 A 
HETATM    3  C   UNL     1      41.677 -10.804   4.647  1.00  0.00     0.030 A 
HETATM    4  C   UNL     1      41.717 -11.359   5.927  1.00  0.00     0.035 A 
HETATM    5  C   UNL     1      40.878 -12.439   6.221  1.00  0.00     0.030 A 
HETATM    6  C   UNL     1      40.029 -12.970   5.245  1.00  0.00     0.011 A 
ENDROOT
BRANCH   1   7
HETATM    7  C   UNL     1      39.141 -13.047   2.887  1.00  0.00     0.161 C 
BRANCH   7   8
HETATM    8  N   UNL     1      39.455 -14.449   2.741  1.00  0.00    -0.357 N 
HETATM    9  C   UNL     1      40.548 -14.855   2.007  1.00  0.00     0.222 C 
HETATM   10  O   UNL     1      41.279 -14.074   1.406  1.00  0.00    -0.273 OA
HETATM   11  H   UNL     1      39.059 -15.093   3.413  1.00  0.00     0.162 HD
BRANCH   9  12
HETATM   12  C   UNL     1      40.761 -16.357   1.989  1.00  0.00     0.141 C 
BRANCH  12  13
HETATM   13  C   UNL     1      41.928 -16.886   2.792  1.00  0.00    -0.047 A 
HETATM   14  C   UNL     1      42.308 -16.373   4.042  1.00  0.00     0.044 A 
HETATM   15  C   UNL     1      43.402 -16.900   4.741  1.00  0.00     0.068 A 
HETATM   16  C   UNL     1      44.132 -17.949   4.184  1.00  0.00     0.037 A 
HETATM   17  C   UNL     1      43.769 -18.468   2.941  1.00  0.00     0.003 A 
HETATM   18  C   UNL     1      42.677 -17.942   2.252  1.00  0.00     0.007 A 
BRANCH  15  19
HETATM   19  O   UNL     1      43.648 -16.305   5.948  1.00  0.00    -0.356 OA
HETATM   20  C   UNL     1      43.466 -17.106   7.109  1.00  0.00     0.210 C 
ENDBRANCH  15  19
ENDBRANCH  12  13
ENDBRANCH   9  12
ENDBRANCH   7   8
ENDBRANCH   1   7
BRANCH   4  21
HETATM   21  N   UNL     1      42.580 -10.922   6.948  1.00  0.00    -0.321 N 
HETATM   22  C   UNL     1      43.767 -11.491   7.375  1.00  0.00     0.279 C 
HETATM   23  O   UNL     1      44.320 -12.458   6.863  1.00  0.00    -0.265 OA
HETATM   24  H   UNL     1      42.291 -10.108   7.480  1.00  0.00     0.169 HD
BRANCH  22  25
HETATM   25  C   UNL     1      44.318 -10.816   8.539  1.00  0.00     0.142 A 
HETATM   26  O   UNL     1      43.828 -11.114   9.787  1.00  0.00    -0.317 OA
HETATM   27  C   UNL     1      44.532 -10.369  10.680  1.00  0.00     0.143 A 
HETATM   28  C   UNL     1      45.463  -9.592  10.033  1.00  0.00     0.027 A 
HETATM   29  C   UNL     1      45.326  -9.877   8.654  1.00  0.00     0.045 A 
ENDBRANCH  22  25
ENDBRANCH   4  21
TORSDOF 7
ENDMDL
MODEL 4
REMARK VINA RESULT:      -8.0      2.374      4.422
REMARK  7 active torsions:
REMARK  status: ('A' for Active; 'I' for Inactive)
REMARK    1  A    between atoms: O_2  and  C_3 
REMARK    2  A    between atoms: C_5  and  C_6 
REMARK    3  A    between atoms: C_6  and  C_7 
REMARK       I    between atoms: C_7  and  N_8 
REMARK    4  A    between atoms: N_8  and  C_9 
REMARK    5  A    between atoms: C_9  and  C_10 
REMARK    6  A    between atoms: C_13  and  N_14 
REMARK       I    between atoms: N_14  and  C_15 
REMARK    7  A    between atoms: C_15  and  C_16 
ROOT
HETATM    1  C   UNL     1      44.762 -10.571   7.467  1.00  0.00    -0.040 A 
HETATM    2  C   UNL     1      45.724 -10.423   8.472  1.00  0.00     0.011 A 
HETATM    3  C   UNL     1      45.384  -9.868   9.712  1.00  0.00     0.030 A 
HETATM    4  C   UNL     1      44.074  -9.461   9.969  1.00  0.00     0.035 A 
HETATM    5  C   UNL     1      43.115  -9.592   8.960  1.00  0.00     0.030 A 
HETATM    6  C   UNL     1      43.454 -10.142   7.720  1.00  0.00     0.011 A 
ENDROOT
BRANCH   1   7
HETATM    7  C   UNL     1      45.107 -11.230   6.158  1.00  0.00     0.161 C 
BRANCH   7   8
HETATM    8  N   UNL     1      43.973 -11.972   5.657  1.00  0.00    -0.357 N 
HETATM    9  C   UNL     1      43.713 -12.037   4.306  1.00  0.00     0.222 C 
HETATM   10  O   UNL     1      44.383 -11.444   3.465  1.00  0.00    -0.273 OA
HETATM   11  H   UNL     1      43.565 -12.674   6.261  1.00  0.00     0.162 HD
BRANCH   9  12
HETATM   12  C   UNL     1      42.512 -12.891   3.945  1.00  0.00     0.141 C 
BRANCH  12  13
HETATM   13  C   UNL     1      42.800 -14.289   3.445  1.00  0.00    -0.047 A 
HETATM   14  C   UNL     1      42.902 -15.409   4.284  1.00  0.00     0.044 A 
HETATM   15  C   UNL     1      43.175 -16.682   3.765  1.00  0.00     0.068 A 
HETATM   16  C   UNL     1      43.355 -16.839   2.391  1.00  0.00     0.037 A 
HETATM   17  C   UNL     1      43.261 -15.735   1.544  1.00  0.00     0.003 A 
HETATM   18  C   UNL     1      42.985 -14.471   2.066  1.00  0.00     0.007 A 
BRANCH  15  19
HETATM   19  O   UNL     1      43.238 -17.678   4.700  1.00  0.00    -0.356 OA
HETATM   20  C   UNL     1      44.331 -18.583   4.604  1.00  0.00     0.210 C 
ENDBRANCH  15  19
ENDBRANCH  12  13
ENDBRANCH   9  12
ENDBRANCH   7   8
ENDBRANCH   1   7
BRANCH   4  21
HETATM   21  N   UNL     1      43.637  -8.948  11.205  1.00  0.00    -0.321 N 
HETATM   22  C   UNL     1      43.139  -9.639  12.295  1.00  0.00     0.279 C 
HETATM   23  O   UNL     1      43.066 -10.858  12.396  1.00  0.00    -0.265 OA
HETATM   24  H   UNL     1      43.645  -7.940  11.315  1.00  0.00     0.169 HD
BRANCH  22  25
HETATM   25  C   UNL     1      42.681  -8.751  13.352  1.00  0.00     0.142 A 
HETATM   26  O   UNL     1      41.646  -9.145  14.164  1.00  0.00    -0.317 OA
HETATM   27  C   UNL     1      41.446  -8.149  15.067  1.00  0.00     0.143 A 
HETATM   28  C   UNL     1      42.328  -7.116  14.851  1.00  0.00     0.027 A 
HETATM   29  C   UNL     1      43.123  -7.501  13.745  1.00  0.00     0.045 A 
ENDBRANCH  22  25
ENDBRANCH   4  21
TORSDOF 7
ENDMDL
MODEL 5
REMARK VINA RESULT:      -7.9      3.348      7.456
REMARK  7 active torsions:
REMARK  status: ('A' for Active; 'I' for Inactive)
REMARK    1  A    between atoms: O_2  and  C_3 
REMARK    2  A    between atoms: C_5  and  C_6 
REMARK    3  A    between atoms: C_6  and  C_7 
REMARK       I    between atoms: C_7  and  N_8 
REMARK    4  A    between atoms: N_8  and  C_9 
REMARK    5  A    between atoms: C_9  and  C_10 
REMARK    6  A    between atoms: C_13  and  N_14 
REMARK       I    between atoms: N_14  and  C_15 
REMARK    7  A    between atoms: C_15  and  C_16 
ROOT
HETATM    1  C   UNL     1      42.260 -13.629   4.856  1.00  0.00    -0.040 A 
HETATM    2  C   UNL     1      40.909 -13.942   4.675  1.00  0.00     0.011 A 
HETATM    3  C   UNL     1      40.324 -13.881   3.404  1.00  0.00     0.030 A 
HETATM    4  C   UNL     1      41.083 -13.514   2.292  1.00  0.00     0.035 A 
HETATM    5  C   UNL     1      42.430 -13.183   2.474  1.00  0.00     0.030 A 
HETATM    6  C   UNL     1      43.015 -13.240   3.743  1.00  0.00     0.011 A 
ENDROOT
BRANCH   1   7
HETATM    7  C   UNL     1      42.910 -13.759   6.207  1.00  0.00     0.161 C 
BRANCH   7   8
HETATM    8  N   UNL     1      43.648 -14.999   6.291  1.00  0.00    -0.357 N 
HETATM    9  C   UNL     1      43.042 -16.152   6.739  1.00  0.00     0.222 C 
HETATM   10  O   UNL     1      41.880 -16.189   7.132  1.00  0.00    -0.273 OA
HETATM   11  H   UNL     1      44.496 -15.080   5.744  1.00  0.00     0.162 HD
BRANCH   9  12
HETATM   12  C   UNL     1      43.943 -17.372   6.724  1.00  0.00     0.141 C 
BRANCH  12  13
HETATM   13  C   UNL     1      43.870 -18.254   5.498  1.00  0.00    -0.047 A 
HETATM   14  C   UNL     1      43.711 -17.760   4.194  1.00  0.00     0.044 A 
HETATM   15  C   UNL     1      43.645 -18.625   3.093  1.00  0.00     0.068 A 
HETATM   16  C   UNL     1      43.733 -20.002   3.296  1.00  0.00     0.037 A 
HETATM   17  C   UNL     1      43.888 -20.509   4.587  1.00  0.00     0.003 A 
HETATM   18  C   UNL     1      43.957 -19.642   5.677  1.00  0.00     0.007 A 
BRANCH  15  19
HETATM   19  O   UNL     1      43.496 -18.001   1.885  1.00  0.00    -0.356 OA
HETATM   20  C   UNL     1      42.888 -16.716   1.896  1.00  0.00     0.210 C 
ENDBRANCH  15  19
ENDBRANCH  12  13
ENDBRANCH   9  12
ENDBRANCH   7   8
ENDBRANCH   1   7
BRANCH   4  21
HETATM   21  N   UNL     1      40.589 -13.483   0.975  1.00  0.00    -0.321 N 
HETATM   22  C   UNL     1      40.010 -14.509   0.249  1.00  0.00     0.279 C 
HETATM   23  O   UNL     1      39.753 -15.629   0.676  1.00  0.00    -0.265 OA
HETATM   24  H   UNL     1      40.698 -12.615   0.461  1.00  0.00     0.169 HD
BRANCH  22  25
HETATM   25  C   UNL     1      39.729 -14.126  -1.125  1.00  0.00     0.142 A 
HETATM   26  O   UNL     1      40.193 -12.923  -1.599  1.00  0.00    -0.317 OA
HETATM   27  C   UNL     1      39.815 -12.835  -2.901  1.00  0.00     0.143 A 
HETATM   28  C   UNL     1      39.112 -13.955  -3.277  1.00  0.00     0.027 A 
HETATM   29  C   UNL     1      39.053 -14.787  -2.133  1.00  0.00     0.045 A 
ENDBRANCH  22  25
ENDBRANCH   4  21
TORSDOF 7
ENDMDL
MODEL 6
REMARK VINA RESULT:      -7.6      1.402      2.075
REMARK  7 active torsions:
REMARK  status: ('A' for Active; 'I' for Inactive)
REMARK    1  A    between atoms: O_2  and  C_3 
REMARK    2  A    between atoms: C_5  and  C_6 
REMARK    3  A    between atoms: C_6  and  C_7 
REMARK       I    between atoms: C_7  and  N_8 
REMARK    4  A    between atoms: N_8  and  C_9 
REMARK    5  A    between atoms: C_9  and  C_10 
REMARK    6  A    between atoms: C_13  and  N_14 
REMARK       I    between atoms: N_14  and  C_15 
REMARK    7  A    between atoms: C_15  and  C_16 
ROOT
HETATM    1  C   UNL     1      41.858 -12.370   3.557  1.00  0.00    -0.040 A 
HETATM    2  C   UNL     1      41.192 -12.830   4.698  1.00  0.00     0.011 A 
HETATM    3  C   UNL     1      41.481 -12.295   5.960  1.00  0.00     0.030 A 
HETATM    4  C   UNL     1      42.434 -11.286   6.100  1.00  0.00     0.035 A 
HETATM    5  C   UNL     1      43.114 -10.837   4.963  1.00  0.00     0.030 A 
HETATM    6  C   UNL     1      42.830 -11.372   3.703  1.00  0.00     0.011 A 
ENDROOT
BRANCH   1   7
HETATM    7  C   UNL     1      41.502 -12.892   2.191  1.00  0.00     0.161 C 
BRANCH   7   8
HETATM    8  N   UNL     1      41.648 -14.329   2.150  1.00  0.00    -0.357 N 
HETATM    9  C   UNL     1      42.883 -14.908   1.959  1.00  0.00     0.222 C 
HETATM   10  O   UNL     1      43.906 -14.256   1.768  1.00  0.00    -0.273 OA
HETATM   11  H   UNL     1      40.910 -14.889   2.557  1.00  0.00     0.162 HD
BRANCH   9  12
HETATM   12  C   UNL     1      42.869 -16.424   1.985  1.00  0.00     0.141 C 
BRANCH  12  13
HETATM   13  C   UNL     1      43.190 -17.082   3.308  1.00  0.00    -0.047 A 
HETATM   14  C   UNL     1      43.720 -18.376   3.424  1.00  0.00     0.044 A 
HETATM   15  C   UNL     1      43.995 -18.938   4.679  1.00  0.00     0.068 A 
HETATM   16  C   UNL     1      43.732 -18.201   5.833  1.00  0.00     0.037 A 
HETATM   17  C   UNL     1      43.202 -16.915   5.734  1.00  0.00     0.003 A 
HETATM   18  C   UNL     1      42.934 -16.360   4.483  1.00  0.00     0.007 A 
BRANCH  15  19
HETATM   19  O   UNL     1      44.515 -20.202   4.636  1.00  0.00    -0.356 OA
HETATM   20  C   UNL     1      43.900 -21.121   3.741  1.00  0.00     0.210 C 
ENDBRANCH  15  19
ENDBRANCH  12  13
ENDBRANCH   9  12
ENDBRANCH   7   8
ENDBRANCH   1   7
BRANCH   4  21
HETATM   21  N   UNL     1      42.742 -10.657   7.320  1.00  0.00    -0.321 N 
HETATM   22  C   UNL     1      43.819 -10.884   8.158  1.00  0.00     0.279 C 
HETATM   23  O   UNL     1      44.754 -11.643   7.930  1.00  0.00    -0.265 OA
HETATM   24  H   UNL     1      42.079  -9.971   7.666  1.00  0.00     0.169 HD
BRANCH  22  25
HETATM   25  C   UNL     1      43.733 -10.118   9.391  1.00  0.00     0.142 A 
HETATM   26  O   UNL     1      43.402  -8.786   9.337  1.00  0.00    -0.317 OA
HETATM   27  C   UNL     1      43.369  -8.331  10.617  1.00  0.00     0.143 A 
HETATM   28  C   UNL     1      43.676  -9.342  11.497  1.00  0.00     0.027 A 
HETATM   29  C   UNL     1      43.914 -10.493  10.709  1.00  0.00     0.045 A 
ENDBRANCH  22  25
ENDBRANCH   4  21
TORSDOF 7
ENDMDL
MODEL 7
REMARK VINA RESULT:      -7.6      1.756      9.327
REMARK  7 active torsions:
REMARK  status: ('A' for Active; 'I' for Inactive)
REMARK    1  A    between atoms: O_2  and  C_3 
REMARK    2  A    between atoms: C_5  and  C_6 
REMARK    3  A    between atoms: C_6  and  C_7 
REMARK       I    between atoms: C_7  and  N_8 
REMARK    4  A    between atoms: N_8  and  C_9 
REMARK    5  A    between atoms: C_9  and  C_10 
REMARK    6  A    between atoms: C_13  and  N_14 
REMARK       I    between atoms: N_14  and  C_15 
REMARK    7  A    between atoms: C_15  and  C_16 
ROOT
HETATM    1  C   UNL     1      43.133 -12.574   5.881  1.00  0.00    -0.040 A 
HETATM    2  C   UNL     1      43.558 -13.613   6.716  1.00  0.00     0.011 A 
HETATM    3  C   UNL     1      43.592 -14.934   6.254  1.00  0.00     0.030 A 
HETATM    4  C   UNL     1      43.211 -15.236   4.946  1.00  0.00     0.035 A 
HETATM    5  C   UNL     1      42.769 -14.201   4.115  1.00  0.00     0.030 A 
HETATM    6  C   UNL     1      42.730 -12.882   4.576  1.00  0.00     0.011 A 
ENDROOT
BRANCH   1   7
HETATM    7  C   UNL     1      43.159 -11.144   6.351  1.00  0.00     0.161 C 
BRANCH   7   8
HETATM    8  N   UNL     1      43.530 -11.082   7.746  1.00  0.00    -0.357 N 
HETATM    9  C   UNL     1      44.751 -10.572   8.130  1.00  0.00     0.222 C 
HETATM   10  O   UNL     1      45.600 -10.192   7.329  1.00  0.00    -0.273 OA
HETATM   11  H   UNL     1      42.789 -11.127   8.433  1.00  0.00     0.162 HD
BRANCH   9  12
HETATM   12  C   UNL     1      44.966 -10.538   9.631  1.00  0.00     0.141 C 
BRANCH  12  13
HETATM   13  C   UNL     1      43.969  -9.739  10.440  1.00  0.00    -0.047 A 
HETATM   14  C   UNL     1      43.174 -10.289  11.458  1.00  0.00     0.044 A 
HETATM   15  C   UNL     1      42.263  -9.500  12.173  1.00  0.00     0.068 A 
HETATM   16  C   UNL     1      42.138  -8.146  11.866  1.00  0.00     0.037 A 
HETATM   17  C   UNL     1      42.919  -7.585  10.855  1.00  0.00     0.003 A 
HETATM   18  C   UNL     1      43.827  -8.374  10.150  1.00  0.00     0.007 A 
BRANCH  15  19
HETATM   19  O   UNL     1      41.563 -10.170  13.139  1.00  0.00    -0.356 OA
HETATM   20  C   UNL     1      40.149 -10.207  12.999  1.00  0.00     0.210 C 
ENDBRANCH  15  19
ENDBRANCH  12  13
ENDBRANCH   9  12
ENDBRANCH   7   8
ENDBRANCH   1   7
BRANCH   4  21
HETATM   21  N   UNL     1      43.271 -16.525   4.386  1.00  0.00    -0.321 N 
HETATM   22  C   UNL     1      43.683 -17.704   4.982  1.00  0.00     0.279 C 
HETATM   23  O   UNL     1      44.000 -17.837   6.158  1.00  0.00    -0.265 OA
HETATM   24  H   UNL     1      43.021 -16.615   3.407  1.00  0.00     0.169 HD
BRANCH  22  25
HETATM   25  C   UNL     1      43.716 -18.816   4.045  1.00  0.00     0.142 A 
HETATM   26  O   UNL     1      43.971 -20.083   4.510  1.00  0.00    -0.317 OA
HETATM   27  C   UNL     1      43.916 -20.919   3.440  1.00  0.00     0.143 A 
HETATM   28  C   UNL     1      43.636 -20.217   2.292  1.00  0.00     0.027 A 
HETATM   29  C   UNL     1      43.509 -18.862   2.680  1.00  0.00     0.045 A 
ENDBRANCH  22  25
ENDBRANCH   4  21
TORSDOF 7
ENDMDL
MODEL 8
REMARK VINA RESULT:      -7.5      2.504      4.794
REMARK  7 active torsions:
REMARK  status: ('A' for Active; 'I' for Inactive)
REMARK    1  A    between atoms: O_2  and  C_3 
REMARK    2  A    between atoms: C_5  and  C_6 
REMARK    3  A    between atoms: C_6  and  C_7 
REMARK       I    between atoms: C_7  and  N_8 
REMARK    4  A    between atoms: N_8  and  C_9 
REMARK    5  A    between atoms: C_9  and  C_10 
REMARK    6  A    between atoms: C_13  and  N_14 
REMARK       I    between atoms: N_14  and  C_15 
REMARK    7  A    between atoms: C_15  and  C_16 
ROOT
HETATM    1  C   UNL     1      44.537 -10.502   7.866  1.00  0.00    -0.040 A 
HETATM    2  C   UNL     1      45.520 -10.394   8.856  1.00  0.00     0.011 A 
HETATM    3  C   UNL     1      45.229  -9.803  10.092  1.00  0.00     0.030 A 
HETATM    4  C   UNL     1      43.948  -9.320  10.362  1.00  0.00     0.035 A 
HETATM    5  C   UNL     1      42.969  -9.411   9.367  1.00  0.00     0.030 A 
HETATM    6  C   UNL     1      43.258  -9.996   8.131  1.00  0.00     0.011 A 
ENDROOT
BRANCH   1   7
HETATM    7  C   UNL     1      44.825 -11.196   6.563  1.00  0.00     0.161 C 
BRANCH   7   8
HETATM    8  N   UNL     1      44.521 -12.605   6.668  1.00  0.00    -0.357 N 
HETATM    9  C   UNL     1      43.335 -13.110   6.183  1.00  0.00     0.222 C 
HETATM   10  O   UNL     1      42.460 -12.406   5.687  1.00  0.00    -0.273 OA
HETATM   11  H   UNL     1      45.293 -13.243   6.816  1.00  0.00     0.162 HD
BRANCH   9  12
HETATM   12  C   UNL     1      43.192 -14.613   6.334  1.00  0.00     0.141 C 
BRANCH  12  13
HETATM   13  C   UNL     1      43.237 -15.428   5.061  1.00  0.00    -0.047 A 
HETATM   14  C   UNL     1      42.946 -14.905   3.792  1.00  0.00     0.044 A 
HETATM   15  C   UNL     1      43.001 -15.709   2.645  1.00  0.00     0.068 A 
HETATM   16  C   UNL     1      43.344 -17.055   2.767  1.00  0.00     0.037 A 
HETATM   17  C   UNL     1      43.632 -17.591   4.022  1.00  0.00     0.003 A 
HETATM   18  C   UNL     1      43.581 -16.785   5.159  1.00  0.00     0.007 A 
BRANCH  15  19
HETATM   19  O   UNL     1      42.699 -15.061   1.479  1.00  0.00    -0.356 OA
HETATM   20  C   UNL     1      41.325 -14.982   1.124  1.00  0.00     0.210 C 
ENDBRANCH  15  19
ENDBRANCH  12  13
ENDBRANCH   9  12
ENDBRANCH   7   8
ENDBRANCH   1   7
BRANCH   4  21
HETATM   21  N   UNL     1      43.559  -8.767  11.595  1.00  0.00    -0.321 N 
HETATM   22  C   UNL     1      42.937  -9.392  12.661  1.00  0.00     0.279 C 
HETATM   23  O   UNL     1      42.686 -10.589  12.739  1.00  0.00    -0.265 OA
HETATM   24  H   UNL     1      43.710  -7.771  11.723  1.00  0.00     0.169 HD
BRANCH  22  25
HETATM   25  C   UNL     1      42.586  -8.462  13.722  1.00  0.00     0.142 A 
HETATM   26  O   UNL     1      41.546  -8.763  14.567  1.00  0.00    -0.317 OA
HETATM   27  C   UNL     1      41.456  -7.747  15.466  1.00  0.00     0.143 A 
HETATM   28  C   UNL     1      42.414  -6.794  15.215  1.00  0.00     0.027 A 
HETATM   29  C   UNL     1      43.141  -7.251  14.091  1.00  0.00     0.045 A 
ENDBRANCH  22  25
ENDBRANCH   4  21
TORSDOF 7
ENDMDL
MODEL 9
REMARK VINA RESULT:      -7.4      6.759     13.755
REMARK  7 active torsions:
REMARK  status: ('A' for Active; 'I' for Inactive)
REMARK    1  A    between atoms: O_2  and  C_3 
REMARK    2  A    between atoms: C_5  and  C_6 
REMARK    3  A    between atoms: C_6  and  C_7 
REMARK       I    between atoms: C_7  and  N_8 
REMARK    4  A    between atoms: N_8  and  C_9 
REMARK    5  A    between atoms: C_9  and  C_10 
REMARK    6  A    between atoms: C_13  and  N_14 
REMARK       I    between atoms: N_14  and  C_15 
REMARK    7  A    between atoms: C_15  and  C_16 
ROOT
HETATM    1  C   UNL     1      41.563  -8.067  14.744  1.00  0.00    -0.040 A 
HETATM    2  C   UNL     1      42.754  -7.396  14.446  1.00  0.00     0.011 A 
HETATM    3  C   UNL     1      43.490  -7.719  13.300  1.00  0.00     0.030 A 
HETATM    4  C   UNL     1      43.043  -8.713  12.429  1.00  0.00     0.035 A 
HETATM    5  C   UNL     1      41.862  -9.398  12.734  1.00  0.00     0.030 A 
HETATM    6  C   UNL     1      41.128  -9.079  13.880  1.00  0.00     0.011 A 
ENDROOT
BRANCH   1   7
HETATM    7  C   UNL     1      40.733  -7.677  15.937  1.00  0.00     0.161 C 
BRANCH   7   8
HETATM    8  N   UNL     1      41.515  -7.781  17.148  1.00  0.00    -0.357 N 
HETATM    9  C   UNL     1      41.845  -6.658  17.874  1.00  0.00     0.222 C 
HETATM   10  O   UNL     1      41.546  -5.521  17.522  1.00  0.00    -0.273 OA
HETATM   11  H   UNL     1      41.552  -8.681  17.608  1.00  0.00     0.162 HD
BRANCH   9  12
HETATM   12  C   UNL     1      42.631  -6.946  19.139  1.00  0.00     0.141 C 
BRANCH  12  13
HETATM   13  C   UNL     1      41.982  -7.871  20.143  1.00  0.00    -0.047 A 
HETATM   14  C   UNL     1      42.630  -8.979  20.711  1.00  0.00     0.044 A 
HETATM   15  C   UNL     1      41.978  -9.806  21.636  1.00  0.00     0.068 A 
HETATM   16  C   UNL     1      40.659  -9.528  21.995  1.00  0.00     0.037 A 
HETATM   17  C   UNL     1      40.001  -8.432  21.437  1.00  0.00     0.003 A 
HETATM   18  C   UNL     1      40.657  -7.610  20.521  1.00  0.00     0.007 A 
BRANCH  15  19
HETATM   19  O   UNL     1      42.736 -10.843  22.109  1.00  0.00    -0.356 OA
HETATM   20  C   UNL     1      43.268 -11.742  21.144  1.00  0.00     0.210 C 
ENDBRANCH  15  19
ENDBRANCH  12  13
ENDBRANCH   9  12
ENDBRANCH   7   8
ENDBRANCH   1   7
BRANCH   4  21
HETATM   21  N   UNL     1      43.692  -9.059  11.229  1.00  0.00    -0.321 N 
HETATM   22  C   UNL     1      44.241 -10.276  10.867  1.00  0.00     0.279 C 
HETATM   23  O   UNL     1      44.183 -11.309  11.523  1.00  0.00    -0.265 OA
HETATM   24  H   UNL     1      43.817  -8.321  10.543  1.00  0.00     0.169 HD
BRANCH  22  25
HETATM   25  C   UNL     1      44.932 -10.214   9.588  1.00  0.00     0.142 A 
HETATM   26  O   UNL     1      44.808 -11.256   8.703  1.00  0.00    -0.317 OA
HETATM   27  C   UNL     1      45.525 -10.927   7.596  1.00  0.00     0.143 A 
HETATM   28  C   UNL     1      46.113  -9.694   7.751  1.00  0.00     0.027 A 
HETATM   29  C   UNL     1      45.734  -9.234   9.034  1.00  0.00     0.045 A 
ENDBRANCH  22  25
ENDBRANCH   4  21
TORSDOF 7
ENDMDL
MODEL 10
REMARK VINA RESULT:      -7.2      2.831      3.319
REMARK  7 active torsions:
REMARK  status: ('A' for Active; 'I' for Inactive)
REMARK    1  A    between atoms: O_2  and  C_3 
REMARK    2  A    between atoms: C_5  and  C_6 
REMARK    3  A    between atoms: C_6  and  C_7 
REMARK       I    between atoms: C_7  and  N_8 
REMARK    4  A    between atoms: N_8  and  C_9 
REMARK    5  A    between atoms: C_9  and  C_10 
REMARK    6  A    between atoms: C_13  and  N_14 
REMARK       I    between atoms: N_14  and  C_15 
REMARK    7  A    between atoms: C_15  and  C_16 
ROOT
HETATM    1  C   UNL     1      39.265 -11.882   3.865  1.00  0.00    -0.040 A 
HETATM    2  C   UNL     1      39.058 -10.526   4.139  1.00  0.00     0.011 A 
HETATM    3  C   UNL     1      39.516  -9.959   5.335  1.00  0.00     0.030 A 
HETATM    4  C   UNL     1      40.196 -10.738   6.272  1.00  0.00     0.035 A 
HETATM    5  C   UNL     1      40.389 -12.098   6.008  1.00  0.00     0.030 A 
HETATM    6  C   UNL     1      39.929 -12.666   4.816  1.00  0.00     0.011 A 
ENDROOT
BRANCH   1   7
HETATM    7  C   UNL     1      38.836 -12.480   2.552  1.00  0.00     0.161 C 
BRANCH   7   8
HETATM    8  N   UNL     1      39.093 -13.902   2.542  1.00  0.00    -0.357 N 
HETATM    9  C   UNL     1      40.085 -14.435   1.749  1.00  0.00     0.222 C 
HETATM   10  O   UNL     1      40.766 -13.759   0.983  1.00  0.00    -0.273 OA
HETATM   11  H   UNL     1      38.756 -14.447   3.325  1.00  0.00     0.162 HD
BRANCH   9  12
HETATM   12  C   UNL     1      40.253 -15.936   1.888  1.00  0.00     0.141 C 
BRANCH  12  13
HETATM   13  C   UNL     1      41.323 -16.412   2.844  1.00  0.00    -0.047 A 
HETATM   14  C   UNL     1      41.258 -16.236   4.235  1.00  0.00     0.044 A 
HETATM   15  C   UNL     1      42.282 -16.696   5.074  1.00  0.00     0.068 A 
HETATM   16  C   UNL     1      43.390 -17.335   4.517  1.00  0.00     0.037 A 
HETATM   17  C   UNL     1      43.471 -17.515   3.137  1.00  0.00     0.003 A 
HETATM   18  C   UNL     1      42.446 -17.059   2.308  1.00  0.00     0.007 A 
BRANCH  15  19
HETATM   19  O   UNL     1      42.078 -16.459   6.405  1.00  0.00    -0.356 OA
HETATM   20  C   UNL     1      43.201 -16.613   7.265  1.00  0.00     0.210 C 
ENDBRANCH  15  19
ENDBRANCH  12  13
ENDBRANCH   9  12
ENDBRANCH   7   8
ENDBRANCH   1   7
BRANCH   4  21
HETATM   21  N   UNL     1      40.738 -10.235   7.469  1.00  0.00    -0.321 N 
HETATM   22  C   UNL     1      40.077  -9.655   8.536  1.00  0.00     0.279 C 
HETATM   23  O   UNL     1      38.861  -9.551   8.652  1.00  0.00    -0.265 OA
HETATM   24  H   UNL     1      41.748 -10.256   7.563  1.00  0.00     0.169 HD
BRANCH  22  25
HETATM   25  C   UNL     1      40.992  -9.150   9.547  1.00  0.00     0.142 A 
HETATM   26  O   UNL     1      40.889  -9.605  10.839  1.00  0.00    -0.317 OA
HETATM   27  C   UNL     1      41.870  -8.996  11.556  1.00  0.00     0.143 A 
HETATM   28  C   UNL     1      42.602  -8.152  10.754  1.00  0.00     0.027 A 
HETATM   29  C   UNL     1      42.036  -8.248   9.460  1.00  0.00     0.045 A 
ENDBRANCH  22  25
ENDBRANCH   4  21
TORSDOF 7
ENDMDL
