MODEL 1
REMARK VINA RESULT:      -9.4      0.000      0.000
REMARK  3 active torsions:
REMARK  status: ('A' for Active; 'I' for Inactive)
REMARK    1  A    between atoms: C_6  and  N_7 
REMARK       I    between atoms: N_7  and  C_8 
REMARK    2  A    between atoms: C_8  and  C_9 
REMARK    3  A    between atoms: C_9  and  C_10 
ROOT
HETATM    1  C   UNL     1      40.129 -12.677   2.436  1.00  0.00     0.164 C 
HETATM    2  N   UNL     1      39.459 -13.907   2.055  1.00  0.00    -0.245 NA
HETATM    3  C   UNL     1      39.829 -14.591   0.935  1.00  0.00     0.234 C 
HETATM    4  O   UNL     1      40.249 -15.737   1.069  1.00  0.00    -0.274 OA
HETATM    5  C   UNL     1      39.631 -13.969  -0.392  1.00  0.00     0.053 A 
HETATM    6  C   UNL     1      39.503 -12.601  -0.657  1.00  0.00     0.050 A 
HETATM    7  N   UNL     1      39.630 -11.532   0.243  1.00  0.00    -0.325 N 
HETATM    8  C   UNL     1      39.891 -11.452   1.570  1.00  0.00     0.240 C 
HETATM    9  O   UNL     1      40.011 -10.323   2.060  1.00  0.00    -0.271 OA
HETATM   10  C   UNL     1      39.506 -14.893  -1.454  1.00  0.00     0.019 A 
HETATM   11  C   UNL     1      39.234 -14.477  -2.756  1.00  0.00     0.001 A 
HETATM   12  C   UNL     1      39.093 -13.124  -3.019  1.00  0.00     0.002 A 
HETATM   13  C   UNL     1      39.233 -12.201  -1.982  1.00  0.00     0.030 A 
HETATM   14  H   UNL     1      39.406 -14.560   2.829  1.00  0.00     0.131 HD
HETATM   15  H   UNL     1      39.549 -10.599  -0.148  1.00  0.00     0.169 HD
ENDROOT
BRANCH   1  16
HETATM   16  C   UNL     1      41.600 -12.857   2.809  1.00  0.00     0.132 C 
BRANCH  16  17
HETATM   17  C   UNL     1      41.916 -14.073   3.654  1.00  0.00     0.224 C 
HETATM   18  N   UNL     1      42.870 -14.897   3.085  1.00  0.00    -0.327 N 
HETATM   19  H   UNL     1      43.504 -14.486   2.403  1.00  0.00     0.169 HD
HETATM   20  O   UNL     1      41.335 -14.267   4.715  1.00  0.00    -0.273 OA
BRANCH  18  21
HETATM   21  C   UNL     1      43.102 -16.256   3.386  1.00  0.00     0.035 A 
HETATM   22  C   UNL     1      42.970 -17.282   2.443  1.00  0.00     0.043 A 
HETATM   23  C   UNL     1      43.342 -18.603   2.783  1.00  0.00    -0.006 A 
HETATM   24  C   UNL     1      43.816 -18.869   4.070  1.00  0.00     0.044 A 
HETATM   25  C   UNL     1      43.366 -19.828   2.061  1.00  0.00     0.031 A 
HETATM   26  N   UNL     1      44.122 -20.214   4.112  1.00  0.00    -0.360 N 
HETATM   27  C   UNL     1      43.920 -17.861   5.039  1.00  0.00     0.033 A 
HETATM   28  C   UNL     1      44.665 -20.925   5.248  1.00  0.00     0.155 C 
HETATM   29  C   UNL     1      43.851 -20.801   2.903  1.00  0.00     0.091 A 
HETATM   30  C   UNL     1      43.566 -16.556   4.670  1.00  0.00     0.032 A 
ENDBRANCH  18  21
ENDBRANCH  16  17
ENDBRANCH   1  16
TORSDOF 3
ENDMDL
MODEL 2
REMARK VINA RESULT:      -9.3      1.573      7.724
REMARK  3 active torsions:
REMARK  status: ('A' for Active; 'I' for Inactive)
REMARK    1  A    between atoms: C_6  and  N_7 
REMARK       I    between atoms: N_7  and  C_8 
REMARK    2  A    between atoms: C_8  and  C_9 
REMARK    3  A    between atoms: C_9  and  C_10 
ROOT
HETATM    1  C   UNL     1      43.005 -15.892   5.319  1.00  0.00     0.164 C 
HETATM    2  N   UNL     1      43.574 -15.986   3.987  1.00  0.00    -0.245 NA
HETATM    3  C   UNL     1      43.154 -16.939   3.108  1.00  0.00     0.234 C 
HETATM    4  O   UNL     1      42.642 -16.570   2.054  1.00  0.00    -0.274 OA
HETATM    5  C   UNL     1      43.405 -18.365   3.410  1.00  0.00     0.053 A 
HETATM    6  C   UNL     1      43.644 -18.915   4.673  1.00  0.00     0.050 A 
HETATM    7  N   UNL     1      43.602 -18.270   5.918  1.00  0.00    -0.325 N 
HETATM    8  C   UNL     1      43.344 -16.997   6.305  1.00  0.00     0.240 C 
HETATM    9  O   UNL     1      43.315 -16.764   7.519  1.00  0.00    -0.271 OA
HETATM   10  C   UNL     1      43.458 -19.199   2.271  1.00  0.00     0.019 A 
HETATM   11  C   UNL     1      43.766 -20.555   2.373  1.00  0.00     0.001 A 
HETATM   12  C   UNL     1      44.018 -21.101   3.621  1.00  0.00     0.002 A 
HETATM   13  C   UNL     1      43.949 -20.290   4.755  1.00  0.00     0.030 A 
HETATM   14  H   UNL     1      43.572 -15.088   3.515  1.00  0.00     0.131 HD
HETATM   15  H   UNL     1      43.759 -18.851   6.735  1.00  0.00     0.169 HD
ENDROOT
BRANCH   1  16
HETATM   16  C   UNL     1      41.524 -15.518   5.339  1.00  0.00     0.132 C 
BRANCH  16  17
HETATM   17  C   UNL     1      41.125 -14.374   4.433  1.00  0.00     0.224 C 
HETATM   18  N   UNL     1      40.196 -14.736   3.476  1.00  0.00    -0.327 N 
HETATM   19  H   UNL     1      39.619 -15.554   3.662  1.00  0.00     0.169 HD
HETATM   20  O   UNL     1      41.628 -13.264   4.568  1.00  0.00    -0.273 OA
BRANCH  18  21
HETATM   21  C   UNL     1      39.916 -14.059   2.269  1.00  0.00     0.035 A 
HETATM   22  C   UNL     1      40.200 -14.595   1.007  1.00  0.00     0.043 A 
HETATM   23  C   UNL     1      39.776 -13.916  -0.157  1.00  0.00    -0.006 A 
HETATM   24  C   UNL     1      39.096 -12.701  -0.030  1.00  0.00     0.044 A 
HETATM   25  C   UNL     1      39.869 -14.205  -1.547  1.00  0.00     0.031 A 
HETATM   26  N   UNL     1      38.785 -12.283  -1.308  1.00  0.00    -0.360 N 
HETATM   27  C   UNL     1      38.835 -12.132   1.224  1.00  0.00     0.033 A 
HETATM   28  C   UNL     1      38.062 -11.079  -1.654  1.00  0.00     0.155 C 
HETATM   29  C   UNL     1      39.250 -13.184  -2.230  1.00  0.00     0.091 A 
HETATM   30  C   UNL     1      39.246 -12.836   2.364  1.00  0.00     0.032 A 
ENDBRANCH  18  21
ENDBRANCH  16  17
ENDBRANCH   1  16
TORSDOF 3
ENDMDL
MODEL 3
REMARK VINA RESULT:      -8.9      4.542      7.152
REMARK  3 active torsions:
REMARK  status: ('A' for Active; 'I' for Inactive)
REMARK    1  A    between atoms: C_6  and  N_7 
REMARK       I    between atoms: N_7  and  C_8 
REMARK    2  A    between atoms: C_8  and  C_9 
REMARK    3  A    between atoms: C_9  and  C_10 
ROOT
HETATM    1  C   UNL     1      42.212 -11.275   5.858  1.00  0.00     0.164 C 
HETATM    2  N   UNL     1      43.637 -11.003   5.859  1.00  0.00    -0.245 NA
HETATM    3  C   UNL     1      44.399 -11.252   6.962  1.00  0.00     0.234 C 
HETATM    4  O   UNL     1      45.312 -12.069   6.864  1.00  0.00    -0.274 OA
HETATM    5  C   UNL     1      44.162 -10.475   8.197  1.00  0.00     0.053 A 
HETATM    6  C   UNL     1      42.984  -9.802   8.541  1.00  0.00     0.050 A 
HETATM    7  N   UNL     1      41.761  -9.796   7.852  1.00  0.00    -0.325 N 
HETATM    8  C   UNL     1      41.327 -10.382   6.710  1.00  0.00     0.240 C 
HETATM    9  O   UNL     1      40.137 -10.231   6.409  1.00  0.00    -0.271 OA
HETATM   10  C   UNL     1      45.284 -10.384   9.052  1.00  0.00     0.019 A 
HETATM   11  C   UNL     1      45.253  -9.621  10.218  1.00  0.00     0.001 A 
HETATM   12  C   UNL     1      44.094  -8.942  10.553  1.00  0.00     0.002 A 
HETATM   13  C   UNL     1      42.973  -9.039   9.727  1.00  0.00     0.030 A 
HETATM   14  H   UNL     1      44.097 -11.409   5.051  1.00  0.00     0.131 HD
HETATM   15  H   UNL     1      41.001  -9.282   8.285  1.00  0.00     0.169 HD
ENDROOT
BRANCH   1  16
HETATM   16  C   UNL     1      41.859 -12.756   5.994  1.00  0.00     0.132 C 
BRANCH  16  17
HETATM   17  C   UNL     1      42.463 -13.671   4.950  1.00  0.00     0.224 C 
HETATM   18  N   UNL     1      41.867 -14.918   4.910  1.00  0.00    -0.327 N 
HETATM   19  H   UNL     1      40.921 -15.002   5.274  1.00  0.00     0.169 HD
HETATM   20  O   UNL     1      43.401 -13.296   4.256  1.00  0.00    -0.273 OA
BRANCH  18  21
HETATM   21  C   UNL     1      42.415 -16.100   4.366  1.00  0.00     0.035 A 
HETATM   22  C   UNL     1      43.094 -17.053   5.133  1.00  0.00     0.043 A 
HETATM   23  C   UNL     1      43.503 -18.270   4.543  1.00  0.00    -0.006 A 
HETATM   24  C   UNL     1      43.240 -18.495   3.189  1.00  0.00     0.044 A 
HETATM   25  C   UNL     1      44.160 -19.428   5.045  1.00  0.00     0.031 A 
HETATM   26  N   UNL     1      43.720 -19.755   2.894  1.00  0.00    -0.360 N 
HETATM   27  C   UNL     1      42.594 -17.537   2.396  1.00  0.00     0.033 A 
HETATM   28  C   UNL     1      43.645 -20.410   1.607  1.00  0.00     0.155 C 
HETATM   29  C   UNL     1      44.278 -20.325   4.009  1.00  0.00     0.091 A 
HETATM   30  C   UNL     1      42.179 -16.347   3.010  1.00  0.00     0.032 A 
ENDBRANCH  18  21
ENDBRANCH  16  17
ENDBRANCH   1  16
TORSDOF 3
ENDMDL
MODEL 4
REMARK VINA RESULT:      -8.7      6.807      9.736
REMARK  3 active torsions:
REMARK  status: ('A' for Active; 'I' for Inactive)
REMARK    1  A    between atoms: C_6  and  N_7 
REMARK       I    between atoms: N_7  and  C_8 
REMARK    2  A    between atoms: C_8  and  C_9 
REMARK    3  A    between atoms: C_9  and  C_10 
ROOT
HETATM    1  C   UNL     1      43.257 -12.156   6.256  1.00  0.00     0.164 C 
HETATM    2  N   UNL     1      42.505 -13.286   6.771  1.00  0.00    -0.245 NA
HETATM    3  C   UNL     1      42.939 -14.564   6.584  1.00  0.00     0.234 C 
HETATM    4  O   UNL     1      43.199 -15.239   7.577  1.00  0.00    -0.274 OA
HETATM    5  C   UNL     1      42.998 -15.116   5.213  1.00  0.00     0.053 A 
HETATM    6  C   UNL     1      43.070 -14.381   4.025  1.00  0.00     0.050 A 
HETATM    7  N   UNL     1      43.199 -12.992   3.876  1.00  0.00    -0.325 N 
HETATM    8  C   UNL     1      43.285 -11.961   4.750  1.00  0.00     0.240 C 
HETATM    9  O   UNL     1      43.470 -10.831   4.283  1.00  0.00    -0.271 OA
HETATM   10  C   UNL     1      42.910 -16.525   5.150  1.00  0.00     0.019 A 
HETATM   11  C   UNL     1      42.868 -17.200   3.931  1.00  0.00     0.001 A 
HETATM   12  C   UNL     1      42.925 -16.474   2.752  1.00  0.00     0.002 A 
HETATM   13  C   UNL     1      43.032 -15.083   2.802  1.00  0.00     0.030 A 
HETATM   14  H   UNL     1      42.270 -13.165   7.750  1.00  0.00     0.131 HD
HETATM   15  H   UNL     1      43.282 -12.644   2.926  1.00  0.00     0.169 HD
ENDROOT
BRANCH   1  16
HETATM   16  C   UNL     1      44.632 -11.978   6.899  1.00  0.00     0.132 C 
BRANCH  16  17
HETATM   17  C   UNL     1      44.658 -11.158   8.172  1.00  0.00     0.224 C 
HETATM   18  N   UNL     1      43.397 -10.827   8.631  1.00  0.00    -0.327 N 
HETATM   19  H   UNL     1      42.617 -11.411   8.336  1.00  0.00     0.169 HD
HETATM   20  O   UNL     1      45.723 -10.830   8.683  1.00  0.00    -0.273 OA
BRANCH  18  21
HETATM   21  C   UNL     1      43.069  -9.781   9.521  1.00  0.00     0.035 A 
HETATM   22  C   UNL     1      43.246  -9.870  10.906  1.00  0.00     0.043 A 
HETATM   23  C   UNL     1      43.016  -8.738  11.721  1.00  0.00    -0.006 A 
HETATM   24  C   UNL     1      42.590  -7.546  11.128  1.00  0.00     0.044 A 
HETATM   25  C   UNL     1      43.139  -8.496  13.117  1.00  0.00     0.031 A 
HETATM   26  N   UNL     1      42.471  -6.618  12.142  1.00  0.00    -0.360 N 
HETATM   27  C   UNL     1      42.372  -7.449   9.746  1.00  0.00     0.033 A 
HETATM   28  C   UNL     1      42.074  -5.236  11.983  1.00  0.00     0.155 C 
HETATM   29  C   UNL     1      42.799  -7.184  13.346  1.00  0.00     0.091 A 
HETATM   30  C   UNL     1      42.629  -8.579   8.959  1.00  0.00     0.032 A 
ENDBRANCH  18  21
ENDBRANCH  16  17
ENDBRANCH   1  16
TORSDOF 3
ENDMDL
MODEL 5
REMARK VINA RESULT:      -8.6      4.326      7.913
REMARK  3 active torsions:
REMARK  status: ('A' for Active; 'I' for Inactive)
REMARK    1  A    between atoms: C_6  and  N_7 
REMARK       I    between atoms: N_7  and  C_8 
REMARK    2  A    between atoms: C_8  and  C_9 
REMARK    3  A    between atoms: C_9  and  C_10 
ROOT
HETATM    1  C   UNL     1      42.185 -14.250   3.075  1.00  0.00     0.164 C 
HETATM    2  N   UNL     1      42.210 -14.872   4.386  1.00  0.00    -0.245 NA
HETATM    3  C   UNL     1      43.227 -15.702   4.752  1.00  0.00     0.234 C 
HETATM    4  O   UNL     1      43.921 -15.381   5.713  1.00  0.00    -0.274 OA
HETATM    5  C   UNL     1      43.403 -16.988   4.043  1.00  0.00     0.053 A 
HETATM    6  C   UNL     1      42.933 -17.301   2.762  1.00  0.00     0.050 A 
HETATM    7  N   UNL     1      42.291 -16.452   1.848  1.00  0.00    -0.325 N 
HETATM    8  C   UNL     1      41.925 -15.149   1.878  1.00  0.00     0.240 C 
HETATM    9  O   UNL     1      41.428 -14.671   0.851  1.00  0.00    -0.271 OA
HETATM   10  C   UNL     1      44.064 -17.983   4.798  1.00  0.00     0.019 A 
HETATM   11  C   UNL     1      44.239 -19.276   4.308  1.00  0.00     0.001 A 
HETATM   12  C   UNL     1      43.762 -19.593   3.047  1.00  0.00     0.002 A 
HETATM   13  C   UNL     1      43.124 -18.614   2.284  1.00  0.00     0.030 A 
HETATM   14  H   UNL     1      42.066 -14.193   5.126  1.00  0.00     0.131 HD
HETATM   15  H   UNL     1      42.064 -16.851   0.943  1.00  0.00     0.169 HD
ENDROOT
BRANCH   1  16
HETATM   16  C   UNL     1      43.324 -13.261   2.832  1.00  0.00     0.132 C 
BRANCH  16  17
HETATM   17  C   UNL     1      43.354 -12.058   3.751  1.00  0.00     0.224 C 
HETATM   18  N   UNL     1      43.887 -12.338   4.995  1.00  0.00    -0.327 N 
HETATM   19  H   UNL     1      44.507 -13.141   5.075  1.00  0.00     0.169 HD
HETATM   20  O   UNL     1      42.913 -10.976   3.380  1.00  0.00    -0.273 OA
BRANCH  18  21
HETATM   21  C   UNL     1      43.707 -11.591   6.180  1.00  0.00     0.035 A 
HETATM   22  C   UNL     1      44.710 -11.426   7.141  1.00  0.00     0.043 A 
HETATM   23  C   UNL     1      44.499 -10.560   8.238  1.00  0.00    -0.006 A 
HETATM   24  C   UNL     1      43.275  -9.897   8.358  1.00  0.00     0.044 A 
HETATM   25  C   UNL     1      45.309 -10.156   9.335  1.00  0.00     0.031 A 
HETATM   26  N   UNL     1      43.357  -9.112   9.491  1.00  0.00    -0.360 N 
HETATM   27  C   UNL     1      42.245 -10.078   7.425  1.00  0.00     0.033 A 
HETATM   28  C   UNL     1      42.321  -8.236   9.991  1.00  0.00     0.155 C 
HETATM   29  C   UNL     1      44.581  -9.264  10.087  1.00  0.00     0.091 A 
HETATM   30  C   UNL     1      42.487 -10.925   6.334  1.00  0.00     0.032 A 
ENDBRANCH  18  21
ENDBRANCH  16  17
ENDBRANCH   1  16
TORSDOF 3
ENDMDL
MODEL 6
REMARK VINA RESULT:      -8.6     14.339     16.453
REMARK  3 active torsions:
REMARK  status: ('A' for Active; 'I' for Inactive)
REMARK    1  A    between atoms: C_6  and  N_7 
REMARK       I    between atoms: N_7  and  C_8 
REMARK    2  A    between atoms: C_8  and  C_9 
REMARK    3  A    between atoms: C_9  and  C_10 
ROOT
HETATM    1  C   UNL     1      45.696 -28.900   2.410  1.00  0.00     0.164 C 
HETATM    2  N   UNL     1      44.364 -28.814   1.839  1.00  0.00    -0.245 NA
HETATM    3  C   UNL     1      44.048 -29.472   0.688  1.00  0.00     0.234 C 
HETATM    4  O   UNL     1      43.165 -30.324   0.731  1.00  0.00    -0.274 OA
HETATM    5  C   UNL     1      44.709 -29.080  -0.576  1.00  0.00     0.053 A 
HETATM    6  C   UNL     1      45.929 -28.406  -0.699  1.00  0.00     0.050 A 
HETATM    7  N   UNL     1      46.824 -28.047   0.320  1.00  0.00    -0.325 N 
HETATM    8  C   UNL     1      46.823 -28.206   1.666  1.00  0.00     0.240 C 
HETATM    9  O   UNL     1      47.825 -27.830   2.285  1.00  0.00    -0.271 OA
HETATM   10  C   UNL     1      43.968 -29.385  -1.739  1.00  0.00     0.019 A 
HETATM   11  C   UNL     1      44.411 -29.010  -3.006  1.00  0.00     0.001 A 
HETATM   12  C   UNL     1      45.611 -28.330  -3.131  1.00  0.00     0.002 A 
HETATM   13  C   UNL     1      46.362 -28.040  -1.991  1.00  0.00     0.030 A 
HETATM   14  H   UNL     1      43.647 -29.009   2.529  1.00  0.00     0.131 HD
HETATM   15  H   UNL     1      47.687 -27.600   0.028  1.00  0.00     0.169 HD
ENDROOT
BRANCH   1  16
HETATM   16  C   UNL     1      46.079 -30.299   2.888  1.00  0.00     0.132 C 
BRANCH  16  17
HETATM   17  C   UNL     1      46.903 -31.120   1.919  1.00  0.00     0.224 C 
HETATM   18  N   UNL     1      48.265 -30.969   2.098  1.00  0.00    -0.327 N 
HETATM   19  H   UNL     1      48.590 -30.654   3.010  1.00  0.00     0.169 HD
HETATM   20  O   UNL     1      46.359 -31.813   1.065  1.00  0.00    -0.273 OA
BRANCH  18  21
HETATM   21  C   UNL     1      49.279 -31.255   1.159  1.00  0.00     0.035 A 
HETATM   22  C   UNL     1      49.387 -30.602  -0.074  1.00  0.00     0.043 A 
HETATM   23  C   UNL     1      50.500 -30.850  -0.908  1.00  0.00    -0.006 A 
HETATM   24  C   UNL     1      51.471 -31.766  -0.495  1.00  0.00     0.044 A 
HETATM   25  C   UNL     1      50.914 -30.333  -2.167  1.00  0.00     0.031 A 
HETATM   26  N   UNL     1      52.440 -31.790  -1.478  1.00  0.00    -0.360 N 
HETATM   27  C   UNL     1      51.362 -32.457   0.719  1.00  0.00     0.033 A 
HETATM   28  C   UNL     1      53.647 -32.587  -1.459  1.00  0.00     0.155 C 
HETATM   29  C   UNL     1      52.110 -30.928  -2.492  1.00  0.00     0.091 A 
HETATM   30  C   UNL     1      50.259 -32.177   1.538  1.00  0.00     0.032 A 
ENDBRANCH  18  21
ENDBRANCH  16  17
ENDBRANCH   1  16
TORSDOF 3
ENDMDL
MODEL 7
REMARK VINA RESULT:      -8.5      1.832      2.578
REMARK  3 active torsions:
REMARK  status: ('A' for Active; 'I' for Inactive)
REMARK    1  A    between atoms: C_6  and  N_7 
REMARK       I    between atoms: N_7  and  C_8 
REMARK    2  A    between atoms: C_8  and  C_9 
REMARK    3  A    between atoms: C_9  and  C_10 
ROOT
HETATM    1  C   UNL     1      40.046 -13.461   1.328  1.00  0.00     0.164 C 
HETATM    2  N   UNL     1      39.571 -14.136   0.135  1.00  0.00    -0.245 NA
HETATM    3  C   UNL     1      39.443 -13.469  -1.047  1.00  0.00     0.234 C 
HETATM    4  O   UNL     1      40.115 -13.849  -2.003  1.00  0.00    -0.274 OA
HETATM    5  C   UNL     1      38.448 -12.381  -1.161  1.00  0.00     0.053 A 
HETATM    6  C   UNL     1      37.899 -11.645  -0.105  1.00  0.00     0.050 A 
HETATM    7  N   UNL     1      38.234 -11.707   1.256  1.00  0.00    -0.325 N 
HETATM    8  C   UNL     1      39.124 -12.438   1.969  1.00  0.00     0.240 C 
HETATM    9  O   UNL     1      39.226 -12.193   3.177  1.00  0.00    -0.271 OA
HETATM   10  C   UNL     1      37.996 -12.141  -2.478  1.00  0.00     0.019 A 
HETATM   11  C   UNL     1      37.000 -11.205  -2.749  1.00  0.00     0.001 A 
HETATM   12  C   UNL     1      36.443 -10.485  -1.704  1.00  0.00     0.002 A 
HETATM   13  C   UNL     1      36.894 -10.700  -0.401  1.00  0.00     0.030 A 
HETATM   14  H   UNL     1      40.077 -14.998  -0.035  1.00  0.00     0.131 HD
HETATM   15  H   UNL     1      37.755 -11.056   1.871  1.00  0.00     0.169 HD
ENDROOT
BRANCH   1  16
HETATM   16  C   UNL     1      41.492 -12.975   1.236  1.00  0.00     0.132 C 
BRANCH  16  17
HETATM   17  C   UNL     1      42.511 -13.806   1.985  1.00  0.00     0.224 C 
HETATM   18  N   UNL     1      42.288 -15.166   1.880  1.00  0.00    -0.327 N 
HETATM   19  H   UNL     1      41.745 -15.496   1.084  1.00  0.00     0.169 HD
HETATM   20  O   UNL     1      43.409 -13.269   2.624  1.00  0.00    -0.273 OA
BRANCH  18  21
HETATM   21  C   UNL     1      42.778 -16.173   2.739  1.00  0.00     0.035 A 
HETATM   22  C   UNL     1      42.661 -16.114   4.133  1.00  0.00     0.043 A 
HETATM   23  C   UNL     1      43.061 -17.217   4.920  1.00  0.00    -0.006 A 
HETATM   24  C   UNL     1      43.591 -18.348   4.292  1.00  0.00     0.044 A 
HETATM   25  C   UNL     1      43.036 -17.481   6.317  1.00  0.00     0.031 A 
HETATM   26  N   UNL     1      43.866 -19.264   5.288  1.00  0.00    -0.360 N 
HETATM   27  C   UNL     1      43.749 -18.411   2.901  1.00  0.00     0.033 A 
HETATM   28  C   UNL     1      44.411 -20.589   5.092  1.00  0.00     0.155 C 
HETATM   29  C   UNL     1      43.536 -18.748   6.514  1.00  0.00     0.091 A 
HETATM   30  C   UNL     1      43.325 -17.312   2.141  1.00  0.00     0.032 A 
ENDBRANCH  18  21
ENDBRANCH  16  17
ENDBRANCH   1  16
TORSDOF 3
ENDMDL
MODEL 8
REMARK VINA RESULT:      -8.4      6.966      9.393
REMARK  3 active torsions:
REMARK  status: ('A' for Active; 'I' for Inactive)
REMARK    1  A    between atoms: C_6  and  N_7 
REMARK       I    between atoms: N_7  and  C_8 
REMARK    2  A    between atoms: C_8  and  C_9 
REMARK    3  A    between atoms: C_9  and  C_10 
ROOT
HETATM    1  C   UNL     1      43.727  -8.927   8.262  1.00  0.00     0.164 C 
HETATM    2  N   UNL     1      44.569  -9.344   9.369  1.00  0.00    -0.245 NA
HETATM    3  C   UNL     1      44.033  -9.638  10.587  1.00  0.00     0.234 C 
HETATM    4  O   UNL     1      44.175 -10.778  11.023  1.00  0.00    -0.274 OA
HETATM    5  C   UNL     1      43.383  -8.566  11.371  1.00  0.00     0.053 A 
HETATM    6  C   UNL     1      42.861  -7.369  10.867  1.00  0.00     0.050 A 
HETATM    7  N   UNL     1      42.752  -6.973   9.526  1.00  0.00    -0.325 N 
HETATM    8  C   UNL     1      43.087  -7.552   8.348  1.00  0.00     0.240 C 
HETATM    9  O   UNL     1      42.782  -6.953   7.310  1.00  0.00    -0.271 OA
HETATM   10  C   UNL     1      43.368  -8.793  12.766  1.00  0.00     0.019 A 
HETATM   11  C   UNL     1      42.866  -7.844  13.655  1.00  0.00     0.001 A 
HETATM   12  C   UNL     1      42.361  -6.652  13.160  1.00  0.00     0.002 A 
HETATM   13  C   UNL     1      42.354  -6.424  11.784  1.00  0.00     0.030 A 
HETATM   14  H   UNL     1      45.194 -10.096   9.101  1.00  0.00     0.131 HD
HETATM   15  H   UNL     1      42.299  -6.081   9.353  1.00  0.00     0.169 HD
ENDROOT
BRANCH   1  16
HETATM   16  C   UNL     1      42.754 -10.001   7.779  1.00  0.00     0.132 C 
BRANCH  16  17
HETATM   17  C   UNL     1      43.362 -11.107   6.943  1.00  0.00     0.224 C 
HETATM   18  N   UNL     1      42.420 -11.960   6.401  1.00  0.00    -0.327 N 
HETATM   19  H   UNL     1      41.471 -11.609   6.292  1.00  0.00     0.169 HD
HETATM   20  O   UNL     1      44.579 -11.200   6.817  1.00  0.00    -0.273 OA
BRANCH  18  21
HETATM   21  C   UNL     1      42.639 -13.271   5.926  1.00  0.00     0.035 A 
HETATM   22  C   UNL     1      42.537 -13.623   4.575  1.00  0.00     0.043 A 
HETATM   23  C   UNL     1      42.895 -14.925   4.157  1.00  0.00    -0.006 A 
HETATM   24  C   UNL     1      43.327 -15.853   5.109  1.00  0.00     0.044 A 
HETATM   25  C   UNL     1      42.941 -15.567   2.889  1.00  0.00     0.031 A 
HETATM   26  N   UNL     1      43.629 -17.013   4.426  1.00  0.00    -0.360 N 
HETATM   27  C   UNL     1      43.401 -15.529   6.471  1.00  0.00     0.033 A 
HETATM   28  C   UNL     1      44.134 -18.235   5.012  1.00  0.00     0.155 C 
HETATM   29  C   UNL     1      43.397 -16.850   3.085  1.00  0.00     0.091 A 
HETATM   30  C   UNL     1      43.061 -14.225   6.857  1.00  0.00     0.032 A 
ENDBRANCH  18  21
ENDBRANCH  16  17
ENDBRANCH   1  16
TORSDOF 3
ENDMDL
MODEL 9
REMARK VINA RESULT:      -8.4      2.467      8.330
REMARK  3 active torsions:
REMARK  status: ('A' for Active; 'I' for Inactive)
REMARK    1  A    between atoms: C_6  and  N_7 
REMARK       I    between atoms: N_7  and  C_8 
REMARK    2  A    between atoms: C_8  and  C_9 
REMARK    3  A    between atoms: C_9  and  C_10 
ROOT
HETATM    1  C   UNL     1      43.175 -15.587   5.076  1.00  0.00     0.164 C 
HETATM    2  N   UNL     1      43.588 -15.766   3.696  1.00  0.00    -0.245 NA
HETATM    3  C   UNL     1      43.062 -16.762   2.929  1.00  0.00     0.234 C 
HETATM    4  O   UNL     1      42.436 -16.447   1.919  1.00  0.00    -0.274 OA
HETATM    5  C   UNL     1      43.334 -18.171   3.283  1.00  0.00     0.053 A 
HETATM    6  C   UNL     1      43.711 -18.652   4.542  1.00  0.00     0.050 A 
HETATM    7  N   UNL     1      43.816 -17.935   5.744  1.00  0.00    -0.325 N 
HETATM    8  C   UNL     1      43.615 -16.638   6.081  1.00  0.00     0.240 C 
HETATM    9  O   UNL     1      43.727 -16.335   7.275  1.00  0.00    -0.271 OA
HETATM   10  C   UNL     1      43.250 -19.071   2.197  1.00  0.00     0.019 A 
HETATM   11  C   UNL     1      43.556 -20.423   2.344  1.00  0.00     0.001 A 
HETATM   12  C   UNL     1      43.944 -20.900   3.585  1.00  0.00     0.002 A 
HETATM   13  C   UNL     1      44.012 -20.024   4.670  1.00  0.00     0.030 A 
HETATM   14  H   UNL     1      43.539 -14.897   3.175  1.00  0.00     0.131 HD
HETATM   15  H   UNL     1      44.061 -18.470   6.570  1.00  0.00     0.169 HD
ENDROOT
BRANCH   1  16
HETATM   16  C   UNL     1      41.709 -15.191   5.243  1.00  0.00     0.132 C 
BRANCH  16  17
HETATM   17  C   UNL     1      41.371 -13.762   4.873  1.00  0.00     0.224 C 
HETATM   18  N   UNL     1      40.037 -13.583   4.560  1.00  0.00    -0.327 N 
HETATM   19  H   UNL     1      39.370 -14.258   4.927  1.00  0.00     0.169 HD
HETATM   20  O   UNL     1      42.242 -12.899   4.849  1.00  0.00    -0.273 OA
BRANCH  18  21
HETATM   21  C   UNL     1      39.478 -12.521   3.816  1.00  0.00     0.035 A 
HETATM   22  C   UNL     1      39.021 -12.664   2.502  1.00  0.00     0.043 A 
HETATM   23  C   UNL     1      38.357 -11.591   1.865  1.00  0.00    -0.006 A 
HETATM   24  C   UNL     1      38.188 -10.388   2.556  1.00  0.00     0.044 A 
HETATM   25  C   UNL     1      37.755 -11.433   0.587  1.00  0.00     0.031 A 
HETATM   26  N   UNL     1      37.496  -9.539   1.715  1.00  0.00    -0.360 N 
HETATM   27  C   UNL     1      38.672 -10.214   3.860  1.00  0.00     0.033 A 
HETATM   28  C   UNL     1      37.084  -8.189   2.026  1.00  0.00     0.155 C 
HETATM   29  C   UNL     1      37.232 -10.163   0.523  1.00  0.00     0.091 A 
HETATM   30  C   UNL     1      39.307 -11.300   4.477  1.00  0.00     0.032 A 
ENDBRANCH  18  21
ENDBRANCH  16  17
ENDBRANCH   1  16
TORSDOF 3
ENDMDL
MODEL 10
REMARK VINA RESULT:      -8.3      3.602      8.269
REMARK  3 active torsions:
REMARK  status: ('A' for Active; 'I' for Inactive)
REMARK    1  A    between atoms: C_6  and  N_7 
REMARK       I    between atoms: N_7  and  C_8 
REMARK    2  A    between atoms: C_8  and  C_9 
REMARK    3  A    between atoms: C_9  and  C_10 
ROOT
HETATM    1  C   UNL     1      42.671 -15.917   5.525  1.00  0.00     0.164 C 
HETATM    2  N   UNL     1      42.939 -15.849   4.100  1.00  0.00    -0.245 NA
HETATM    3  C   UNL     1      42.508 -16.829   3.256  1.00  0.00     0.234 C 
HETATM    4  O   UNL     1      41.720 -16.521   2.365  1.00  0.00    -0.274 OA
HETATM    5  C   UNL     1      43.065 -18.193   3.384  1.00  0.00     0.053 A 
HETATM    6  C   UNL     1      43.670 -18.738   4.522  1.00  0.00     0.050 A 
HETATM    7  N   UNL     1      43.791 -18.162   5.795  1.00  0.00    -0.325 N 
HETATM    8  C   UNL     1      43.407 -16.977   6.327  1.00  0.00     0.240 C 
HETATM    9  O   UNL     1      43.606 -16.802   7.534  1.00  0.00    -0.271 OA
HETATM   10  C   UNL     1      43.011 -18.956   2.196  1.00  0.00     0.019 A 
HETATM   11  C   UNL     1      43.566 -20.233   2.124  1.00  0.00     0.001 A 
HETATM   12  C   UNL     1      44.178 -20.771   3.244  1.00  0.00     0.002 A 
HETATM   13  C   UNL     1      44.221 -20.033   4.428  1.00  0.00     0.030 A 
HETATM   14  H   UNL     1      42.676 -14.950   3.712  1.00  0.00     0.131 HD
HETATM   15  H   UNL     1      44.224 -18.735   6.512  1.00  0.00     0.169 HD
ENDROOT
BRANCH   1  16
HETATM   16  C   UNL     1      41.189 -15.830   5.885  1.00  0.00     0.132 C 
BRANCH  16  17
HETATM   17  C   UNL     1      40.563 -14.457   5.756  1.00  0.00     0.224 C 
HETATM   18  N   UNL     1      40.990 -13.768   4.636  1.00  0.00    -0.327 N 
HETATM   19  H   UNL     1      41.357 -14.312   3.857  1.00  0.00     0.169 HD
HETATM   20  O   UNL     1      39.781 -14.043   6.604  1.00  0.00    -0.273 OA
BRANCH  18  21
HETATM   21  C   UNL     1      40.927 -12.374   4.426  1.00  0.00     0.035 A 
HETATM   22  C   UNL     1      39.788 -11.725   3.934  1.00  0.00     0.043 A 
HETATM   23  C   UNL     1      39.755 -10.313   3.870  1.00  0.00    -0.006 A 
HETATM   24  C   UNL     1      40.874  -9.585   4.281  1.00  0.00     0.044 A 
HETATM   25  C   UNL     1      38.763  -9.376   3.469  1.00  0.00     0.031 A 
HETATM   26  N   UNL     1      40.556  -8.249   4.136  1.00  0.00    -0.360 N 
HETATM   27  C   UNL     1      42.036 -10.219   4.742  1.00  0.00     0.033 A 
HETATM   28  C   UNL     1      41.416  -7.133   4.461  1.00  0.00     0.155 C 
HETATM   29  C   UNL     1      39.283  -8.115   3.645  1.00  0.00     0.091 A 
HETATM   30  C   UNL     1      42.036 -11.618   4.816  1.00  0.00     0.032 A 
ENDBRANCH  18  21
ENDBRANCH  16  17
ENDBRANCH   1  16
TORSDOF 3
ENDMDL
