MODEL 1
REMARK VINA RESULT:      -9.8      0.000      0.000
REMARK  6 active torsions:
REMARK  status: ('A' for Active; 'I' for Inactive)
REMARK    1  A    between atoms: O_2  and  C_3 
REMARK    2  A    between atoms: C_5  and  C_6 
REMARK    3  A    between atoms: C_12  and  C_13 
REMARK       I    between atoms: C_13  and  N_14 
REMARK    4  A    between atoms: N_14  and  C_15 
REMARK    5  A    between atoms: C_17  and  O_18 
REMARK    6  A    between atoms: C_23  and  C_24 
ROOT
HETATM    1  C   UNL     1      43.725 -16.675   4.547  1.00  0.00     0.118 C 
HETATM    2  N   UNL     1      42.562 -16.291   3.734  1.00  0.00    -0.365 N 
HETATM    3  C   UNL     1      42.332 -14.953   3.593  1.00  0.00     0.138 C 
HETATM    4  N   UNL     1      42.849 -14.053   4.500  1.00  0.00    -0.240 N 
HETATM    5  N   UNL     1      42.731 -12.776   4.107  1.00  0.00    -0.181 NA
HETATM    6  C   UNL     1      41.983 -12.860   3.003  1.00  0.00     0.160 C 
HETATM    7  C   UNL     1      41.666 -14.194   2.648  1.00  0.00     0.096 C 
HETATM    8  C   UNL     1      43.666 -14.409   5.647  1.00  0.00     0.221 C 
HETATM    9  C   UNL     1      43.657 -15.929   5.884  1.00  0.00     0.066 C 
HETATM   10  H   UNL     1      42.478 -16.880   2.902  1.00  0.00     0.161 HD
ENDROOT
BRANCH   7  11
HETATM   11  C   UNL     1      40.867 -14.605   1.509  1.00  0.00     0.261 C 
HETATM   12  N   UNL     1      40.821 -13.664   0.498  1.00  0.00    -0.323 N 
HETATM   13  H   UNL     1      41.408 -12.848   0.633  1.00  0.00     0.169 HD
HETATM   14  O   UNL     1      40.355 -15.719   1.481  1.00  0.00    -0.267 OA
BRANCH  12  15
HETATM   15  C   UNL     1      40.178 -13.784  -0.752  1.00  0.00     0.037 A 
HETATM   16  C   UNL     1      39.447 -14.908  -1.146  1.00  0.00     0.066 A 
HETATM   17  C   UNL     1      38.857 -14.946  -2.409  1.00  0.00     0.067 A 
HETATM   18  C   UNL     1      38.982 -13.882  -3.292  1.00  0.00     0.036 A 
HETATM   19  C   UNL     1      39.701 -12.755  -2.905  1.00  0.00     0.005 A 
HETATM   20  C   UNL     1      40.292 -12.703  -1.639  1.00  0.00     0.029 A 
BRANCH  17  21
HETATM   21  O   UNL     1      38.139 -16.032  -2.821  1.00  0.00    -0.361 OA
HETATM   22  H   UNL     1      37.280 -16.023  -2.367  1.00  0.00     0.217 HD
ENDBRANCH  17  21
ENDBRANCH  12  15
ENDBRANCH   7  11
BRANCH   1  23
HETATM   23  C   UNL     1      43.770 -18.176   4.739  1.00  0.00    -0.033 A 
HETATM   24  C   UNL     1      43.911 -19.056   3.653  1.00  0.00     0.046 A 
HETATM   25  C   UNL     1      43.893 -20.443   3.834  1.00  0.00     0.068 A 
HETATM   26  C   UNL     1      43.748 -20.963   5.119  1.00  0.00     0.037 A 
HETATM   27  C   UNL     1      43.619 -20.103   6.211  1.00  0.00     0.003 A 
HETATM   28  C   UNL     1      43.628 -18.721   6.024  1.00  0.00     0.009 A 
BRANCH  25  29
HETATM   29  O   UNL     1      44.022 -21.172   2.683  1.00  0.00    -0.356 OA
HETATM   30  C   UNL     1      43.556 -20.563   1.484  1.00  0.00     0.210 C 
ENDBRANCH  25  29
ENDBRANCH   1  23
BRANCH   8  31
HETATM   31  C   UNL     1      43.202 -13.696   6.899  1.00  0.00     0.409 C 
HETATM   32  F   UNL     1      41.930 -13.252   6.795  1.00  0.00    -0.169 F 
HETATM   33  F   UNL     1      43.226 -14.561   7.949  1.00  0.00    -0.169 F 
HETATM   34  F   UNL     1      43.985 -12.657   7.253  1.00  0.00    -0.169 F 
ENDBRANCH   8  31
TORSDOF 6
ENDMDL
MODEL 2
REMARK VINA RESULT:      -9.4      3.891      7.200
REMARK  6 active torsions:
REMARK  status: ('A' for Active; 'I' for Inactive)
REMARK    1  A    between atoms: O_2  and  C_3 
REMARK    2  A    between atoms: C_5  and  C_6 
REMARK    3  A    between atoms: C_12  and  C_13 
REMARK       I    between atoms: C_13  and  N_14 
REMARK    4  A    between atoms: N_14  and  C_15 
REMARK    5  A    between atoms: C_17  and  O_18 
REMARK    6  A    between atoms: C_23  and  C_24 
ROOT
HETATM    1  C   UNL     1      41.580 -15.715   2.944  1.00  0.00     0.118 C 
HETATM    2  N   UNL     1      42.459 -14.547   3.105  1.00  0.00    -0.365 N 
HETATM    3  C   UNL     1      41.913 -13.330   2.818  1.00  0.00     0.138 C 
HETATM    4  N   UNL     1      40.802 -13.233   2.008  1.00  0.00    -0.240 N 
HETATM    5  N   UNL     1      40.253 -12.009   2.004  1.00  0.00    -0.181 NA
HETATM    6  C   UNL     1      41.127 -11.276   2.699  1.00  0.00     0.160 C 
HETATM    7  C   UNL     1      42.210 -12.036   3.204  1.00  0.00     0.096 C 
HETATM    8  C   UNL     1      40.113 -14.362   1.406  1.00  0.00     0.221 C 
HETATM    9  C   UNL     1      40.933 -15.656   1.556  1.00  0.00     0.066 C 
HETATM   10  H   UNL     1      43.033 -14.626   3.947  1.00  0.00     0.161 HD
ENDROOT
BRANCH   7  11
HETATM   11  C   UNL     1      43.318 -11.524   3.989  1.00  0.00     0.261 C 
HETATM   12  N   UNL     1      43.076 -11.522   5.351  1.00  0.00    -0.323 N 
HETATM   13  H   UNL     1      42.202 -11.948   5.640  1.00  0.00     0.169 HD
HETATM   14  O   UNL     1      44.365 -11.196   3.443  1.00  0.00    -0.267 OA
BRANCH  12  15
HETATM   15  C   UNL     1      43.966 -11.138   6.376  1.00  0.00     0.037 A 
HETATM   16  C   UNL     1      45.357 -11.150   6.242  1.00  0.00     0.066 A 
HETATM   17  C   UNL     1      46.162 -10.769   7.316  1.00  0.00     0.067 A 
HETATM   18  C   UNL     1      45.605 -10.374   8.525  1.00  0.00     0.036 A 
HETATM   19  C   UNL     1      44.221 -10.352   8.664  1.00  0.00     0.005 A 
HETATM   20  C   UNL     1      43.404 -10.727   7.593  1.00  0.00     0.029 A 
BRANCH  17  21
HETATM   21  O   UNL     1      47.523 -10.772   7.215  1.00  0.00    -0.361 OA
HETATM   22  H   UNL     1      47.848 -11.650   7.479  1.00  0.00     0.217 HD
ENDBRANCH  17  21
ENDBRANCH  12  15
ENDBRANCH   7  11
BRANCH   1  23
HETATM   23  C   UNL     1      42.356 -16.999   3.151  1.00  0.00    -0.033 A 
HETATM   24  C   UNL     1      42.894 -17.344   4.402  1.00  0.00     0.046 A 
HETATM   25  C   UNL     1      43.658 -18.504   4.570  1.00  0.00     0.068 A 
HETATM   26  C   UNL     1      43.877 -19.342   3.478  1.00  0.00     0.037 A 
HETATM   27  C   UNL     1      43.340 -19.020   2.230  1.00  0.00     0.003 A 
HETATM   28  C   UNL     1      42.587 -17.858   2.066  1.00  0.00     0.009 A 
BRANCH  25  29
HETATM   29  O   UNL     1      44.131 -18.699   5.839  1.00  0.00    -0.356 OA
HETATM   30  C   UNL     1      43.457 -18.009   6.886  1.00  0.00     0.210 C 
ENDBRANCH  25  29
ENDBRANCH   1  23
BRANCH   8  31
HETATM   31  C   UNL     1      39.818 -14.113  -0.056  1.00  0.00     0.409 C 
HETATM   32  F   UNL     1      38.875 -13.161  -0.236  1.00  0.00    -0.169 F 
HETATM   33  F   UNL     1      40.943 -13.665  -0.677  1.00  0.00    -0.169 F 
HETATM   34  F   UNL     1      39.436 -15.219  -0.728  1.00  0.00    -0.169 F 
ENDBRANCH   8  31
TORSDOF 6
ENDMDL
MODEL 3
REMARK VINA RESULT:      -9.2      4.052      7.206
REMARK  6 active torsions:
REMARK  status: ('A' for Active; 'I' for Inactive)
REMARK    1  A    between atoms: O_2  and  C_3 
REMARK    2  A    between atoms: C_5  and  C_6 
REMARK    3  A    between atoms: C_12  and  C_13 
REMARK       I    between atoms: C_13  and  N_14 
REMARK    4  A    between atoms: N_14  and  C_15 
REMARK    5  A    between atoms: C_17  and  O_18 
REMARK    6  A    between atoms: C_23  and  C_24 
ROOT
HETATM    1  C   UNL     1      41.814 -15.608   4.067  1.00  0.00     0.118 C 
HETATM    2  N   UNL     1      42.629 -14.389   4.190  1.00  0.00    -0.365 N 
HETATM    3  C   UNL     1      42.047 -13.224   3.784  1.00  0.00     0.138 C 
HETATM    4  N   UNL     1      40.983 -13.240   2.908  1.00  0.00    -0.240 N 
HETATM    5  N   UNL     1      40.381 -12.047   2.781  1.00  0.00    -0.181 NA
HETATM    6  C   UNL     1      41.178 -11.225   3.469  1.00  0.00     0.160 C 
HETATM    7  C   UNL     1      42.261 -11.893   4.090  1.00  0.00     0.096 C 
HETATM    8  C   UNL     1      40.383 -14.441   2.353  1.00  0.00     0.221 C 
HETATM    9  C   UNL     1      41.250 -15.679   2.644  1.00  0.00     0.066 C 
HETATM   10  H   UNL     1      43.154 -14.380   5.068  1.00  0.00     0.161 HD
ENDROOT
BRANCH   7  11
HETATM   11  C   UNL     1      43.296 -11.272   4.896  1.00  0.00     0.261 C 
HETATM   12  N   UNL     1      42.848 -10.838   6.131  1.00  0.00    -0.323 N 
HETATM   13  H   UNL     1      41.888 -11.076   6.356  1.00  0.00     0.169 HD
HETATM   14  O   UNL     1      44.452 -11.221   4.490  1.00  0.00    -0.267 OA
BRANCH  12  15
HETATM   15  C   UNL     1      43.614 -10.247   7.157  1.00  0.00     0.037 A 
HETATM   16  C   UNL     1      43.512  -8.905   7.529  1.00  0.00     0.066 A 
HETATM   17  C   UNL     1      44.322  -8.401   8.546  1.00  0.00     0.067 A 
HETATM   18  C   UNL     1      45.236  -9.214   9.205  1.00  0.00     0.036 A 
HETATM   19  C   UNL     1      45.338 -10.554   8.847  1.00  0.00     0.005 A 
HETATM   20  C   UNL     1      44.528 -11.071   7.831  1.00  0.00     0.029 A 
BRANCH  17  21
HETATM   21  O   UNL     1      44.246  -7.093   8.929  1.00  0.00    -0.361 OA
HETATM   22  H   UNL     1      43.825  -7.053   9.804  1.00  0.00     0.217 HD
ENDBRANCH  17  21
ENDBRANCH  12  15
ENDBRANCH   7  11
BRANCH   1  23
HETATM   23  C   UNL     1      42.633 -16.834   4.412  1.00  0.00    -0.033 A 
HETATM   24  C   UNL     1      43.180 -17.661   3.417  1.00  0.00     0.046 A 
HETATM   25  C   UNL     1      43.887 -18.823   3.746  1.00  0.00     0.068 A 
HETATM   26  C   UNL     1      44.065 -19.159   5.087  1.00  0.00     0.037 A 
HETATM   27  C   UNL     1      43.538 -18.341   6.089  1.00  0.00     0.003 A 
HETATM   28  C   UNL     1      42.827 -17.189   5.755  1.00  0.00     0.009 A 
BRANCH  25  29
HETATM   29  O   UNL     1      44.344 -19.538   2.673  1.00  0.00    -0.356 OA
HETATM   30  C   UNL     1      43.371 -20.245   1.913  1.00  0.00     0.210 C 
ENDBRANCH  25  29
ENDBRANCH   1  23
BRANCH   8  31
HETATM   31  C   UNL     1      40.165 -14.312   0.861  1.00  0.00     0.409 C 
HETATM   32  F   UNL     1      41.278 -13.899   0.214  1.00  0.00    -0.169 F 
HETATM   33  F   UNL     1      39.844 -15.529   0.343  1.00  0.00    -0.169 F 
HETATM   34  F   UNL     1      39.152 -13.486   0.531  1.00  0.00    -0.169 F 
ENDBRANCH   8  31
TORSDOF 6
ENDMDL
MODEL 4
REMARK VINA RESULT:      -9.1      2.908      5.633
REMARK  6 active torsions:
REMARK  status: ('A' for Active; 'I' for Inactive)
REMARK    1  A    between atoms: O_2  and  C_3 
REMARK    2  A    between atoms: C_5  and  C_6 
REMARK    3  A    between atoms: C_12  and  C_13 
REMARK       I    between atoms: C_13  and  N_14 
REMARK    4  A    between atoms: N_14  and  C_15 
REMARK    5  A    between atoms: C_17  and  O_18 
REMARK    6  A    between atoms: C_23  and  C_24 
ROOT
HETATM    1  C   UNL     1      42.410 -13.731   5.660  1.00  0.00     0.118 C 
HETATM    2  N   UNL     1      42.328 -13.621   4.195  1.00  0.00    -0.365 N 
HETATM    3  C   UNL     1      42.105 -14.779   3.508  1.00  0.00     0.138 C 
HETATM    4  N   UNL     1      42.397 -15.999   4.078  1.00  0.00    -0.240 N 
HETATM    5  N   UNL     1      41.918 -17.040   3.380  1.00  0.00    -0.181 NA
HETATM    6  C   UNL     1      41.452 -16.473   2.263  1.00  0.00     0.160 C 
HETATM    7  C   UNL     1      41.575 -15.062   2.264  1.00  0.00     0.096 C 
HETATM    8  C   UNL     1      42.938 -16.183   5.415  1.00  0.00     0.221 C 
HETATM    9  C   UNL     1      43.403 -14.843   6.013  1.00  0.00     0.066 C 
HETATM   10  H   UNL     1      41.802 -12.790   3.913  1.00  0.00     0.161 HD
ENDROOT
BRANCH   7  11
HETATM   11  C   UNL     1      41.166 -14.171   1.194  1.00  0.00     0.261 C 
HETATM   12  N   UNL     1      40.125 -14.667   0.430  1.00  0.00    -0.323 N 
HETATM   13  H   UNL     1      39.723 -15.540   0.753  1.00  0.00     0.169 HD
HETATM   14  O   UNL     1      41.691 -13.071   1.069  1.00  0.00    -0.267 OA
BRANCH  12  15
HETATM   15  C   UNL     1      39.471 -14.023  -0.641  1.00  0.00     0.037 A 
HETATM   16  C   UNL     1      39.241 -14.620  -1.884  1.00  0.00     0.066 A 
HETATM   17  C   UNL     1      38.599 -13.902  -2.892  1.00  0.00     0.067 A 
HETATM   18  C   UNL     1      38.179 -12.595  -2.686  1.00  0.00     0.036 A 
HETATM   19  C   UNL     1      38.396 -11.995  -1.449  1.00  0.00     0.005 A 
HETATM   20  C   UNL     1      39.034 -12.707  -0.429  1.00  0.00     0.029 A 
BRANCH  17  21
HETATM   21  O   UNL     1      38.364 -14.458  -4.117  1.00  0.00    -0.361 OA
HETATM   22  H   UNL     1      39.164 -14.934  -4.397  1.00  0.00     0.217 HD
ENDBRANCH  17  21
ENDBRANCH  12  15
ENDBRANCH   7  11
BRANCH   1  23
HETATM   23  C   UNL     1      42.805 -12.405   6.273  1.00  0.00    -0.033 A 
HETATM   24  C   UNL     1      43.894 -12.293   7.154  1.00  0.00     0.046 A 
HETATM   25  C   UNL     1      44.216 -11.074   7.760  1.00  0.00     0.068 A 
HETATM   26  C   UNL     1      43.451  -9.945   7.474  1.00  0.00     0.037 A 
HETATM   27  C   UNL     1      42.372 -10.036   6.592  1.00  0.00     0.003 A 
HETATM   28  C   UNL     1      42.050 -11.255   5.998  1.00  0.00     0.009 A 
BRANCH  25  29
HETATM   29  O   UNL     1      45.290 -11.122   8.607  1.00  0.00    -0.356 OA
HETATM   30  C   UNL     1      45.316 -10.168   9.663  1.00  0.00     0.210 C 
ENDBRANCH  25  29
ENDBRANCH   1  23
BRANCH   8  31
HETATM   31  C   UNL     1      44.087 -17.167   5.415  1.00  0.00     0.409 C 
HETATM   32  F   UNL     1      44.551 -17.416   4.170  1.00  0.00    -0.169 F 
HETATM   33  F   UNL     1      45.129 -16.647   6.120  1.00  0.00    -0.169 F 
HETATM   34  F   UNL     1      43.791 -18.345   6.000  1.00  0.00    -0.169 F 
ENDBRANCH   8  31
TORSDOF 6
ENDMDL
MODEL 5
REMARK VINA RESULT:      -9.0      1.459      2.136
REMARK  6 active torsions:
REMARK  status: ('A' for Active; 'I' for Inactive)
REMARK    1  A    between atoms: O_2  and  C_3 
REMARK    2  A    between atoms: C_5  and  C_6 
REMARK    3  A    between atoms: C_12  and  C_13 
REMARK       I    between atoms: C_13  and  N_14 
REMARK    4  A    between atoms: N_14  and  C_15 
REMARK    5  A    between atoms: C_17  and  O_18 
REMARK    6  A    between atoms: C_23  and  C_24 
ROOT
HETATM    1  C   UNL     1      43.189 -16.342   3.466  1.00  0.00     0.118 C 
HETATM    2  N   UNL     1      41.962 -15.934   2.764  1.00  0.00    -0.365 N 
HETATM    3  C   UNL     1      41.607 -14.621   2.871  1.00  0.00     0.138 C 
HETATM    4  N   UNL     1      42.078 -13.849   3.911  1.00  0.00    -0.240 N 
HETATM    5  N   UNL     1      41.829 -12.540   3.756  1.00  0.00    -0.181 NA
HETATM    6  C   UNL     1      41.046 -12.500   2.675  1.00  0.00     0.160 C 
HETATM    7  C   UNL     1      40.836 -13.775   2.095  1.00  0.00     0.096 C 
HETATM    8  C   UNL     1      42.971 -14.321   4.955  1.00  0.00     0.221 C 
HETATM    9  C   UNL     1      43.109 -15.854   4.916  1.00  0.00     0.066 C 
HETATM   10  H   UNL     1      41.897 -16.373   1.842  1.00  0.00     0.161 HD
ENDROOT
BRANCH   7  11
HETATM   11  C   UNL     1      40.030 -14.055   0.921  1.00  0.00     0.261 C 
HETATM   12  N   UNL     1      39.504 -12.921   0.329  1.00  0.00    -0.323 N 
HETATM   13  H   UNL     1      39.806 -12.039   0.729  1.00  0.00     0.169 HD
HETATM   14  O   UNL     1      39.914 -15.203   0.508  1.00  0.00    -0.267 OA
BRANCH  12  15
HETATM   15  C   UNL     1      38.728 -12.853  -0.847  1.00  0.00     0.037 A 
HETATM   16  C   UNL     1      38.833 -13.765  -1.901  1.00  0.00     0.066 A 
HETATM   17  C   UNL     1      38.036 -13.612  -3.035  1.00  0.00     0.067 A 
HETATM   18  C   UNL     1      37.133 -12.562  -3.140  1.00  0.00     0.036 A 
HETATM   19  C   UNL     1      37.016 -11.654  -2.093  1.00  0.00     0.005 A 
HETATM   20  C   UNL     1      37.806 -11.802  -0.948  1.00  0.00     0.029 A 
BRANCH  17  21
HETATM   21  O   UNL     1      38.118 -14.486  -4.081  1.00  0.00    -0.361 OA
HETATM   22  H   UNL     1      37.611 -15.284  -3.854  1.00  0.00     0.217 HD
ENDBRANCH  17  21
ENDBRANCH  12  15
ENDBRANCH   7  11
BRANCH   1  23
HETATM   23  C   UNL     1      43.377 -17.842   3.384  1.00  0.00    -0.033 A 
HETATM   24  C   UNL     1      43.706 -18.608   4.514  1.00  0.00     0.046 A 
HETATM   25  C   UNL     1      43.934 -19.985   4.417  1.00  0.00     0.068 A 
HETATM   26  C   UNL     1      43.817 -20.612   3.178  1.00  0.00     0.037 A 
HETATM   27  C   UNL     1      43.479 -19.867   2.046  1.00  0.00     0.003 A 
HETATM   28  C   UNL     1      43.262 -18.493   2.147  1.00  0.00     0.009 A 
BRANCH  25  29
HETATM   29  O   UNL     1      44.264 -20.595   5.597  1.00  0.00    -0.356 OA
HETATM   30  C   UNL     1      43.577 -20.150   6.762  1.00  0.00     0.210 C 
ENDBRANCH  25  29
ENDBRANCH   1  23
BRANCH   8  31
HETATM   31  C   UNL     1      42.498 -13.888   6.325  1.00  0.00     0.409 C 
HETATM   32  F   UNL     1      42.884 -12.628   6.628  1.00  0.00    -0.169 F 
HETATM   33  F   UNL     1      41.137 -13.894   6.358  1.00  0.00    -0.169 F 
HETATM   34  F   UNL     1      42.899 -14.704   7.321  1.00  0.00    -0.169 F 
ENDBRANCH   8  31
TORSDOF 6
ENDMDL
MODEL 6
REMARK VINA RESULT:      -9.0      2.186      3.148
REMARK  6 active torsions:
REMARK  status: ('A' for Active; 'I' for Inactive)
REMARK    1  A    between atoms: O_2  and  C_3 
REMARK    2  A    between atoms: C_5  and  C_6 
REMARK    3  A    between atoms: C_12  and  C_13 
REMARK       I    between atoms: C_13  and  N_14 
REMARK    4  A    between atoms: N_14  and  C_15 
REMARK    5  A    between atoms: C_17  and  O_18 
REMARK    6  A    between atoms: C_23  and  C_24 
ROOT
HETATM    1  C   UNL     1      43.176 -14.351   3.154  1.00  0.00     0.118 C 
HETATM    2  N   UNL     1      42.180 -13.932   2.155  1.00  0.00    -0.365 N 
HETATM    3  C   UNL     1      41.901 -12.598   2.096  1.00  0.00     0.138 C 
HETATM    4  N   UNL     1      42.165 -11.778   3.172  1.00  0.00    -0.240 N 
HETATM    5  N   UNL     1      42.050 -10.472   2.886  1.00  0.00    -0.181 NA
HETATM    6  C   UNL     1      41.548 -10.471   1.648  1.00  0.00     0.160 C 
HETATM    7  C   UNL     1      41.395 -11.772   1.110  1.00  0.00     0.096 C 
HETATM    8  C   UNL     1      42.752 -12.218   4.426  1.00  0.00     0.221 C 
HETATM    9  C   UNL     1      42.790 -13.754   4.511  1.00  0.00     0.066 C 
HETATM   10  H   UNL     1      42.305 -14.433   1.272  1.00  0.00     0.161 HD
ENDROOT
BRANCH   7  11
HETATM   11  C   UNL     1      40.871 -12.094  -0.205  1.00  0.00     0.261 C 
HETATM   12  N   UNL     1      39.777 -12.939  -0.172  1.00  0.00    -0.323 N 
HETATM   13  H   UNL     1      39.425 -13.162   0.753  1.00  0.00     0.169 HD
HETATM   14  O   UNL     1      41.359 -11.586  -1.208  1.00  0.00    -0.267 OA
BRANCH  12  15
HETATM   15  C   UNL     1      39.014 -13.391  -1.269  1.00  0.00     0.037 A 
HETATM   16  C   UNL     1      37.939 -12.685  -1.813  1.00  0.00     0.066 A 
HETATM   17  C   UNL     1      37.230 -13.217  -2.889  1.00  0.00     0.067 A 
HETATM   18  C   UNL     1      37.574 -14.445  -3.437  1.00  0.00     0.036 A 
HETATM   19  C   UNL     1      38.648 -15.152  -2.908  1.00  0.00     0.005 A 
HETATM   20  C   UNL     1      39.369 -14.626  -1.831  1.00  0.00     0.029 A 
BRANCH  17  21
HETATM   21  O   UNL     1      36.174 -12.549  -3.440  1.00  0.00    -0.361 OA
HETATM   22  H   UNL     1      36.276 -11.602  -3.249  1.00  0.00     0.217 HD
ENDBRANCH  17  21
ENDBRANCH  12  15
ENDBRANCH   7  11
BRANCH   1  23
HETATM   23  C   UNL     1      43.275 -15.861   3.207  1.00  0.00    -0.033 A 
HETATM   24  C   UNL     1      43.447 -16.548   4.421  1.00  0.00     0.046 A 
HETATM   25  C   UNL     1      43.595 -17.938   4.454  1.00  0.00     0.068 A 
HETATM   26  C   UNL     1      43.555 -18.659   3.262  1.00  0.00     0.037 A 
HETATM   27  C   UNL     1      43.373 -17.993   2.047  1.00  0.00     0.003 A 
HETATM   28  C   UNL     1      43.235 -16.606   2.019  1.00  0.00     0.009 A 
BRANCH  25  29
HETATM   29  O   UNL     1      43.773 -18.465   5.704  1.00  0.00    -0.356 OA
HETATM   30  C   UNL     1      43.454 -17.622   6.805  1.00  0.00     0.210 C 
ENDBRANCH  25  29
ENDBRANCH   1  23
BRANCH   8  31
HETATM   31  C   UNL     1      41.999 -11.661   5.615  1.00  0.00     0.409 C 
HETATM   32  F   UNL     1      40.662 -11.653   5.417  1.00  0.00    -0.169 F 
HETATM   33  F   UNL     1      42.225 -12.446   6.703  1.00  0.00    -0.169 F 
HETATM   34  F   UNL     1      42.383 -10.417   5.965  1.00  0.00    -0.169 F 
ENDBRANCH   8  31
TORSDOF 6
ENDMDL
MODEL 7
REMARK VINA RESULT:      -8.6      4.311      7.239
REMARK  6 active torsions:
REMARK  status: ('A' for Active; 'I' for Inactive)
REMARK    1  A    between atoms: O_2  and  C_3 
REMARK    2  A    between atoms: C_5  and  C_6 
REMARK    3  A    between atoms: C_12  and  C_13 
REMARK       I    between atoms: C_13  and  N_14 
REMARK    4  A    between atoms: N_14  and  C_15 
REMARK    5  A    between atoms: C_17  and  O_18 
REMARK    6  A    between atoms: C_23  and  C_24 
ROOT
HETATM    1  C   UNL     1      41.481 -15.683   4.125  1.00  0.00     0.118 C 
HETATM    2  N   UNL     1      42.025 -14.414   4.630  1.00  0.00    -0.365 N 
HETATM    3  C   UNL     1      41.333 -13.283   4.306  1.00  0.00     0.138 C 
HETATM    4  N   UNL     1      40.479 -13.269   3.225  1.00  0.00    -0.240 N 
HETATM    5  N   UNL     1      39.709 -12.171   3.170  1.00  0.00    -0.181 NA
HETATM    6  C   UNL     1      40.199 -11.402   4.147  1.00  0.00     0.160 C 
HETATM    7  C   UNL     1      41.244 -12.024   4.872  1.00  0.00     0.096 C 
HETATM    8  C   UNL     1      40.222 -14.404   2.356  1.00  0.00     0.221 C 
HETATM    9  C   UNL     1      41.224 -15.543   2.621  1.00  0.00     0.066 C 
HETATM   10  H   UNL     1      42.361 -14.509   5.591  1.00  0.00     0.161 HD
ENDROOT
BRANCH   7  11
HETATM   11  C   UNL     1      41.975 -11.442   5.982  1.00  0.00     0.261 C 
HETATM   12  N   UNL     1      41.509 -10.195   6.357  1.00  0.00    -0.323 N 
HETATM   13  H   UNL     1      40.674  -9.878   5.876  1.00  0.00     0.169 HD
HETATM   14  O   UNL     1      42.873 -12.071   6.531  1.00  0.00    -0.267 OA
BRANCH  12  15
HETATM   15  C   UNL     1      41.969  -9.397   7.426  1.00  0.00     0.037 A 
HETATM   16  C   UNL     1      43.218  -8.772   7.448  1.00  0.00     0.066 A 
HETATM   17  C   UNL     1      43.596  -8.014   8.555  1.00  0.00     0.067 A 
HETATM   18  C   UNL     1      42.751  -7.866   9.646  1.00  0.00     0.036 A 
HETATM   19  C   UNL     1      41.501  -8.478   9.630  1.00  0.00     0.005 A 
HETATM   20  C   UNL     1      41.109  -9.237   8.523  1.00  0.00     0.029 A 
BRANCH  17  21
HETATM   21  O   UNL     1      44.811  -7.393   8.605  1.00  0.00    -0.361 OA
HETATM   22  H   UNL     1      44.754  -6.564   8.099  1.00  0.00     0.217 HD
ENDBRANCH  17  21
ENDBRANCH  12  15
ENDBRANCH   7  11
BRANCH   1  23
HETATM   23  C   UNL     1      42.423 -16.827   4.432  1.00  0.00    -0.033 A 
HETATM   24  C   UNL     1      43.003 -17.602   3.413  1.00  0.00     0.046 A 
HETATM   25  C   UNL     1      43.827 -18.694   3.710  1.00  0.00     0.068 A 
HETATM   26  C   UNL     1      44.091 -19.009   5.041  1.00  0.00     0.037 A 
HETATM   27  C   UNL     1      43.533 -18.242   6.066  1.00  0.00     0.003 A 
HETATM   28  C   UNL     1      42.705 -17.161   5.765  1.00  0.00     0.009 A 
BRANCH  25  29
HETATM   29  O   UNL     1      44.303 -19.364   2.616  1.00  0.00    -0.356 OA
HETATM   30  C   UNL     1      43.395 -20.238   1.956  1.00  0.00     0.210 C 
ENDBRANCH  25  29
ENDBRANCH   1  23
BRANCH   8  31
HETATM   31  C   UNL     1      40.276 -14.008   0.897  1.00  0.00     0.409 C 
HETATM   32  F   UNL     1      39.239 -13.218   0.540  1.00  0.00    -0.169 F 
HETATM   33  F   UNL     1      41.408 -13.288   0.664  1.00  0.00    -0.169 F 
HETATM   34  F   UNL     1      40.320 -15.057   0.051  1.00  0.00    -0.169 F 
ENDBRANCH   8  31
TORSDOF 6
ENDMDL
MODEL 8
REMARK VINA RESULT:      -8.5      1.576      2.194
REMARK  6 active torsions:
REMARK  status: ('A' for Active; 'I' for Inactive)
REMARK    1  A    between atoms: O_2  and  C_3 
REMARK    2  A    between atoms: C_5  and  C_6 
REMARK    3  A    between atoms: C_12  and  C_13 
REMARK       I    between atoms: C_13  and  N_14 
REMARK    4  A    between atoms: N_14  and  C_15 
REMARK    5  A    between atoms: C_17  and  O_18 
REMARK    6  A    between atoms: C_23  and  C_24 
ROOT
HETATM    1  C   UNL     1      43.271 -14.800   4.510  1.00  0.00     0.118 C 
HETATM    2  N   UNL     1      42.007 -14.616   3.780  1.00  0.00    -0.365 N 
HETATM    3  C   UNL     1      41.692 -13.338   3.420  1.00  0.00     0.138 C 
HETATM    4  N   UNL     1      42.255 -12.265   4.078  1.00  0.00    -0.240 N 
HETATM    5  N   UNL     1      42.027 -11.091   3.470  1.00  0.00    -0.181 NA
HETATM    6  C   UNL     1      41.169 -11.408   2.497  1.00  0.00     0.160 C 
HETATM    7  C   UNL     1      40.888 -12.795   2.436  1.00  0.00     0.096 C 
HETATM    8  C   UNL     1      43.210 -12.368   5.168  1.00  0.00     0.221 C 
HETATM    9  C   UNL     1      43.308 -13.816   5.684  1.00  0.00     0.066 C 
HETATM   10  H   UNL     1      41.865 -15.356   3.088  1.00  0.00     0.161 HD
ENDROOT
BRANCH   7  11
HETATM   11  C   UNL     1      39.993 -13.442   1.494  1.00  0.00     0.261 C 
HETATM   12  N   UNL     1      39.951 -12.824   0.258  1.00  0.00    -0.323 N 
HETATM   13  H   UNL     1      40.601 -12.056   0.131  1.00  0.00     0.169 HD
HETATM   14  O   UNL     1      39.404 -14.471   1.806  1.00  0.00    -0.267 OA
BRANCH  12  15
HETATM   15  C   UNL     1      39.226 -13.237  -0.879  1.00  0.00     0.037 A 
HETATM   16  C   UNL     1      38.190 -12.495  -1.453  1.00  0.00     0.066 A 
HETATM   17  C   UNL     1      37.516 -12.989  -2.569  1.00  0.00     0.067 A 
HETATM   18  C   UNL     1      37.855 -14.214  -3.128  1.00  0.00     0.036 A 
HETATM   19  C   UNL     1      38.890 -14.957  -2.568  1.00  0.00     0.005 A 
HETATM   20  C   UNL     1      39.576 -14.468  -1.452  1.00  0.00     0.029 A 
BRANCH  17  21
HETATM   21  O   UNL     1      36.499 -12.286  -3.149  1.00  0.00    -0.361 OA
HETATM   22  H   UNL     1      36.885 -11.563  -3.672  1.00  0.00     0.217 HD
ENDBRANCH  17  21
ENDBRANCH  12  15
ENDBRANCH   7  11
BRANCH   1  23
HETATM   23  C   UNL     1      43.417 -16.235   4.971  1.00  0.00    -0.033 A 
HETATM   24  C   UNL     1      43.702 -17.275   4.070  1.00  0.00     0.046 A 
HETATM   25  C   UNL     1      43.777 -18.605   4.497  1.00  0.00     0.068 A 
HETATM   26  C   UNL     1      43.581 -18.903   5.844  1.00  0.00     0.037 A 
HETATM   27  C   UNL     1      43.309 -17.880   6.755  1.00  0.00     0.003 A 
HETATM   28  C   UNL     1      43.225 -16.557   6.322  1.00  0.00     0.009 A 
BRANCH  25  29
HETATM   29  O   UNL     1      44.044 -19.510   3.506  1.00  0.00    -0.356 OA
HETATM   30  C   UNL     1      43.910 -20.886   3.841  1.00  0.00     0.210 C 
ENDBRANCH  25  29
ENDBRANCH   1  23
BRANCH   8  31
HETATM   31  C   UNL     1      42.847 -11.446   6.310  1.00  0.00     0.409 C 
HETATM   32  F   UNL     1      43.230 -10.170   6.081  1.00  0.00    -0.169 F 
HETATM   33  F   UNL     1      41.494 -11.423   6.463  1.00  0.00    -0.169 F 
HETATM   34  F   UNL     1      43.351 -11.831   7.500  1.00  0.00    -0.169 F 
ENDBRANCH   8  31
TORSDOF 6
ENDMDL
MODEL 9
REMARK VINA RESULT:      -8.4      4.105      7.869
REMARK  6 active torsions:
REMARK  status: ('A' for Active; 'I' for Inactive)
REMARK    1  A    between atoms: O_2  and  C_3 
REMARK    2  A    between atoms: C_5  and  C_6 
REMARK    3  A    between atoms: C_12  and  C_13 
REMARK       I    between atoms: C_13  and  N_14 
REMARK    4  A    between atoms: N_14  and  C_15 
REMARK    5  A    between atoms: C_17  and  O_18 
REMARK    6  A    between atoms: C_23  and  C_24 
ROOT
HETATM    1  C   UNL     1      42.545 -10.718   6.388  1.00  0.00     0.118 C 
HETATM    2  N   UNL     1      42.106 -12.119   6.308  1.00  0.00    -0.365 N 
HETATM    3  C   UNL     1      41.108 -12.395   5.419  1.00  0.00     0.138 C 
HETATM    4  N   UNL     1      40.267 -11.397   4.977  1.00  0.00    -0.240 N 
HETATM    5  N   UNL     1      39.493 -11.772   3.947  1.00  0.00    -0.181 NA
HETATM    6  C   UNL     1      39.736 -13.081   3.839  1.00  0.00     0.160 C 
HETATM    7  C   UNL     1      40.710 -13.542   4.757  1.00  0.00     0.096 C 
HETATM    8  C   UNL     1      40.349 -10.003   5.381  1.00  0.00     0.221 C 
HETATM    9  C   UNL     1      41.312  -9.826   6.568  1.00  0.00     0.066 C 
HETATM   10  H   UNL     1      42.901 -12.762   6.348  1.00  0.00     0.161 HD
ENDROOT
BRANCH   7  11
HETATM   11  C   UNL     1      41.180 -14.909   4.886  1.00  0.00     0.261 C 
HETATM   12  N   UNL     1      42.175 -15.238   3.983  1.00  0.00    -0.323 N 
HETATM   13  H   UNL     1      42.510 -14.475   3.404  1.00  0.00     0.169 HD
HETATM   14  O   UNL     1      40.741 -15.635   5.770  1.00  0.00    -0.267 OA
BRANCH  12  15
HETATM   15  C   UNL     1      42.870 -16.462   3.887  1.00  0.00     0.037 A 
HETATM   16  C   UNL     1      42.685 -17.383   2.854  1.00  0.00     0.066 A 
HETATM   17  C   UNL     1      43.406 -18.577   2.848  1.00  0.00     0.067 A 
HETATM   18  C   UNL     1      44.312 -18.872   3.858  1.00  0.00     0.036 A 
HETATM   19  C   UNL     1      44.509 -17.957   4.887  1.00  0.00     0.005 A 
HETATM   20  C   UNL     1      43.796 -16.754   4.900  1.00  0.00     0.029 A 
BRANCH  17  21
HETATM   21  O   UNL     1      43.244 -19.496   1.852  1.00  0.00    -0.361 OA
HETATM   22  H   UNL     1      42.294 -19.585   1.668  1.00  0.00     0.217 HD
ENDBRANCH  17  21
ENDBRANCH  12  15
ENDBRANCH   7  11
BRANCH   1  23
HETATM   23  C   UNL     1      43.544 -10.535   7.511  1.00  0.00    -0.033 A 
HETATM   24  C   UNL     1      43.153 -10.080   8.781  1.00  0.00     0.046 A 
HETATM   25  C   UNL     1      44.092  -9.859   9.795  1.00  0.00     0.068 A 
HETATM   26  C   UNL     1      45.439 -10.112   9.546  1.00  0.00     0.037 A 
HETATM   27  C   UNL     1      45.844 -10.577   8.292  1.00  0.00     0.003 A 
HETATM   28  C   UNL     1      44.905 -10.785   7.282  1.00  0.00     0.009 A 
BRANCH  25  29
HETATM   29  O   UNL     1      43.566  -9.398  10.971  1.00  0.00    -0.356 OA
HETATM   30  C   UNL     1      42.191  -9.678  11.211  1.00  0.00     0.210 C 
ENDBRANCH  25  29
ENDBRANCH   1  23
BRANCH   8  31
HETATM   31  C   UNL     1      38.988  -9.451   5.743  1.00  0.00     0.409 C 
HETATM   32  F   UNL     1      38.278  -9.080   4.655  1.00  0.00    -0.169 F 
HETATM   33  F   UNL     1      38.260 -10.415   6.371  1.00  0.00    -0.169 F 
HETATM   34  F   UNL     1      39.036  -8.406   6.594  1.00  0.00    -0.169 F 
ENDBRANCH   8  31
TORSDOF 6
ENDMDL
MODEL 10
REMARK VINA RESULT:      -8.4      4.653      7.197
REMARK  6 active torsions:
REMARK  status: ('A' for Active; 'I' for Inactive)
REMARK    1  A    between atoms: O_2  and  C_3 
REMARK    2  A    between atoms: C_5  and  C_6 
REMARK    3  A    between atoms: C_12  and  C_13 
REMARK       I    between atoms: C_13  and  N_14 
REMARK    4  A    between atoms: N_14  and  C_15 
REMARK    5  A    between atoms: C_17  and  O_18 
REMARK    6  A    between atoms: C_23  and  C_24 
ROOT
HETATM    1  C   UNL     1      40.924 -15.205   2.744  1.00  0.00     0.118 C 
HETATM    2  N   UNL     1      41.089 -13.931   3.460  1.00  0.00    -0.365 N 
HETATM    3  C   UNL     1      40.253 -12.916   3.096  1.00  0.00     0.138 C 
HETATM    4  N   UNL     1      39.635 -12.924   1.863  1.00  0.00    -0.240 N 
HETATM    5  N   UNL     1      38.680 -11.989   1.742  1.00  0.00    -0.181 NA
HETATM    6  C   UNL     1      38.806 -11.272   2.862  1.00  0.00     0.160 C 
HETATM    7  C   UNL     1      39.800 -11.777   3.735  1.00  0.00     0.096 C 
HETATM    8  C   UNL     1      39.788 -13.969   0.865  1.00  0.00     0.221 C 
HETATM    9  C   UNL     1      40.934 -14.926   1.237  1.00  0.00     0.066 C 
HETATM   10  H   UNL     1      41.248 -14.083   4.458  1.00  0.00     0.161 HD
ENDROOT
BRANCH   7  11
HETATM   11  C   UNL     1      40.171 -11.214   5.020  1.00  0.00     0.261 C 
HETATM   12  N   UNL     1      39.164 -10.471   5.609  1.00  0.00    -0.323 N 
HETATM   13  H   UNL     1      38.274 -10.478   5.123  1.00  0.00     0.169 HD
HETATM   14  O   UNL     1      41.267 -11.459   5.511  1.00  0.00    -0.267 OA
BRANCH  12  15
HETATM   15  C   UNL     1      39.193  -9.844   6.873  1.00  0.00     0.037 A 
HETATM   16  C   UNL     1      39.073 -10.529   8.084  1.00  0.00     0.066 A 
HETATM   17  C   UNL     1      39.096  -9.824   9.287  1.00  0.00     0.067 A 
HETATM   18  C   UNL     1      39.238  -8.443   9.307  1.00  0.00     0.036 A 
HETATM   19  C   UNL     1      39.366  -7.753   8.105  1.00  0.00     0.005 A 
HETATM   20  C   UNL     1      39.349  -8.450   6.893  1.00  0.00     0.029 A 
BRANCH  17  21
HETATM   21  O   UNL     1      38.979 -10.467  10.486  1.00  0.00    -0.361 OA
HETATM   22  H   UNL     1      38.112 -10.249  10.868  1.00  0.00     0.217 HD
ENDBRANCH  17  21
ENDBRANCH  12  15
ENDBRANCH   7  11
BRANCH   1  23
HETATM   23  C   UNL     1      42.007 -16.185   3.144  1.00  0.00    -0.033 A 
HETATM   24  C   UNL     1      42.266 -17.346   2.397  1.00  0.00     0.046 A 
HETATM   25  C   UNL     1      43.230 -18.274   2.807  1.00  0.00     0.068 A 
HETATM   26  C   UNL     1      43.958 -18.035   3.971  1.00  0.00     0.037 A 
HETATM   27  C   UNL     1      43.721 -16.880   4.720  1.00  0.00     0.003 A 
HETATM   28  C   UNL     1      42.753 -15.963   4.311  1.00  0.00     0.009 A 
BRANCH  25  29
HETATM   29  O   UNL     1      43.358 -19.364   1.990  1.00  0.00    -0.356 OA
HETATM   30  C   UNL     1      43.728 -20.590   2.611  1.00  0.00     0.210 C 
ENDBRANCH  25  29
ENDBRANCH   1  23
BRANCH   8  31
HETATM   31  C   UNL     1      40.036 -13.388  -0.509  1.00  0.00     0.409 C 
HETATM   32  F   UNL     1      38.917 -12.858  -1.053  1.00  0.00    -0.169 F 
HETATM   33  F   UNL     1      40.940 -12.375  -0.418  1.00  0.00    -0.169 F 
HETATM   34  F   UNL     1      40.553 -14.273  -1.386  1.00  0.00    -0.169 F 
ENDBRANCH   8  31
TORSDOF 6
ENDMDL
