MODEL 1
REMARK VINA RESULT:      -8.0      0.000      0.000
REMARK  8 active torsions:
REMARK  status: ('A' for Active; 'I' for Inactive)
REMARK    1  A    between atoms: C_2  and  C_3 
REMARK    2  A    between atoms: C_3  and  O_4 
REMARK    3  A    between atoms: O_4  and  C_5 
REMARK    4  A    between atoms: C_6  and  C_7 
REMARK    5  A    between atoms: C_11  and  C_12 
REMARK       I    between atoms: C_12  and  N_13 
REMARK    6  A    between atoms: N_13  and  N_14 
REMARK    7  A    between atoms: C_15  and  C_16 
REMARK    8  A    between atoms: C_18  and  O_19 
ROOT
HETATM    1  C   UNL     1      42.814 -17.022   2.256  1.00  0.00     0.092 A 
HETATM    2  N   UNL     1      43.648 -16.210   1.591  1.00  0.00    -0.174 NA
HETATM    3  N   UNL     1      42.864 -15.217   1.147  1.00  0.00    -0.272 N 
HETATM    4  H   UNL     1      43.276 -14.475   0.587  1.00  0.00     0.189 HD
HETATM    5  C   UNL     1      41.560 -15.303   1.554  1.00  0.00     0.121 A 
HETATM    6  C   UNL     1      41.495 -16.488   2.258  1.00  0.00     0.071 A 
ENDROOT
BRANCH   5   7
HETATM    7  C   UNL     1      40.603 -14.272   1.230  1.00  0.00     0.289 C 
HETATM    8  N   UNL     1      40.790 -13.683  -0.014  1.00  0.00    -0.242 N 
HETATM    9  H   UNL     1      41.545 -13.987  -0.613  1.00  0.00     0.192 HD
HETATM   10  O   UNL     1      39.693 -13.984   2.002  1.00  0.00    -0.264 OA
BRANCH   8  11
HETATM   11  N   UNL     1      39.891 -12.769  -0.484  1.00  0.00    -0.184 NA
HETATM   12  C   UNL     1      39.028 -13.221  -1.335  1.00  0.00     0.150 C 
BRANCH  12  13
HETATM   13  C   UNL     1      37.978 -12.355  -1.908  1.00  0.00    -0.014 A 
HETATM   14  C   UNL     1      37.023 -12.878  -2.784  1.00  0.00     0.049 A 
HETATM   15  C   UNL     1      36.058 -12.031  -3.317  1.00  0.00     0.066 A 
HETATM   16  C   UNL     1      36.032 -10.679  -2.988  1.00  0.00     0.036 A 
HETATM   17  C   UNL     1      36.986 -10.160  -2.111  1.00  0.00     0.004 A 
HETATM   18  C   UNL     1      37.962 -10.997  -1.567  1.00  0.00     0.013 A 
BRANCH  15  19
HETATM   19  O   UNL     1      35.106 -12.491  -4.178  1.00  0.00    -0.361 OA
HETATM   20  H   UNL     1      34.958 -11.819  -4.864  1.00  0.00     0.217 HD
ENDBRANCH  15  19
ENDBRANCH  12  13
ENDBRANCH   8  11
ENDBRANCH   5   7
BRANCH   1  21
HETATM   21  C   UNL     1      43.270 -18.232   2.941  1.00  0.00     0.028 A 
HETATM   22  C   UNL     1      43.707 -18.228   4.280  1.00  0.00     0.081 A 
HETATM   23  C   UNL     1      44.140 -19.428   4.863  1.00  0.00     0.038 A 
HETATM   24  C   UNL     1      44.125 -20.622   4.136  1.00  0.00     0.003 A 
HETATM   25  C   UNL     1      43.687 -20.629   2.816  1.00  0.00     0.001 A 
HETATM   26  C   UNL     1      43.264 -19.441   2.222  1.00  0.00     0.017 A 
BRANCH  22  27
HETATM   27  O   UNL     1      43.754 -17.023   4.935  1.00  0.00    -0.350 OA
BRANCH  27  28
HETATM   28  C   UNL     1      42.935 -16.900   6.099  1.00  0.00     0.175 C 
BRANCH  28  29
HETATM   29  C   UNL     1      41.993 -15.717   5.896  1.00  0.00     0.022 C 
HETATM   30  C   UNL     1      40.543 -16.161   5.814  1.00  0.00     0.007 C 
ENDBRANCH  28  29
ENDBRANCH  27  28
ENDBRANCH  22  27
ENDBRANCH   1  21
TORSDOF 8
ENDMDL
MODEL 2
REMARK VINA RESULT:      -7.6      6.820     10.040
REMARK  8 active torsions:
REMARK  status: ('A' for Active; 'I' for Inactive)
REMARK    1  A    between atoms: C_2  and  C_3 
REMARK    2  A    between atoms: C_3  and  O_4 
REMARK    3  A    between atoms: O_4  and  C_5 
REMARK    4  A    between atoms: C_6  and  C_7 
REMARK    5  A    between atoms: C_11  and  C_12 
REMARK       I    between atoms: C_12  and  N_13 
REMARK    6  A    between atoms: N_13  and  N_14 
REMARK    7  A    between atoms: C_15  and  C_16 
REMARK    8  A    between atoms: C_18  and  O_19 
ROOT
HETATM    1  C   UNL     1      42.726 -13.757   5.105  1.00  0.00     0.092 A 
HETATM    2  N   UNL     1      41.545 -13.243   5.475  1.00  0.00    -0.174 NA
HETATM    3  N   UNL     1      41.845 -12.397   6.471  1.00  0.00    -0.272 N 
HETATM    4  H   UNL     1      41.093 -11.893   6.933  1.00  0.00     0.189 HD
HETATM    5  C   UNL     1      43.184 -12.277   6.725  1.00  0.00     0.121 A 
HETATM    6  C   UNL     1      43.781 -13.176   5.864  1.00  0.00     0.071 A 
ENDROOT
BRANCH   5   7
HETATM    7  C   UNL     1      43.681 -11.348   7.711  1.00  0.00     0.289 C 
HETATM    8  N   UNL     1      42.761 -10.388   8.112  1.00  0.00    -0.242 N 
HETATM    9  H   UNL     1      41.829 -10.382   7.722  1.00  0.00     0.192 HD
HETATM   10  O   UNL     1      44.820 -11.446   8.159  1.00  0.00    -0.264 OA
BRANCH   8  11
HETATM   11  N   UNL     1      43.071  -9.516   9.116  1.00  0.00    -0.184 NA
HETATM   12  C   UNL     1      42.120  -9.274   9.960  1.00  0.00     0.150 C 
BRANCH  12  13
HETATM   13  C   UNL     1      42.319  -8.372  11.113  1.00  0.00    -0.014 A 
HETATM   14  C   UNL     1      41.711  -7.114  11.144  1.00  0.00     0.049 A 
HETATM   15  C   UNL     1      41.932  -6.285  12.238  1.00  0.00     0.066 A 
HETATM   16  C   UNL     1      42.744  -6.691  13.293  1.00  0.00     0.036 A 
HETATM   17  C   UNL     1      43.348  -7.949  13.257  1.00  0.00     0.004 A 
HETATM   18  C   UNL     1      43.137  -8.794  12.167  1.00  0.00     0.013 A 
BRANCH  15  19
HETATM   19  O   UNL     1      41.364  -5.047  12.317  1.00  0.00    -0.361 OA
HETATM   20  H   UNL     1      41.105  -4.883  13.239  1.00  0.00     0.217 HD
ENDBRANCH  15  19
ENDBRANCH  12  13
ENDBRANCH   8  11
ENDBRANCH   5   7
BRANCH   1  21
HETATM   21  C   UNL     1      42.862 -14.714   4.007  1.00  0.00     0.028 A 
HETATM   22  C   UNL     1      42.605 -16.089   4.162  1.00  0.00     0.081 A 
HETATM   23  C   UNL     1      42.769 -16.946   3.063  1.00  0.00     0.038 A 
HETATM   24  C   UNL     1      43.166 -16.445   1.820  1.00  0.00     0.003 A 
HETATM   25  C   UNL     1      43.414 -15.085   1.662  1.00  0.00     0.001 A 
HETATM   26  C   UNL     1      43.264 -14.225   2.750  1.00  0.00     0.017 A 
BRANCH  22  27
HETATM   27  O   UNL     1      42.269 -16.542   5.414  1.00  0.00    -0.350 OA
BRANCH  27  28
HETATM   28  C   UNL     1      43.176 -17.462   6.021  1.00  0.00     0.175 C 
BRANCH  28  29
HETATM   29  C   UNL     1      44.027 -16.697   7.030  1.00  0.00     0.022 C 
HETATM   30  C   UNL     1      43.169 -15.924   8.016  1.00  0.00     0.007 C 
ENDBRANCH  28  29
ENDBRANCH  27  28
ENDBRANCH  22  27
ENDBRANCH   1  21
TORSDOF 8
ENDMDL
MODEL 3
REMARK VINA RESULT:      -7.6      7.740     11.110
REMARK  8 active torsions:
REMARK  status: ('A' for Active; 'I' for Inactive)
REMARK    1  A    between atoms: C_2  and  C_3 
REMARK    2  A    between atoms: C_3  and  O_4 
REMARK    3  A    between atoms: O_4  and  C_5 
REMARK    4  A    between atoms: C_6  and  C_7 
REMARK    5  A    between atoms: C_11  and  C_12 
REMARK       I    between atoms: C_12  and  N_13 
REMARK    6  A    between atoms: N_13  and  N_14 
REMARK    7  A    between atoms: C_15  and  C_16 
REMARK    8  A    between atoms: C_18  and  O_19 
ROOT
HETATM    1  C   UNL     1      43.315  -9.072  10.958  1.00  0.00     0.092 A 
HETATM    2  N   UNL     1      43.219  -8.238   9.914  1.00  0.00    -0.174 NA
HETATM    3  N   UNL     1      43.705  -8.939   8.880  1.00  0.00    -0.272 N 
HETATM    4  H   UNL     1      43.753  -8.500   7.964  1.00  0.00     0.189 HD
HETATM    5  C   UNL     1      44.052 -10.228   9.185  1.00  0.00     0.121 A 
HETATM    6  C   UNL     1      43.832 -10.332  10.544  1.00  0.00     0.071 A 
ENDROOT
BRANCH   5   7
HETATM    7  C   UNL     1      44.516 -11.141   8.169  1.00  0.00     0.289 C 
HETATM    8  N   UNL     1      43.573 -12.075   7.760  1.00  0.00    -0.242 N 
HETATM    9  H   UNL     1      42.648 -12.075   8.165  1.00  0.00     0.192 HD
HETATM   10  O   UNL     1      45.650 -11.053   7.705  1.00  0.00    -0.264 OA
BRANCH   8  11
HETATM   11  N   UNL     1      43.852 -12.927   6.731  1.00  0.00    -0.184 NA
HETATM   12  C   UNL     1      42.826 -13.492   6.179  1.00  0.00     0.150 C 
BRANCH  12  13
HETATM   13  C   UNL     1      42.972 -14.417   5.037  1.00  0.00    -0.014 A 
HETATM   14  C   UNL     1      42.838 -13.953   3.725  1.00  0.00     0.049 A 
HETATM   15  C   UNL     1      42.966 -14.854   2.674  1.00  0.00     0.066 A 
HETATM   16  C   UNL     1      43.226 -16.200   2.912  1.00  0.00     0.036 A 
HETATM   17  C   UNL     1      43.360 -16.659   4.224  1.00  0.00     0.004 A 
HETATM   18  C   UNL     1      43.234 -15.768   5.291  1.00  0.00     0.013 A 
BRANCH  15  19
HETATM   19  O   UNL     1      42.842 -14.453   1.376  1.00  0.00    -0.361 OA
HETATM   20  H   UNL     1      43.405 -13.672   1.238  1.00  0.00     0.217 HD
ENDBRANCH  15  19
ENDBRANCH  12  13
ENDBRANCH   8  11
ENDBRANCH   5   7
BRANCH   1  21
HETATM   21  C   UNL     1      42.856  -8.713  12.300  1.00  0.00     0.028 A 
HETATM   22  C   UNL     1      41.767  -9.349  12.926  1.00  0.00     0.081 A 
HETATM   23  C   UNL     1      41.380  -8.940  14.211  1.00  0.00     0.038 A 
HETATM   24  C   UNL     1      42.072  -7.924  14.876  1.00  0.00     0.003 A 
HETATM   25  C   UNL     1      43.153  -7.299  14.263  1.00  0.00     0.001 A 
HETATM   26  C   UNL     1      43.542  -7.690  12.982  1.00  0.00     0.017 A 
BRANCH  22  27
HETATM   27  O   UNL     1      41.086 -10.303  12.212  1.00  0.00    -0.350 OA
BRANCH  27  28
HETATM   28  C   UNL     1      39.686 -10.083  12.033  1.00  0.00     0.175 C 
BRANCH  28  29
HETATM   29  C   UNL     1      39.508  -8.951  11.025  1.00  0.00     0.022 C 
HETATM   30  C   UNL     1      39.795  -9.412   9.606  1.00  0.00     0.007 C 
ENDBRANCH  28  29
ENDBRANCH  27  28
ENDBRANCH  22  27
ENDBRANCH   1  21
TORSDOF 8
ENDMDL
MODEL 4
REMARK VINA RESULT:      -7.4      3.272      4.167
REMARK  8 active torsions:
REMARK  status: ('A' for Active; 'I' for Inactive)
REMARK    1  A    between atoms: C_2  and  C_3 
REMARK    2  A    between atoms: C_3  and  O_4 
REMARK    3  A    between atoms: O_4  and  C_5 
REMARK    4  A    between atoms: C_6  and  C_7 
REMARK    5  A    between atoms: C_11  and  C_12 
REMARK       I    between atoms: C_12  and  N_13 
REMARK    6  A    between atoms: N_13  and  N_14 
REMARK    7  A    between atoms: C_15  and  C_16 
REMARK    8  A    between atoms: C_18  and  O_19 
ROOT
HETATM    1  C   UNL     1      42.663 -16.944   2.288  1.00  0.00     0.092 A 
HETATM    2  N   UNL     1      43.419 -16.139   1.529  1.00  0.00    -0.174 NA
HETATM    3  N   UNL     1      42.607 -15.119   1.213  1.00  0.00    -0.272 N 
HETATM    4  H   UNL     1      42.959 -14.376   0.615  1.00  0.00     0.189 HD
HETATM    5  C   UNL     1      41.369 -15.183   1.792  1.00  0.00     0.121 A 
HETATM    6  C   UNL     1      41.370 -16.381   2.479  1.00  0.00     0.071 A 
ENDROOT
BRANCH   5   7
HETATM    7  C   UNL     1      40.404 -14.125   1.619  1.00  0.00     0.289 C 
HETATM    8  N   UNL     1      40.060 -13.463   2.790  1.00  0.00    -0.242 N 
HETATM    9  H   UNL     1      40.480 -13.731   3.668  1.00  0.00     0.192 HD
HETATM   10  O   UNL     1      39.964 -13.840   0.508  1.00  0.00    -0.264 OA
BRANCH   8  11
HETATM   11  N   UNL     1      39.237 -12.374   2.747  1.00  0.00    -0.184 NA
HETATM   12  C   UNL     1      39.572 -11.389   3.518  1.00  0.00     0.150 C 
BRANCH  12  13
HETATM   13  C   UNL     1      38.792 -10.136   3.557  1.00  0.00    -0.014 A 
HETATM   14  C   UNL     1      38.514  -9.509   4.775  1.00  0.00     0.049 A 
HETATM   15  C   UNL     1      37.764  -8.338   4.776  1.00  0.00     0.066 A 
HETATM   16  C   UNL     1      37.292  -7.789   3.588  1.00  0.00     0.036 A 
HETATM   17  C   UNL     1      37.574  -8.417   2.373  1.00  0.00     0.004 A 
HETATM   18  C   UNL     1      38.326  -9.593   2.354  1.00  0.00     0.013 A 
BRANCH  15  19
HETATM   19  O   UNL     1      37.463  -7.690   5.937  1.00  0.00    -0.361 OA
HETATM   20  H   UNL     1      37.755  -8.239   6.684  1.00  0.00     0.217 HD
ENDBRANCH  15  19
ENDBRANCH  12  13
ENDBRANCH   8  11
ENDBRANCH   5   7
BRANCH   1  21
HETATM   21  C   UNL     1      43.177 -18.178   2.885  1.00  0.00     0.028 A 
HETATM   22  C   UNL     1      43.730 -18.223   4.178  1.00  0.00     0.081 A 
HETATM   23  C   UNL     1      44.212 -19.443   4.675  1.00  0.00     0.038 A 
HETATM   24  C   UNL     1      44.133 -20.609   3.908  1.00  0.00     0.003 A 
HETATM   25  C   UNL     1      43.581 -20.568   2.633  1.00  0.00     0.001 A 
HETATM   26  C   UNL     1      43.107 -19.359   2.123  1.00  0.00     0.017 A 
BRANCH  22  27
HETATM   27  O   UNL     1      43.835 -17.043   4.872  1.00  0.00    -0.350 OA
BRANCH  27  28
HETATM   28  C   UNL     1      43.929 -17.148   6.293  1.00  0.00     0.175 C 
BRANCH  28  29
HETATM   29  C   UNL     1      42.621 -16.644   6.896  1.00  0.00     0.022 C 
HETATM   30  C   UNL     1      41.978 -15.576   6.029  1.00  0.00     0.007 C 
ENDBRANCH  28  29
ENDBRANCH  27  28
ENDBRANCH  22  27
ENDBRANCH   1  21
TORSDOF 8
ENDMDL
MODEL 5
REMARK VINA RESULT:      -7.4      3.591      4.991
REMARK  8 active torsions:
REMARK  status: ('A' for Active; 'I' for Inactive)
REMARK    1  A    between atoms: C_2  and  C_3 
REMARK    2  A    between atoms: C_3  and  O_4 
REMARK    3  A    between atoms: O_4  and  C_5 
REMARK    4  A    between atoms: C_6  and  C_7 
REMARK    5  A    between atoms: C_11  and  C_12 
REMARK       I    between atoms: C_12  and  N_13 
REMARK    6  A    between atoms: N_13  and  N_14 
REMARK    7  A    between atoms: C_15  and  C_16 
REMARK    8  A    between atoms: C_18  and  O_19 
ROOT
HETATM    1  C   UNL     1      40.917 -15.207   3.077  1.00  0.00     0.092 A 
HETATM    2  N   UNL     1      39.865 -15.771   2.469  1.00  0.00    -0.174 NA
HETATM    3  N   UNL     1      39.654 -15.007   1.388  1.00  0.00    -0.272 N 
HETATM    4  H   UNL     1      38.880 -15.232   0.768  1.00  0.00     0.189 HD
HETATM    5  C   UNL     1      40.570 -14.004   1.218  1.00  0.00     0.121 A 
HETATM    6  C   UNL     1      41.391 -14.096   2.324  1.00  0.00     0.071 A 
ENDROOT
BRANCH   5   7
HETATM    7  C   UNL     1      40.534 -13.142   0.062  1.00  0.00     0.289 C 
HETATM    8  N   UNL     1      40.677 -11.791   0.346  1.00  0.00    -0.242 N 
HETATM    9  H   UNL     1      40.799 -11.482   1.300  1.00  0.00     0.192 HD
HETATM   10  O   UNL     1      40.415 -13.602  -1.071  1.00  0.00    -0.264 OA
BRANCH   8  11
HETATM   11  N   UNL     1      40.766 -10.881  -0.667  1.00  0.00    -0.184 NA
HETATM   12  C   UNL     1      41.775 -10.072  -0.606  1.00  0.00     0.150 C 
BRANCH  12  13
HETATM   13  C   UNL     1      42.015  -9.052  -1.647  1.00  0.00    -0.014 A 
HETATM   14  C   UNL     1      42.933  -8.020  -1.433  1.00  0.00     0.049 A 
HETATM   15  C   UNL     1      43.123  -7.069  -2.429  1.00  0.00     0.066 A 
HETATM   16  C   UNL     1      42.416  -7.134  -3.626  1.00  0.00     0.036 A 
HETATM   17  C   UNL     1      41.502  -8.167  -3.836  1.00  0.00     0.004 A 
HETATM   18  C   UNL     1      41.298  -9.131  -2.847  1.00  0.00     0.013 A 
BRANCH  15  19
HETATM   19  O   UNL     1      44.005  -6.040  -2.269  1.00  0.00    -0.361 OA
HETATM   20  H   UNL     1      43.572  -5.339  -1.754  1.00  0.00     0.217 HD
ENDBRANCH  15  19
ENDBRANCH  12  13
ENDBRANCH   8  11
ENDBRANCH   5   7
BRANCH   1  21
HETATM   21  C   UNL     1      41.509 -15.753   4.299  1.00  0.00     0.028 A 
HETATM   22  C   UNL     1      42.650 -16.578   4.287  1.00  0.00     0.081 A 
HETATM   23  C   UNL     1      43.152 -17.072   5.500  1.00  0.00     0.038 A 
HETATM   24  C   UNL     1      42.542 -16.740   6.714  1.00  0.00     0.003 A 
HETATM   25  C   UNL     1      41.419 -15.920   6.728  1.00  0.00     0.001 A 
HETATM   26  C   UNL     1      40.905 -15.430   5.528  1.00  0.00     0.017 A 
BRANCH  22  27
HETATM   27  O   UNL     1      43.182 -16.919   3.068  1.00  0.00    -0.350 OA
BRANCH  27  28
HETATM   28  C   UNL     1      43.822 -18.193   2.989  1.00  0.00     0.175 C 
BRANCH  28  29
HETATM   29  C   UNL     1      42.939 -19.119   2.157  1.00  0.00     0.022 C 
HETATM   30  C   UNL     1      43.638 -20.430   1.843  1.00  0.00     0.007 C 
ENDBRANCH  28  29
ENDBRANCH  27  28
ENDBRANCH  22  27
ENDBRANCH   1  21
TORSDOF 8
ENDMDL
MODEL 6
REMARK VINA RESULT:      -7.4      2.923      3.341
REMARK  8 active torsions:
REMARK  status: ('A' for Active; 'I' for Inactive)
REMARK    1  A    between atoms: C_2  and  C_3 
REMARK    2  A    between atoms: C_3  and  O_4 
REMARK    3  A    between atoms: O_4  and  C_5 
REMARK    4  A    between atoms: C_6  and  C_7 
REMARK    5  A    between atoms: C_11  and  C_12 
REMARK       I    between atoms: C_12  and  N_13 
REMARK    6  A    between atoms: N_13  and  N_14 
REMARK    7  A    between atoms: C_15  and  C_16 
REMARK    8  A    between atoms: C_18  and  O_19 
ROOT
HETATM    1  C   UNL     1      41.576 -16.023   2.126  1.00  0.00     0.092 A 
HETATM    2  N   UNL     1      40.249 -16.156   2.253  1.00  0.00    -0.174 NA
HETATM    3  N   UNL     1      39.739 -15.224   1.434  1.00  0.00    -0.272 N 
HETATM    4  H   UNL     1      38.730 -15.119   1.374  1.00  0.00     0.189 HD
HETATM    5  C   UNL     1      40.676 -14.530   0.717  1.00  0.00     0.121 A 
HETATM    6  C   UNL     1      41.887 -15.014   1.171  1.00  0.00     0.071 A 
ENDROOT
BRANCH   5   7
HETATM    7  C   UNL     1      40.291 -13.549  -0.268  1.00  0.00     0.289 C 
HETATM    8  N   UNL     1      41.281 -12.625  -0.576  1.00  0.00    -0.242 N 
HETATM    9  H   UNL     1      42.184 -12.676  -0.126  1.00  0.00     0.192 HD
HETATM   10  O   UNL     1      39.181 -13.575  -0.792  1.00  0.00    -0.264 OA
BRANCH   8  11
HETATM   11  N   UNL     1      41.081 -11.709  -1.569  1.00  0.00    -0.184 NA
HETATM   12  C   UNL     1      41.352 -10.481  -1.260  1.00  0.00     0.150 C 
BRANCH  12  13
HETATM   13  C   UNL     1      41.210  -9.386  -2.241  1.00  0.00    -0.014 A 
HETATM   14  C   UNL     1      40.949  -9.666  -3.585  1.00  0.00     0.049 A 
HETATM   15  C   UNL     1      40.836  -8.611  -4.484  1.00  0.00     0.066 A 
HETATM   16  C   UNL     1      40.978  -7.292  -4.063  1.00  0.00     0.036 A 
HETATM   17  C   UNL     1      41.237  -7.018  -2.719  1.00  0.00     0.004 A 
HETATM   18  C   UNL     1      41.353  -8.065  -1.803  1.00  0.00     0.013 A 
BRANCH  15  19
HETATM   19  O   UNL     1      40.585  -8.830  -5.807  1.00  0.00    -0.361 OA
HETATM   20  H   UNL     1      39.740  -9.305  -5.887  1.00  0.00     0.217 HD
ENDBRANCH  15  19
ENDBRANCH  12  13
ENDBRANCH   8  11
ENDBRANCH   5   7
BRANCH   1  21
HETATM   21  C   UNL     1      42.527 -16.883   2.832  1.00  0.00     0.028 A 
HETATM   22  C   UNL     1      43.196 -16.476   4.002  1.00  0.00     0.081 A 
HETATM   23  C   UNL     1      44.102 -17.354   4.614  1.00  0.00     0.038 A 
HETATM   24  C   UNL     1      44.332 -18.627   4.085  1.00  0.00     0.003 A 
HETATM   25  C   UNL     1      43.667 -19.034   2.934  1.00  0.00     0.001 A 
HETATM   26  C   UNL     1      42.771 -18.166   2.310  1.00  0.00     0.017 A 
BRANCH  22  27
HETATM   27  O   UNL     1      42.978 -15.197   4.453  1.00  0.00    -0.350 OA
BRANCH  27  28
HETATM   28  C   UNL     1      42.456 -15.072   5.777  1.00  0.00     0.175 C 
BRANCH  28  29
HETATM   29  C   UNL     1      40.948 -14.861   5.677  1.00  0.00     0.022 C 
HETATM   30  C   UNL     1      40.179 -15.957   6.394  1.00  0.00     0.007 C 
ENDBRANCH  28  29
ENDBRANCH  27  28
ENDBRANCH  22  27
ENDBRANCH   1  21
TORSDOF 8
ENDMDL
MODEL 7
REMARK VINA RESULT:      -7.3      6.774     10.000
REMARK  8 active torsions:
REMARK  status: ('A' for Active; 'I' for Inactive)
REMARK    1  A    between atoms: C_2  and  C_3 
REMARK    2  A    between atoms: C_3  and  O_4 
REMARK    3  A    between atoms: O_4  and  C_5 
REMARK    4  A    between atoms: C_6  and  C_7 
REMARK    5  A    between atoms: C_11  and  C_12 
REMARK       I    between atoms: C_12  and  N_13 
REMARK    6  A    between atoms: N_13  and  N_14 
REMARK    7  A    between atoms: C_15  and  C_16 
REMARK    8  A    between atoms: C_18  and  O_19 
ROOT
HETATM    1  C   UNL     1      43.157 -14.580   5.760  1.00  0.00     0.092 A 
HETATM    2  N   UNL     1      41.945 -14.034   5.928  1.00  0.00    -0.174 NA
HETATM    3  N   UNL     1      42.163 -12.973   6.719  1.00  0.00    -0.272 N 
HETATM    4  H   UNL     1      41.373 -12.401   7.005  1.00  0.00     0.189 HD
HETATM    5  C   UNL     1      43.480 -12.754   7.020  1.00  0.00     0.121 A 
HETATM    6  C   UNL     1      44.149 -13.807   6.428  1.00  0.00     0.071 A 
ENDROOT
BRANCH   5   7
HETATM    7  C   UNL     1      43.893 -11.608   7.793  1.00  0.00     0.289 C 
HETATM    8  N   UNL     1      42.853 -10.782   8.197  1.00  0.00    -0.242 N 
HETATM    9  H   UNL     1      41.899 -11.006   7.951  1.00  0.00     0.192 HD
HETATM   10  O   UNL     1      45.074 -11.425   8.077  1.00  0.00    -0.264 OA
BRANCH   8  11
HETATM   11  N   UNL     1      43.099  -9.722   9.023  1.00  0.00    -0.184 NA
HETATM   12  C   UNL     1      42.342  -9.642  10.070  1.00  0.00     0.150 C 
BRANCH  12  13
HETATM   13  C   UNL     1      42.510  -8.565  11.066  1.00  0.00    -0.014 A 
HETATM   14  C   UNL     1      42.073  -7.266  10.790  1.00  0.00     0.049 A 
HETATM   15  C   UNL     1      42.261  -6.273  11.745  1.00  0.00     0.066 A 
HETATM   16  C   UNL     1      42.873  -6.556  12.962  1.00  0.00     0.036 A 
HETATM   17  C   UNL     1      43.307  -7.855  13.234  1.00  0.00     0.004 A 
HETATM   18  C   UNL     1      43.126  -8.864  12.287  1.00  0.00     0.013 A 
BRANCH  15  19
HETATM   19  O   UNL     1      41.855  -4.990  11.523  1.00  0.00    -0.361 OA
HETATM   20  H   UNL     1      41.058  -5.009  10.966  1.00  0.00     0.217 HD
ENDBRANCH  15  19
ENDBRANCH  12  13
ENDBRANCH   8  11
ENDBRANCH   5   7
BRANCH   1  21
HETATM   21  C   UNL     1      43.383 -15.759   4.923  1.00  0.00     0.028 A 
HETATM   22  C   UNL     1      43.013 -15.809   3.566  1.00  0.00     0.081 A 
HETATM   23  C   UNL     1      43.253 -16.980   2.832  1.00  0.00     0.038 A 
HETATM   24  C   UNL     1      43.867 -18.084   3.431  1.00  0.00     0.003 A 
HETATM   25  C   UNL     1      44.239 -18.035   4.769  1.00  0.00     0.001 A 
HETATM   26  C   UNL     1      43.997 -16.880   5.512  1.00  0.00     0.017 A 
BRANCH  22  27
HETATM   27  O   UNL     1      42.366 -14.719   3.037  1.00  0.00    -0.350 OA
BRANCH  27  28
HETATM   28  C   UNL     1      43.183 -13.754   2.375  1.00  0.00     0.175 C 
BRANCH  28  29
HETATM   29  C   UNL     1      42.674 -12.364   2.745  1.00  0.00     0.022 C 
HETATM   30  C   UNL     1      43.709 -11.577   3.529  1.00  0.00     0.007 C 
ENDBRANCH  28  29
ENDBRANCH  27  28
ENDBRANCH  22  27
ENDBRANCH   1  21
TORSDOF 8
ENDMDL
MODEL 8
REMARK VINA RESULT:      -7.3      7.531     11.203
REMARK  8 active torsions:
REMARK  status: ('A' for Active; 'I' for Inactive)
REMARK    1  A    between atoms: C_2  and  C_3 
REMARK    2  A    between atoms: C_3  and  O_4 
REMARK    3  A    between atoms: O_4  and  C_5 
REMARK    4  A    between atoms: C_6  and  C_7 
REMARK    5  A    between atoms: C_11  and  C_12 
REMARK       I    between atoms: C_12  and  N_13 
REMARK    6  A    between atoms: N_13  and  N_14 
REMARK    7  A    between atoms: C_15  and  C_16 
REMARK    8  A    between atoms: C_18  and  O_19 
ROOT
HETATM    1  C   UNL     1      43.970  -8.956   9.634  1.00  0.00     0.092 A 
HETATM    2  N   UNL     1      45.189  -9.411   9.955  1.00  0.00    -0.174 NA
HETATM    3  N   UNL     1      45.396 -10.434   9.113  1.00  0.00    -0.272 N 
HETATM    4  H   UNL     1      46.264 -10.959   9.180  1.00  0.00     0.189 HD
HETATM    5  C   UNL     1      44.393 -10.628   8.202  1.00  0.00     0.121 A 
HETATM    6  C   UNL     1      43.436  -9.691   8.538  1.00  0.00     0.071 A 
ENDROOT
BRANCH   5   7
HETATM    7  C   UNL     1      44.497 -11.636   7.175  1.00  0.00     0.289 C 
HETATM    8  N   UNL     1      43.438 -12.533   7.141  1.00  0.00    -0.242 N 
HETATM    9  H   UNL     1      42.675 -12.446   7.798  1.00  0.00     0.192 HD
HETATM   10  O   UNL     1      45.443 -11.652   6.393  1.00  0.00    -0.264 OA
BRANCH   8  11
HETATM   11  N   UNL     1      43.362 -13.470   6.150  1.00  0.00    -0.184 NA
HETATM   12  C   UNL     1      43.639 -14.683   6.506  1.00  0.00     0.150 C 
BRANCH  12  13
HETATM   13  C   UNL     1      43.572 -15.805   5.548  1.00  0.00    -0.014 A 
HETATM   14  C   UNL     1      42.658 -15.784   4.491  1.00  0.00     0.049 A 
HETATM   15  C   UNL     1      42.612 -16.864   3.616  1.00  0.00     0.066 A 
HETATM   16  C   UNL     1      43.459 -17.956   3.781  1.00  0.00     0.036 A 
HETATM   17  C   UNL     1      44.371 -17.972   4.838  1.00  0.00     0.004 A 
HETATM   18  C   UNL     1      44.431 -16.896   5.725  1.00  0.00     0.013 A 
BRANCH  15  19
HETATM   19  O   UNL     1      41.737 -16.893   2.570  1.00  0.00    -0.361 OA
HETATM   20  H   UNL     1      41.593 -15.983   2.261  1.00  0.00     0.217 HD
ENDBRANCH  15  19
ENDBRANCH  12  13
ENDBRANCH   8  11
ENDBRANCH   5   7
BRANCH   1  21
HETATM   21  C   UNL     1      43.358  -7.803  10.296  1.00  0.00     0.028 A 
HETATM   22  C   UNL     1      42.842  -7.864  11.604  1.00  0.00     0.081 A 
HETATM   23  C   UNL     1      42.260  -6.717  12.165  1.00  0.00     0.038 A 
HETATM   24  C   UNL     1      42.204  -5.520  11.446  1.00  0.00     0.003 A 
HETATM   25  C   UNL     1      42.720  -5.455  10.157  1.00  0.00     0.001 A 
HETATM   26  C   UNL     1      43.292  -6.591   9.584  1.00  0.00     0.017 A 
BRANCH  22  27
HETATM   27  O   UNL     1      42.871  -9.075  12.249  1.00  0.00    -0.350 OA
BRANCH  27  28
HETATM   28  C   UNL     1      41.746  -9.383  13.073  1.00  0.00     0.175 C 
BRANCH  28  29
HETATM   29  C   UNL     1      40.654  -9.973  12.185  1.00  0.00     0.022 C 
HETATM   30  C   UNL     1      39.571 -10.655  13.004  1.00  0.00     0.007 C 
ENDBRANCH  28  29
ENDBRANCH  27  28
ENDBRANCH  22  27
ENDBRANCH   1  21
TORSDOF 8
ENDMDL
MODEL 9
REMARK VINA RESULT:      -7.2      7.383     11.109
REMARK  8 active torsions:
REMARK  status: ('A' for Active; 'I' for Inactive)
REMARK    1  A    between atoms: C_2  and  C_3 
REMARK    2  A    between atoms: C_3  and  O_4 
REMARK    3  A    between atoms: O_4  and  C_5 
REMARK    4  A    between atoms: C_6  and  C_7 
REMARK    5  A    between atoms: C_11  and  C_12 
REMARK       I    between atoms: C_12  and  N_13 
REMARK    6  A    between atoms: N_13  and  N_14 
REMARK    7  A    between atoms: C_15  and  C_16 
REMARK    8  A    between atoms: C_18  and  O_19 
ROOT
HETATM    1  C   UNL     1      44.170  -9.333   9.866  1.00  0.00     0.092 A 
HETATM    2  N   UNL     1      45.499  -9.381   9.706  1.00  0.00    -0.174 NA
HETATM    3  N   UNL     1      45.689 -10.323   8.770  1.00  0.00    -0.272 N 
HETATM    4  H   UNL     1      46.638 -10.555   8.490  1.00  0.00     0.189 HD
HETATM    5  C   UNL     1      44.535 -10.846   8.254  1.00  0.00     0.121 A 
HETATM    6  C   UNL     1      43.527 -10.235   8.972  1.00  0.00     0.071 A 
ENDROOT
BRANCH   5   7
HETATM    7  C   UNL     1      44.562 -11.810   7.181  1.00  0.00     0.289 C 
HETATM    8  N   UNL     1      43.507 -12.713   7.192  1.00  0.00    -0.242 N 
HETATM    9  H   UNL     1      42.798 -12.659   7.909  1.00  0.00     0.192 HD
HETATM   10  O   UNL     1      45.446 -11.788   6.328  1.00  0.00    -0.264 OA
BRANCH   8  11
HETATM   11  N   UNL     1      43.359 -13.610   6.173  1.00  0.00    -0.184 NA
HETATM   12  C   UNL     1      43.723 -14.823   6.438  1.00  0.00     0.150 C 
BRANCH  12  13
HETATM   13  C   UNL     1      43.595 -15.905   5.441  1.00  0.00    -0.014 A 
HETATM   14  C   UNL     1      42.638 -15.827   4.425  1.00  0.00     0.049 A 
HETATM   15  C   UNL     1      42.535 -16.871   3.513  1.00  0.00     0.066 A 
HETATM   16  C   UNL     1      43.366 -17.983   3.600  1.00  0.00     0.036 A 
HETATM   17  C   UNL     1      44.321 -18.057   4.615  1.00  0.00     0.004 A 
HETATM   18  C   UNL     1      44.439 -17.018   5.540  1.00  0.00     0.013 A 
BRANCH  15  19
HETATM   19  O   UNL     1      41.616 -16.844   2.505  1.00  0.00    -0.361 OA
HETATM   20  H   UNL     1      41.099 -17.666   2.534  1.00  0.00     0.217 HD
ENDBRANCH  15  19
ENDBRANCH  12  13
ENDBRANCH   8  11
ENDBRANCH   5   7
BRANCH   1  21
HETATM   21  C   UNL     1      43.519  -8.398  10.785  1.00  0.00     0.028 A 
HETATM   22  C   UNL     1      42.991  -7.163  10.365  1.00  0.00     0.081 A 
HETATM   23  C   UNL     1      42.392  -6.316  11.310  1.00  0.00     0.038 A 
HETATM   24  C   UNL     1      42.300  -6.695  12.652  1.00  0.00     0.003 A 
HETATM   25  C   UNL     1      42.814  -7.919  13.068  1.00  0.00     0.001 A 
HETATM   26  C   UNL     1      43.421  -8.764  12.140  1.00  0.00     0.017 A 
BRANCH  22  27
HETATM   27  O   UNL     1      43.153  -6.811   9.048  1.00  0.00    -0.350 OA
BRANCH  27  28
HETATM   28  C   UNL     1      42.078  -6.088   8.447  1.00  0.00     0.175 C 
BRANCH  28  29
HETATM   29  C   UNL     1      41.852  -6.647   7.045  1.00  0.00     0.022 C 
HETATM   30  C   UNL     1      41.322  -8.070   7.088  1.00  0.00     0.007 C 
ENDBRANCH  28  29
ENDBRANCH  27  28
ENDBRANCH  22  27
ENDBRANCH   1  21
TORSDOF 8
ENDMDL
MODEL 10
REMARK VINA RESULT:      -7.0      6.560     10.105
REMARK  8 active torsions:
REMARK  status: ('A' for Active; 'I' for Inactive)
REMARK    1  A    between atoms: C_2  and  C_3 
REMARK    2  A    between atoms: C_3  and  O_4 
REMARK    3  A    between atoms: O_4  and  C_5 
REMARK    4  A    between atoms: C_6  and  C_7 
REMARK    5  A    between atoms: C_11  and  C_12 
REMARK       I    between atoms: C_12  and  N_13 
REMARK    6  A    between atoms: N_13  and  N_14 
REMARK    7  A    between atoms: C_15  and  C_16 
REMARK    8  A    between atoms: C_18  and  O_19 
ROOT
HETATM    1  C   UNL     1      42.505 -13.191   4.381  1.00  0.00     0.092 A 
HETATM    2  N   UNL     1      43.417 -12.373   3.838  1.00  0.00    -0.174 NA
HETATM    3  N   UNL     1      43.891 -11.667   4.875  1.00  0.00    -0.272 N 
HETATM    4  H   UNL     1      44.596 -10.954   4.705  1.00  0.00     0.189 HD
HETATM    5  C   UNL     1      43.382 -12.037   6.090  1.00  0.00     0.121 A 
HETATM    6  C   UNL     1      42.453 -13.014   5.792  1.00  0.00     0.071 A 
ENDROOT
BRANCH   5   7
HETATM    7  C   UNL     1      43.847 -11.432   7.314  1.00  0.00     0.289 C 
HETATM    8  N   UNL     1      42.971 -10.508   7.869  1.00  0.00    -0.242 N 
HETATM    9  H   UNL     1      42.088 -10.310   7.419  1.00  0.00     0.192 HD
HETATM   10  O   UNL     1      44.922 -11.753   7.814  1.00  0.00    -0.264 OA
BRANCH   8  11
HETATM   11  N   UNL     1      43.245  -9.943   9.081  1.00  0.00    -0.184 NA
HETATM   12  C   UNL     1      42.241  -9.385   9.677  1.00  0.00     0.150 C 
BRANCH  12  13
HETATM   13  C   UNL     1      42.381  -8.758  11.007  1.00  0.00    -0.014 A 
HETATM   14  C   UNL     1      42.309  -7.369  11.149  1.00  0.00     0.049 A 
HETATM   15  C   UNL     1      42.460  -6.811  12.414  1.00  0.00     0.066 A 
HETATM   16  C   UNL     1      42.680  -7.613  13.529  1.00  0.00     0.036 A 
HETATM   17  C   UNL     1      42.750  -9.000  13.383  1.00  0.00     0.004 A 
HETATM   18  C   UNL     1      42.600  -9.577  12.121  1.00  0.00     0.013 A 
BRANCH  15  19
HETATM   19  O   UNL     1      42.400  -5.462  12.606  1.00  0.00    -0.361 OA
HETATM   20  H   UNL     1      41.641  -5.264  13.179  1.00  0.00     0.217 HD
ENDBRANCH  15  19
ENDBRANCH  12  13
ENDBRANCH   8  11
ENDBRANCH   5   7
BRANCH   1  21
HETATM   21  C   UNL     1      41.758 -14.174   3.594  1.00  0.00     0.028 A 
HETATM   22  C   UNL     1      42.226 -15.483   3.371  1.00  0.00     0.081 A 
HETATM   23  C   UNL     1      41.457 -16.363   2.595  1.00  0.00     0.038 A 
HETATM   24  C   UNL     1      40.230 -15.959   2.060  1.00  0.00     0.003 A 
HETATM   25  C   UNL     1      39.762 -14.669   2.285  1.00  0.00     0.001 A 
HETATM   26  C   UNL     1      40.523 -13.781   3.046  1.00  0.00     0.017 A 
BRANCH  22  27
HETATM   27  O   UNL     1      43.460 -15.816   3.872  1.00  0.00    -0.350 OA
BRANCH  27  28
HETATM   28  C   UNL     1      43.629 -17.169   4.296  1.00  0.00     0.175 C 
BRANCH  28  29
HETATM   29  C   UNL     1      43.549 -17.204   5.819  1.00  0.00     0.022 C 
HETATM   30  C   UNL     1      44.504 -16.208   6.454  1.00  0.00     0.007 C 
ENDBRANCH  28  29
ENDBRANCH  27  28
ENDBRANCH  22  27
ENDBRANCH   1  21
TORSDOF 8
ENDMDL
