MODEL 1
REMARK VINA RESULT:      -9.1      0.000      0.000
REMARK  6 active torsions:
REMARK  status: ('A' for Active; 'I' for Inactive)
REMARK    1  A    between atoms: C_4  and  C_5 
REMARK    2  A    between atoms: C_7  and  N_8 
REMARK       I    between atoms: N_8  and  C_9 
REMARK    3  A    between atoms: C_9  and  C_10 
REMARK    4  A    between atoms: C_10  and  N_11 
REMARK    5  A    between atoms: C_10  and  C_15 
REMARK       I    between atoms: N_11  and  C_12 
REMARK       I    between atoms: C_12  and  N_13 
REMARK    6  A    between atoms: C_15  and  C_16 
ROOT
HETATM    1  N   UNL     1      44.044 -13.000   6.613  1.00  0.00    -0.325 N 
HETATM    2  C   UNL     1      43.404 -13.099   5.394  1.00  0.00     0.245 C 
HETATM    3  O   UNL     1      43.326 -12.212   4.543  1.00  0.00    -0.271 OA
HETATM    4  H   UNL     1      44.167 -13.875   7.123  1.00  0.00     0.169 HD
ENDROOT
BRANCH   2   5
HETATM    5  C   UNL     1      42.774 -14.483   5.108  1.00  0.00     0.182 C 
BRANCH   5   6
HETATM    6  N   UNL     1      41.354 -14.480   5.490  1.00  0.00    -0.334 N 
HETATM    7  C   UNL     1      40.853 -15.247   6.493  1.00  0.00     0.292 C 
HETATM    8  N   UNL     1      39.534 -15.028   6.704  1.00  0.00    -0.254 NA
HETATM    9  O   UNL     1      41.493 -16.060   7.146  1.00  0.00    -0.254 OA
HETATM   10  H   UNL     1      38.967 -14.858   5.885  1.00  0.00     0.128 HD
HETATM   11  H   UNL     1      39.120 -15.673   7.366  1.00  0.00     0.128 HD
HETATM   12  H   UNL     1      40.827 -13.649   5.272  1.00  0.00     0.164 HD
ENDBRANCH   5   6
BRANCH   5  13
HETATM   13  C   UNL     1      43.020 -15.022   3.685  1.00  0.00     0.073 C 
BRANCH  13  14
HETATM   14  C   UNL     1      43.278 -16.503   3.498  1.00  0.00    -0.056 A 
HETATM   15  C   UNL     1      42.942 -17.222   2.344  1.00  0.00     0.007 A 
HETATM   16  C   UNL     1      43.201 -18.593   2.258  1.00  0.00     0.001 A 
HETATM   17  C   UNL     1      43.816 -19.261   3.313  1.00  0.00     0.000 A 
HETATM   18  C   UNL     1      44.176 -18.559   4.458  1.00  0.00     0.001 A 
HETATM   19  C   UNL     1      43.911 -17.192   4.548  1.00  0.00     0.007 A 
ENDBRANCH  13  14
ENDBRANCH   5  13
ENDBRANCH   2   5
BRANCH   1  20
HETATM   20  C   UNL     1      44.618 -11.856   7.202  1.00  0.00     0.035 A 
HETATM   21  C   UNL     1      44.031 -11.129   8.241  1.00  0.00     0.045 A 
HETATM   22  C   UNL     1      44.666 -10.000   8.787  1.00  0.00     0.019 A 
HETATM   23  C   UNL     1      45.922  -9.627   8.290  1.00  0.00     0.016 A 
HETATM   24  C   UNL     1      46.518 -10.345   7.256  1.00  0.00     0.003 A 
HETATM   25  C   UNL     1      45.863 -11.448   6.707  1.00  0.00     0.029 A 
BRANCH  22  26
HETATM   26  C   UNL     1      44.045  -9.204   9.843  1.00  0.00     0.180 A 
HETATM   27  N   UNL     1      44.014  -9.420  11.146  1.00  0.00    -0.226 NA
HETATM   28  C   UNL     1      43.340  -8.333  11.656  1.00  0.00     0.063 A 
HETATM   29  C   UNL     1      43.088  -8.198  13.104  1.00  0.00     0.073 C 
HETATM   30  C   UNL     1      42.998  -7.482  10.628  1.00  0.00     0.076 A 
HETATM   31  O   UNL     1      43.439  -8.036   9.461  1.00  0.00    -0.294 OA
HETATM   32  C   UNL     1      42.304  -6.186  10.538  1.00  0.00     0.079 C 
ENDBRANCH  22  26
ENDBRANCH   1  20
TORSDOF 6
ENDMDL
MODEL 2
REMARK VINA RESULT:      -8.9      1.108      1.430
REMARK  6 active torsions:
REMARK  status: ('A' for Active; 'I' for Inactive)
REMARK    1  A    between atoms: C_4  and  C_5 
REMARK    2  A    between atoms: C_7  and  N_8 
REMARK       I    between atoms: N_8  and  C_9 
REMARK    3  A    between atoms: C_9  and  C_10 
REMARK    4  A    between atoms: C_10  and  N_11 
REMARK    5  A    between atoms: C_10  and  C_15 
REMARK       I    between atoms: N_11  and  C_12 
REMARK       I    between atoms: C_12  and  N_13 
REMARK    6  A    between atoms: C_15  and  C_16 
ROOT
HETATM    1  N   UNL     1      43.292 -12.441   6.435  1.00  0.00    -0.325 N 
HETATM    2  C   UNL     1      43.248 -13.819   6.520  1.00  0.00     0.245 C 
HETATM    3  O   UNL     1      43.802 -14.509   7.376  1.00  0.00    -0.271 OA
HETATM    4  H   UNL     1      42.640 -12.015   5.776  1.00  0.00     0.169 HD
ENDROOT
BRANCH   2   5
HETATM    5  C   UNL     1      42.383 -14.503   5.435  1.00  0.00     0.182 C 
BRANCH   5   6
HETATM    6  N   UNL     1      41.179 -13.703   5.170  1.00  0.00    -0.334 N 
HETATM    7  C   UNL     1      40.033 -13.823   5.890  1.00  0.00     0.292 C 
HETATM    8  N   UNL     1      39.084 -12.939   5.506  1.00  0.00    -0.254 NA
HETATM    9  O   UNL     1      39.845 -14.634   6.786  1.00  0.00    -0.254 OA
HETATM   10  H   UNL     1      39.024 -12.741   4.516  1.00  0.00     0.128 HD
HETATM   11  H   UNL     1      38.187 -13.093   5.950  1.00  0.00     0.128 HD
HETATM   12  H   UNL     1      41.316 -12.814   4.714  1.00  0.00     0.164 HD
ENDBRANCH   5   6
BRANCH   5  13
HETATM   13  C   UNL     1      43.146 -14.897   4.156  1.00  0.00     0.073 C 
BRANCH  13  14
HETATM   14  C   UNL     1      43.416 -16.363   3.886  1.00  0.00    -0.056 A 
HETATM   15  C   UNL     1      44.084 -17.217   4.773  1.00  0.00     0.007 A 
HETATM   16  C   UNL     1      44.305 -18.557   4.440  1.00  0.00     0.001 A 
HETATM   17  C   UNL     1      43.848 -19.067   3.229  1.00  0.00     0.000 A 
HETATM   18  C   UNL     1      43.164 -18.239   2.346  1.00  0.00     0.001 A 
HETATM   19  C   UNL     1      42.948 -16.900   2.673  1.00  0.00     0.007 A 
ENDBRANCH  13  14
ENDBRANCH   5  13
ENDBRANCH   2   5
BRANCH   1  20
HETATM   20  C   UNL     1      44.066 -11.548   7.202  1.00  0.00     0.035 A 
HETATM   21  C   UNL     1      43.561 -10.771   8.250  1.00  0.00     0.045 A 
HETATM   22  C   UNL     1      44.395  -9.907   8.980  1.00  0.00     0.019 A 
HETATM   23  C   UNL     1      45.758  -9.855   8.659  1.00  0.00     0.016 A 
HETATM   24  C   UNL     1      46.273 -10.626   7.619  1.00  0.00     0.003 A 
HETATM   25  C   UNL     1      45.427 -11.460   6.887  1.00  0.00     0.029 A 
BRANCH  22  26
HETATM   26  C   UNL     1      43.874  -9.056  10.047  1.00  0.00     0.180 A 
HETATM   27  N   UNL     1      43.926  -9.228  11.356  1.00  0.00    -0.226 NA
HETATM   28  C   UNL     1      43.324  -8.103  11.873  1.00  0.00     0.063 A 
HETATM   29  C   UNL     1      43.178  -7.912  13.329  1.00  0.00     0.073 C 
HETATM   30  C   UNL     1      42.938  -7.274  10.841  1.00  0.00     0.076 A 
HETATM   31  O   UNL     1      43.279  -7.881   9.666  1.00  0.00    -0.294 OA
HETATM   32  C   UNL     1      42.280  -5.960  10.754  1.00  0.00     0.079 C 
ENDBRANCH  22  26
ENDBRANCH   1  20
TORSDOF 6
ENDMDL
MODEL 3
REMARK VINA RESULT:      -8.7      5.726      9.029
REMARK  6 active torsions:
REMARK  status: ('A' for Active; 'I' for Inactive)
REMARK    1  A    between atoms: C_4  and  C_5 
REMARK    2  A    between atoms: C_7  and  N_8 
REMARK       I    between atoms: N_8  and  C_9 
REMARK    3  A    between atoms: C_9  and  C_10 
REMARK    4  A    between atoms: C_10  and  N_11 
REMARK    5  A    between atoms: C_10  and  C_15 
REMARK       I    between atoms: N_11  and  C_12 
REMARK       I    between atoms: C_12  and  N_13 
REMARK    6  A    between atoms: C_15  and  C_16 
ROOT
HETATM    1  N   UNL     1      40.641 -14.390   0.613  1.00  0.00    -0.325 N 
HETATM    2  C   UNL     1      40.278 -14.060   1.904  1.00  0.00     0.245 C 
HETATM    3  O   UNL     1      39.507 -13.157   2.231  1.00  0.00    -0.271 OA
HETATM    4  H   UNL     1      41.146 -15.270   0.505  1.00  0.00     0.169 HD
ENDROOT
BRANCH   2   5
HETATM    5  C   UNL     1      40.899 -14.961   2.998  1.00  0.00     0.182 C 
BRANCH   5   6
HETATM    6  N   UNL     1      40.122 -14.855   4.242  1.00  0.00    -0.334 N 
HETATM    7  C   UNL     1      40.571 -14.203   5.345  1.00  0.00     0.292 C 
HETATM    8  N   UNL     1      39.658 -14.182   6.343  1.00  0.00    -0.254 NA
HETATM    9  O   UNL     1      41.676 -13.689   5.460  1.00  0.00    -0.254 OA
HETATM   10  H   UNL     1      39.095 -15.013   6.459  1.00  0.00     0.128 HD
HETATM   11  H   UNL     1      40.019 -13.805   7.211  1.00  0.00     0.128 HD
HETATM   12  H   UNL     1      39.120 -14.932   4.159  1.00  0.00     0.164 HD
ENDBRANCH   5   6
BRANCH   5  13
HETATM   13  C   UNL     1      41.156 -16.418   2.563  1.00  0.00     0.073 C 
BRANCH  13  14
HETATM   14  C   UNL     1      42.350 -17.152   3.138  1.00  0.00    -0.056 A 
HETATM   15  C   UNL     1      42.937 -16.856   4.375  1.00  0.00     0.007 A 
HETATM   16  C   UNL     1      44.049 -17.575   4.825  1.00  0.00     0.001 A 
HETATM   17  C   UNL     1      44.578 -18.608   4.058  1.00  0.00     0.000 A 
HETATM   18  C   UNL     1      43.995 -18.930   2.837  1.00  0.00     0.001 A 
HETATM   19  C   UNL     1      42.890 -18.209   2.383  1.00  0.00     0.007 A 
ENDBRANCH  13  14
ENDBRANCH   5  13
ENDBRANCH   2   5
BRANCH   1  20
HETATM   20  C   UNL     1      40.330 -13.705  -0.577  1.00  0.00     0.035 A 
HETATM   21  C   UNL     1      40.838 -12.447  -0.915  1.00  0.00     0.045 A 
HETATM   22  C   UNL     1      40.491 -11.826  -2.128  1.00  0.00     0.019 A 
HETATM   23  C   UNL     1      39.643 -12.503  -3.014  1.00  0.00     0.016 A 
HETATM   24  C   UNL     1      39.132 -13.758  -2.689  1.00  0.00     0.003 A 
HETATM   25  C   UNL     1      39.466 -14.350  -1.470  1.00  0.00     0.029 A 
BRANCH  22  26
HETATM   26  C   UNL     1      40.977 -10.493  -2.475  1.00  0.00     0.180 A 
HETATM   27  N   UNL     1      40.760  -9.781  -3.567  1.00  0.00    -0.226 NA
HETATM   28  C   UNL     1      41.419  -8.594  -3.336  1.00  0.00     0.063 A 
HETATM   29  C   UNL     1      41.421  -7.511  -4.340  1.00  0.00     0.073 C 
HETATM   30  C   UNL     1      42.004  -8.628  -2.089  1.00  0.00     0.076 A 
HETATM   31  O   UNL     1      41.734  -9.845  -1.533  1.00  0.00    -0.294 OA
HETATM   32  C   UNL     1      42.804  -7.686  -1.290  1.00  0.00     0.079 C 
ENDBRANCH  22  26
ENDBRANCH   1  20
TORSDOF 6
ENDMDL
MODEL 4
REMARK VINA RESULT:      -8.7      1.390      1.863
REMARK  6 active torsions:
REMARK  status: ('A' for Active; 'I' for Inactive)
REMARK    1  A    between atoms: C_4  and  C_5 
REMARK    2  A    between atoms: C_7  and  N_8 
REMARK       I    between atoms: N_8  and  C_9 
REMARK    3  A    between atoms: C_9  and  C_10 
REMARK    4  A    between atoms: C_10  and  N_11 
REMARK    5  A    between atoms: C_10  and  C_15 
REMARK       I    between atoms: N_11  and  C_12 
REMARK       I    between atoms: C_12  and  N_13 
REMARK    6  A    between atoms: C_15  and  C_16 
ROOT
HETATM    1  N   UNL     1      43.909 -12.175   7.300  1.00  0.00    -0.325 N 
HETATM    2  C   UNL     1      43.012 -12.097   6.253  1.00  0.00     0.245 C 
HETATM    3  O   UNL     1      42.473 -11.071   5.837  1.00  0.00    -0.271 OA
HETATM    4  H   UNL     1      44.394 -13.066   7.403  1.00  0.00     0.169 HD
ENDROOT
BRANCH   2   5
HETATM    5  C   UNL     1      42.719 -13.446   5.554  1.00  0.00     0.182 C 
BRANCH   5   6
HETATM    6  N   UNL     1      41.309 -13.817   5.741  1.00  0.00    -0.334 N 
HETATM    7  C   UNL     1      40.912 -14.873   6.497  1.00  0.00     0.292 C 
HETATM    8  N   UNL     1      39.565 -14.979   6.574  1.00  0.00    -0.254 NA
HETATM    9  O   UNL     1      41.662 -15.664   7.052  1.00  0.00    -0.254 OA
HETATM   10  H   UNL     1      39.045 -14.750   5.739  1.00  0.00     0.128 HD
HETATM   11  H   UNL     1      39.255 -15.826   7.034  1.00  0.00     0.128 HD
HETATM   12  H   UNL     1      40.627 -13.082   5.627  1.00  0.00     0.164 HD
ENDBRANCH   5   6
BRANCH   5  13
HETATM   13  C   UNL     1      43.179 -13.523   4.085  1.00  0.00     0.073 C 
BRANCH  13  14
HETATM   14  C   UNL     1      43.175 -14.867   3.387  1.00  0.00    -0.056 A 
HETATM   15  C   UNL     1      42.937 -15.043   2.017  1.00  0.00     0.007 A 
HETATM   16  C   UNL     1      42.937 -16.323   1.453  1.00  0.00     0.001 A 
HETATM   17  C   UNL     1      43.191 -17.441   2.243  1.00  0.00     0.000 A 
HETATM   18  C   UNL     1      43.450 -17.283   3.600  1.00  0.00     0.001 A 
HETATM   19  C   UNL     1      43.444 -16.007   4.165  1.00  0.00     0.007 A 
ENDBRANCH  13  14
ENDBRANCH   5  13
ENDBRANCH   2   5
BRANCH   1  20
HETATM   20  C   UNL     1      44.296 -11.154   8.189  1.00  0.00     0.035 A 
HETATM   21  C   UNL     1      43.577 -10.795   9.333  1.00  0.00     0.045 A 
HETATM   22  C   UNL     1      44.029  -9.770  10.182  1.00  0.00     0.019 A 
HETATM   23  C   UNL     1      45.235  -9.124   9.879  1.00  0.00     0.016 A 
HETATM   24  C   UNL     1      45.961  -9.474   8.742  1.00  0.00     0.003 A 
HETATM   25  C   UNL     1      45.486 -10.477   7.896  1.00  0.00     0.029 A 
BRANCH  22  26
HETATM   26  C   UNL     1      43.266  -9.353  11.357  1.00  0.00     0.180 A 
HETATM   27  N   UNL     1      42.130  -9.832  11.830  1.00  0.00    -0.226 NA
HETATM   28  C   UNL     1      41.900  -9.100  12.974  1.00  0.00     0.063 A 
HETATM   29  C   UNL     1      40.704  -9.333  13.806  1.00  0.00     0.073 C 
HETATM   30  C   UNL     1      42.930  -8.204  13.159  1.00  0.00     0.076 A 
HETATM   31  O   UNL     1      43.807  -8.352  12.122  1.00  0.00    -0.294 OA
HETATM   32  C   UNL     1      43.256  -7.189  14.175  1.00  0.00     0.079 C 
ENDBRANCH  22  26
ENDBRANCH   1  20
TORSDOF 6
ENDMDL
MODEL 5
REMARK VINA RESULT:      -8.7      2.322      9.346
REMARK  6 active torsions:
REMARK  status: ('A' for Active; 'I' for Inactive)
REMARK    1  A    between atoms: C_4  and  C_5 
REMARK    2  A    between atoms: C_7  and  N_8 
REMARK       I    between atoms: N_8  and  C_9 
REMARK    3  A    between atoms: C_9  and  C_10 
REMARK    4  A    between atoms: C_10  and  N_11 
REMARK    5  A    between atoms: C_10  and  C_15 
REMARK       I    between atoms: N_11  and  C_12 
REMARK       I    between atoms: C_12  and  N_13 
REMARK    6  A    between atoms: C_15  and  C_16 
ROOT
HETATM    1  N   UNL     1      42.676 -12.712   5.045  1.00  0.00    -0.325 N 
HETATM    2  C   UNL     1      43.506 -11.649   5.344  1.00  0.00     0.245 C 
HETATM    3  O   UNL     1      44.484 -11.288   4.689  1.00  0.00    -0.271 OA
HETATM    4  H   UNL     1      41.814 -12.769   5.587  1.00  0.00     0.169 HD
ENDROOT
BRANCH   2   5
HETATM    5  C   UNL     1      43.101 -10.852   6.607  1.00  0.00     0.182 C 
BRANCH   5   6
HETATM    6  N   UNL     1      41.731 -11.202   7.009  1.00  0.00    -0.334 N 
HETATM    7  C   UNL     1      40.692 -10.330   6.945  1.00  0.00     0.292 C 
HETATM    8  N   UNL     1      39.517 -10.896   7.305  1.00  0.00    -0.254 NA
HETATM    9  O   UNL     1      40.777  -9.155   6.612  1.00  0.00    -0.254 OA
HETATM   10  H   UNL     1      39.550 -11.566   8.060  1.00  0.00     0.128 HD
HETATM   11  H   UNL     1      38.756 -10.231   7.377  1.00  0.00     0.128 HD
HETATM   12  H   UNL     1      41.483 -12.179   6.972  1.00  0.00     0.164 HD
ENDBRANCH   5   6
BRANCH   5  13
HETATM   13  C   UNL     1      44.114 -10.926   7.767  1.00  0.00     0.073 C 
BRANCH  13  14
HETATM   14  C   UNL     1      43.913 -10.030   8.972  1.00  0.00    -0.056 A 
HETATM   15  C   UNL     1      43.765  -8.639   8.902  1.00  0.00     0.007 A 
HETATM   16  C   UNL     1      43.598  -7.882  10.067  1.00  0.00     0.001 A 
HETATM   17  C   UNL     1      43.561  -8.503  11.311  1.00  0.00     0.000 A 
HETATM   18  C   UNL     1      43.685  -9.886  11.397  1.00  0.00     0.001 A 
HETATM   19  C   UNL     1      43.858 -10.641  10.237  1.00  0.00     0.007 A 
ENDBRANCH  13  14
ENDBRANCH   5  13
ENDBRANCH   2   5
BRANCH   1  20
HETATM   20  C   UNL     1      42.835 -13.679   4.034  1.00  0.00     0.035 A 
HETATM   21  C   UNL     1      43.081 -15.034   4.274  1.00  0.00     0.045 A 
HETATM   22  C   UNL     1      43.219 -15.946   3.213  1.00  0.00     0.019 A 
HETATM   23  C   UNL     1      43.079 -15.480   1.900  1.00  0.00     0.016 A 
HETATM   24  C   UNL     1      42.833 -14.131   1.648  1.00  0.00     0.003 A 
HETATM   25  C   UNL     1      42.723 -13.234   2.711  1.00  0.00     0.029 A 
BRANCH  22  26
HETATM   26  C   UNL     1      43.520 -17.357   3.447  1.00  0.00     0.180 A 
HETATM   27  N   UNL     1      43.806 -17.975   4.579  1.00  0.00    -0.226 NA
HETATM   28  C   UNL     1      43.952 -19.296   4.219  1.00  0.00     0.063 A 
HETATM   29  C   UNL     1      44.285 -20.331   5.217  1.00  0.00     0.073 C 
HETATM   30  C   UNL     1      43.730 -19.430   2.865  1.00  0.00     0.076 A 
HETATM   31  O   UNL     1      43.461 -18.190   2.360  1.00  0.00    -0.294 OA
HETATM   32  C   UNL     1      43.723 -20.558   1.919  1.00  0.00     0.079 C 
ENDBRANCH  22  26
ENDBRANCH   1  20
TORSDOF 6
ENDMDL
MODEL 6
REMARK VINA RESULT:      -8.6      2.630      4.321
REMARK  6 active torsions:
REMARK  status: ('A' for Active; 'I' for Inactive)
REMARK    1  A    between atoms: C_4  and  C_5 
REMARK    2  A    between atoms: C_7  and  N_8 
REMARK       I    between atoms: N_8  and  C_9 
REMARK    3  A    between atoms: C_9  and  C_10 
REMARK    4  A    between atoms: C_10  and  N_11 
REMARK    5  A    between atoms: C_10  and  C_15 
REMARK       I    between atoms: N_11  and  C_12 
REMARK       I    between atoms: C_12  and  N_13 
REMARK    6  A    between atoms: C_15  and  C_16 
ROOT
HETATM    1  N   UNL     1      41.983 -13.880   3.448  1.00  0.00    -0.325 N 
HETATM    2  C   UNL     1      41.722 -15.236   3.461  1.00  0.00     0.245 C 
HETATM    3  O   UNL     1      41.212 -15.866   4.387  1.00  0.00    -0.271 OA
HETATM    4  H   UNL     1      42.244 -13.486   2.544  1.00  0.00     0.169 HD
ENDROOT
BRANCH   2   5
HETATM    5  C   UNL     1      42.092 -15.975   2.152  1.00  0.00     0.182 C 
BRANCH   5   6
HETATM    6  N   UNL     1      41.892 -15.088   0.997  1.00  0.00    -0.334 N 
HETATM    7  C   UNL     1      40.695 -14.938   0.374  1.00  0.00     0.292 C 
HETATM    8  N   UNL     1      40.739 -14.021  -0.621  1.00  0.00    -0.254 NA
HETATM    9  O   UNL     1      39.674 -15.552   0.650  1.00  0.00    -0.254 OA
HETATM   10  H   UNL     1      41.587 -13.992  -1.171  1.00  0.00     0.128 HD
HETATM   11  H   UNL     1      39.890 -13.984  -1.171  1.00  0.00     0.128 HD
HETATM   12  H   UNL     1      42.533 -14.315   0.902  1.00  0.00     0.164 HD
ENDBRANCH   5   6
BRANCH   5  13
HETATM   13  C   UNL     1      43.475 -16.655   2.166  1.00  0.00     0.073 C 
BRANCH  13  14
HETATM   14  C   UNL     1      43.602 -18.042   2.762  1.00  0.00    -0.056 A 
HETATM   15  C   UNL     1      43.284 -19.224   2.080  1.00  0.00     0.007 A 
HETATM   16  C   UNL     1      43.416 -20.466   2.710  1.00  0.00     0.001 A 
HETATM   17  C   UNL     1      43.883 -20.547   4.018  1.00  0.00     0.000 A 
HETATM   18  C   UNL     1      44.224 -19.385   4.702  1.00  0.00     0.001 A 
HETATM   19  C   UNL     1      44.086 -18.145   4.078  1.00  0.00     0.007 A 
ENDBRANCH  13  14
ENDBRANCH   5  13
ENDBRANCH   2   5
BRANCH   1  20
HETATM   20  C   UNL     1      41.856 -12.962   4.509  1.00  0.00     0.035 A 
HETATM   21  C   UNL     1      42.934 -12.454   5.241  1.00  0.00     0.045 A 
HETATM   22  C   UNL     1      42.734 -11.531   6.282  1.00  0.00     0.019 A 
HETATM   23  C   UNL     1      41.429 -11.103   6.562  1.00  0.00     0.016 A 
HETATM   24  C   UNL     1      40.348 -11.601   5.838  1.00  0.00     0.003 A 
HETATM   25  C   UNL     1      40.561 -12.535   4.824  1.00  0.00     0.029 A 
BRANCH  22  26
HETATM   26  C   UNL     1      43.844 -11.025   7.085  1.00  0.00     0.180 A 
HETATM   27  N   UNL     1      45.057 -10.667   6.704  1.00  0.00    -0.226 NA
HETATM   28  C   UNL     1      45.663 -10.229   7.860  1.00  0.00     0.063 A 
HETATM   29  C   UNL     1      47.055  -9.738   7.858  1.00  0.00     0.073 C 
HETATM   30  C   UNL     1      44.775 -10.327   8.909  1.00  0.00     0.076 A 
HETATM   31  O   UNL     1      43.609 -10.845   8.423  1.00  0.00    -0.294 OA
HETATM   32  C   UNL     1      44.823 -10.009  10.346  1.00  0.00     0.079 C 
ENDBRANCH  22  26
ENDBRANCH   1  20
TORSDOF 6
ENDMDL
MODEL 7
REMARK VINA RESULT:      -8.6      4.225      8.282
REMARK  6 active torsions:
REMARK  status: ('A' for Active; 'I' for Inactive)
REMARK    1  A    between atoms: C_4  and  C_5 
REMARK    2  A    between atoms: C_7  and  N_8 
REMARK       I    between atoms: N_8  and  C_9 
REMARK    3  A    between atoms: C_9  and  C_10 
REMARK    4  A    between atoms: C_10  and  N_11 
REMARK    5  A    between atoms: C_10  and  C_15 
REMARK       I    between atoms: N_11  and  C_12 
REMARK       I    between atoms: C_12  and  N_13 
REMARK    6  A    between atoms: C_15  and  C_16 
ROOT
HETATM    1  N   UNL     1      42.721 -13.328   3.634  1.00  0.00    -0.325 N 
HETATM    2  C   UNL     1      42.131 -13.885   4.751  1.00  0.00     0.245 C 
HETATM    3  O   UNL     1      40.925 -13.913   4.994  1.00  0.00    -0.271 OA
HETATM    4  H   UNL     1      43.710 -13.541   3.500  1.00  0.00     0.169 HD
ENDROOT
BRANCH   2   5
HETATM    5  C   UNL     1      43.121 -14.550   5.738  1.00  0.00     0.182 C 
BRANCH   5   6
HETATM    6  N   UNL     1      43.218 -13.753   6.969  1.00  0.00    -0.334 N 
HETATM    7  C   UNL     1      43.902 -12.582   7.045  1.00  0.00     0.292 C 
HETATM    8  N   UNL     1      43.797 -11.997   8.261  1.00  0.00    -0.254 NA
HETATM    9  O   UNL     1      44.557 -12.088   6.137  1.00  0.00    -0.254 OA
HETATM   10  H   UNL     1      43.791 -12.615   9.061  1.00  0.00     0.128 HD
HETATM   11  H   UNL     1      44.395 -11.187   8.370  1.00  0.00     0.128 HD
HETATM   12  H   UNL     1      42.480 -13.871   7.646  1.00  0.00     0.164 HD
ENDBRANCH   5   6
BRANCH   5  13
HETATM   13  C   UNL     1      42.862 -16.046   5.999  1.00  0.00     0.073 C 
BRANCH  13  14
HETATM   14  C   UNL     1      43.222 -17.050   4.924  1.00  0.00    -0.056 A 
HETATM   15  C   UNL     1      42.817 -16.951   3.586  1.00  0.00     0.007 A 
HETATM   16  C   UNL     1      43.182 -17.931   2.658  1.00  0.00     0.001 A 
HETATM   17  C   UNL     1      43.968 -19.012   3.046  1.00  0.00     0.000 A 
HETATM   18  C   UNL     1      44.396 -19.115   4.365  1.00  0.00     0.001 A 
HETATM   19  C   UNL     1      44.027 -18.142   5.294  1.00  0.00     0.007 A 
ENDBRANCH  13  14
ENDBRANCH   5  13
ENDBRANCH   2   5
BRANCH   1  20
HETATM   20  C   UNL     1      42.110 -12.569   2.617  1.00  0.00     0.035 A 
HETATM   21  C   UNL     1      41.303 -13.110   1.611  1.00  0.00     0.045 A 
HETATM   22  C   UNL     1      40.716 -12.291   0.631  1.00  0.00     0.019 A 
HETATM   23  C   UNL     1      40.931 -10.907   0.693  1.00  0.00     0.016 A 
HETATM   24  C   UNL     1      41.732 -10.356   1.691  1.00  0.00     0.003 A 
HETATM   25  C   UNL     1      42.327 -11.186   2.642  1.00  0.00     0.029 A 
BRANCH  22  26
HETATM   26  C   UNL     1      39.908 -12.846  -0.452  1.00  0.00     0.180 A 
HETATM   27  N   UNL     1      39.985 -14.030  -1.031  1.00  0.00    -0.226 NA
HETATM   28  C   UNL     1      38.956 -14.030  -1.947  1.00  0.00     0.063 A 
HETATM   29  C   UNL     1      38.704 -15.196  -2.816  1.00  0.00     0.073 C 
HETATM   30  C   UNL     1      38.278 -12.833  -1.874  1.00  0.00     0.076 A 
HETATM   31  O   UNL     1      38.886 -12.063  -0.924  1.00  0.00    -0.294 OA
HETATM   32  C   UNL     1      37.112 -12.255  -2.563  1.00  0.00     0.079 C 
ENDBRANCH  22  26
ENDBRANCH   1  20
TORSDOF 6
ENDMDL
MODEL 8
REMARK VINA RESULT:      -8.6      2.421      9.803
REMARK  6 active torsions:
REMARK  status: ('A' for Active; 'I' for Inactive)
REMARK    1  A    between atoms: C_4  and  C_5 
REMARK    2  A    between atoms: C_7  and  N_8 
REMARK       I    between atoms: N_8  and  C_9 
REMARK    3  A    between atoms: C_9  and  C_10 
REMARK    4  A    between atoms: C_10  and  N_11 
REMARK    5  A    between atoms: C_10  and  C_15 
REMARK       I    between atoms: N_11  and  C_12 
REMARK       I    between atoms: C_12  and  N_13 
REMARK    6  A    between atoms: C_15  and  C_16 
ROOT
HETATM    1  N   UNL     1      43.554  -9.954   9.730  1.00  0.00    -0.325 N 
HETATM    2  C   UNL     1      43.433 -10.470  11.006  1.00  0.00     0.245 C 
HETATM    3  O   UNL     1      43.988 -11.483  11.432  1.00  0.00    -0.271 OA
HETATM    4  H   UNL     1      43.171  -9.019   9.591  1.00  0.00     0.169 HD
ENDROOT
BRANCH   2   5
HETATM    5  C   UNL     1      42.532  -9.642  11.953  1.00  0.00     0.182 C 
BRANCH   5   6
HETATM    6  N   UNL     1      41.568 -10.520  12.630  1.00  0.00    -0.334 N 
HETATM    7  C   UNL     1      40.239 -10.249  12.702  1.00  0.00     0.292 C 
HETATM    8  N   UNL     1      39.541 -11.233  13.317  1.00  0.00    -0.254 NA
HETATM    9  O   UNL     1      39.702  -9.235  12.278  1.00  0.00    -0.254 OA
HETATM   10  H   UNL     1      39.993 -11.688  14.098  1.00  0.00     0.128 HD
HETATM   11  H   UNL     1      38.572 -10.993  13.484  1.00  0.00     0.128 HD
HETATM   12  H   UNL     1      41.819 -11.494  12.709  1.00  0.00     0.164 HD
ENDBRANCH   5   6
BRANCH   5  13
HETATM   13  C   UNL     1      43.295  -8.715  12.920  1.00  0.00     0.073 C 
BRANCH  13  14
HETATM   14  C   UNL     1      42.575  -7.518  13.506  1.00  0.00    -0.056 A 
HETATM   15  C   UNL     1      42.311  -6.335  12.803  1.00  0.00     0.007 A 
HETATM   16  C   UNL     1      41.652  -5.269  13.425  1.00  0.00     0.001 A 
HETATM   17  C   UNL     1      41.234  -5.375  14.748  1.00  0.00     0.000 A 
HETATM   18  C   UNL     1      41.469  -6.550  15.454  1.00  0.00     0.001 A 
HETATM   19  C   UNL     1      42.132  -7.612  14.837  1.00  0.00     0.007 A 
ENDBRANCH  13  14
ENDBRANCH   5  13
ENDBRANCH   2   5
BRANCH   1  20
HETATM   20  C   UNL     1      44.210 -10.524   8.622  1.00  0.00     0.035 A 
HETATM   21  C   UNL     1      43.581 -11.323   7.662  1.00  0.00     0.045 A 
HETATM   22  C   UNL     1      44.298 -11.852   6.575  1.00  0.00     0.019 A 
HETATM   23  C   UNL     1      45.659 -11.542   6.450  1.00  0.00     0.016 A 
HETATM   24  C   UNL     1      46.296 -10.746   7.399  1.00  0.00     0.003 A 
HETATM   25  C   UNL     1      45.576 -10.249   8.486  1.00  0.00     0.029 A 
BRANCH  22  26
HETATM   26  C   UNL     1      43.665 -12.724   5.588  1.00  0.00     0.180 A 
HETATM   27  N   UNL     1      43.246 -12.440   4.368  1.00  0.00    -0.226 NA
HETATM   28  C   UNL     1      42.781 -13.642   3.880  1.00  0.00     0.063 A 
HETATM   29  C   UNL     1      42.214 -13.749   2.521  1.00  0.00     0.073 C 
HETATM   30  C   UNL     1      42.954 -14.622   4.833  1.00  0.00     0.076 A 
HETATM   31  O   UNL     1      43.512 -14.041   5.935  1.00  0.00    -0.294 OA
HETATM   32  C   UNL     1      42.679 -16.067   4.900  1.00  0.00     0.079 C 
ENDBRANCH  22  26
ENDBRANCH   1  20
TORSDOF 6
ENDMDL
MODEL 9
REMARK VINA RESULT:      -8.3      2.401      9.419
REMARK  6 active torsions:
REMARK  status: ('A' for Active; 'I' for Inactive)
REMARK    1  A    between atoms: C_4  and  C_5 
REMARK    2  A    between atoms: C_7  and  N_8 
REMARK       I    between atoms: N_8  and  C_9 
REMARK    3  A    between atoms: C_9  and  C_10 
REMARK    4  A    between atoms: C_10  and  N_11 
REMARK    5  A    between atoms: C_10  and  C_15 
REMARK       I    between atoms: N_11  and  C_12 
REMARK       I    between atoms: C_12  and  N_13 
REMARK    6  A    between atoms: C_15  and  C_16 
ROOT
HETATM    1  N   UNL     1      42.026 -10.445   7.429  1.00  0.00    -0.325 N 
HETATM    2  C   UNL     1      42.929  -9.975   8.361  1.00  0.00     0.245 C 
HETATM    3  O   UNL     1      44.149  -9.903   8.215  1.00  0.00    -0.271 OA
HETATM    4  H   UNL     1      41.042 -10.275   7.638  1.00  0.00     0.169 HD
ENDROOT
BRANCH   2   5
HETATM    5  C   UNL     1      42.291  -9.473   9.679  1.00  0.00     0.182 C 
BRANCH   5   6
HETATM    6  N   UNL     1      40.852  -9.774   9.691  1.00  0.00    -0.334 N 
HETATM    7  C   UNL     1      39.901  -8.844   9.964  1.00  0.00     0.292 C 
HETATM    8  N   UNL     1      38.645  -9.338   9.852  1.00  0.00    -0.254 NA
HETATM    9  O   UNL     1      40.119  -7.685  10.288  1.00  0.00    -0.254 OA
HETATM   10  H   UNL     1      38.505 -10.290  10.160  1.00  0.00     0.128 HD
HETATM   11  H   UNL     1      37.930  -8.694  10.167  1.00  0.00     0.128 HD
HETATM   12  H   UNL     1      40.548 -10.558   9.134  1.00  0.00     0.164 HD
ENDBRANCH   5   6
BRANCH   5  13
HETATM   13  C   UNL     1      43.018  -9.925  10.960  1.00  0.00     0.073 C 
BRANCH  13  14
HETATM   14  C   UNL     1      42.715  -9.215  12.263  1.00  0.00    -0.056 A 
HETATM   15  C   UNL     1      41.753  -9.641  13.188  1.00  0.00     0.007 A 
HETATM   16  C   UNL     1      41.525  -8.917  14.362  1.00  0.00     0.001 A 
HETATM   17  C   UNL     1      42.264  -7.771  14.639  1.00  0.00     0.000 A 
HETATM   18  C   UNL     1      43.238  -7.346  13.743  1.00  0.00     0.001 A 
HETATM   19  C   UNL     1      43.462  -8.063  12.567  1.00  0.00     0.007 A 
ENDBRANCH  13  14
ENDBRANCH   5  13
ENDBRANCH   2   5
BRANCH   1  20
HETATM   20  C   UNL     1      42.298 -11.058   6.190  1.00  0.00     0.035 A 
HETATM   21  C   UNL     1      42.514 -12.430   6.023  1.00  0.00     0.045 A 
HETATM   22  C   UNL     1      42.771 -12.974   4.753  1.00  0.00     0.019 A 
HETATM   23  C   UNL     1      42.781 -12.120   3.642  1.00  0.00     0.016 A 
HETATM   24  C   UNL     1      42.566 -10.752   3.796  1.00  0.00     0.003 A 
HETATM   25  C   UNL     1      42.336 -10.223   5.067  1.00  0.00     0.029 A 
BRANCH  22  26
HETATM   26  C   UNL     1      43.043 -14.398   4.568  1.00  0.00     0.180 A 
HETATM   27  N   UNL     1      43.301 -15.325   5.473  1.00  0.00    -0.226 NA
HETATM   28  C   UNL     1      43.428 -16.487   4.745  1.00  0.00     0.063 A 
HETATM   29  C   UNL     1      43.727 -17.774   5.402  1.00  0.00     0.073 C 
HETATM   30  C   UNL     1      43.224 -16.216   3.409  1.00  0.00     0.076 A 
HETATM   31  O   UNL     1      42.985 -14.877   3.285  1.00  0.00    -0.294 OA
HETATM   32  C   UNL     1      43.212 -17.019   2.175  1.00  0.00     0.079 C 
ENDBRANCH  22  26
ENDBRANCH   1  20
TORSDOF 6
ENDMDL
MODEL 10
REMARK VINA RESULT:      -8.3      3.285      9.502
REMARK  6 active torsions:
REMARK  status: ('A' for Active; 'I' for Inactive)
REMARK    1  A    between atoms: C_4  and  C_5 
REMARK    2  A    between atoms: C_7  and  N_8 
REMARK       I    between atoms: N_8  and  C_9 
REMARK    3  A    between atoms: C_9  and  C_10 
REMARK    4  A    between atoms: C_10  and  N_11 
REMARK    5  A    between atoms: C_10  and  C_15 
REMARK       I    between atoms: N_11  and  C_12 
REMARK       I    between atoms: C_12  and  N_13 
REMARK    6  A    between atoms: C_15  and  C_16 
ROOT
HETATM    1  N   UNL     1      43.098  -9.996   9.074  1.00  0.00    -0.325 N 
HETATM    2  C   UNL     1      43.166 -10.395  10.394  1.00  0.00     0.245 C 
HETATM    3  O   UNL     1      43.985 -11.181  10.871  1.00  0.00    -0.271 OA
HETATM    4  H   UNL     1      42.476  -9.211   8.878  1.00  0.00     0.169 HD
ENDROOT
BRANCH   2   5
HETATM    5  C   UNL     1      42.115  -9.738  11.320  1.00  0.00     0.182 C 
BRANCH   5   6
HETATM    6  N   UNL     1      40.759 -10.071  10.862  1.00  0.00    -0.334 N 
HETATM    7  C   UNL     1      39.807  -9.135  10.613  1.00  0.00     0.292 C 
HETATM    8  N   UNL     1      38.660  -9.674  10.139  1.00  0.00    -0.254 NA
HETATM    9  O   UNL     1      39.938  -7.932  10.793  1.00  0.00    -0.254 OA
HETATM   10  H   UNL     1      38.383 -10.564  10.531  1.00  0.00     0.128 HD
HETATM   11  H   UNL     1      37.904  -9.005  10.061  1.00  0.00     0.128 HD
HETATM   12  H   UNL     1      40.647 -10.947  10.374  1.00  0.00     0.164 HD
ENDBRANCH   5   6
BRANCH   5  13
HETATM   13  C   UNL     1      42.330  -9.997  12.824  1.00  0.00     0.073 C 
BRANCH  13  14
HETATM   14  C   UNL     1      42.344  -8.817  13.775  1.00  0.00    -0.056 A 
HETATM   15  C   UNL     1      43.215  -7.725  13.663  1.00  0.00     0.007 A 
HETATM   16  C   UNL     1      43.172  -6.682  14.594  1.00  0.00     0.001 A 
HETATM   17  C   UNL     1      42.250  -6.706  15.636  1.00  0.00     0.000 A 
HETATM   18  C   UNL     1      41.364  -7.772  15.750  1.00  0.00     0.001 A 
HETATM   19  C   UNL     1      41.411  -8.817  14.826  1.00  0.00     0.007 A 
ENDBRANCH  13  14
ENDBRANCH   5  13
ENDBRANCH   2   5
BRANCH   1  20
HETATM   20  C   UNL     1      43.839 -10.484   7.980  1.00  0.00     0.035 A 
HETATM   21  C   UNL     1      43.277 -10.864   6.757  1.00  0.00     0.045 A 
HETATM   22  C   UNL     1      44.081 -11.335   5.704  1.00  0.00     0.019 A 
HETATM   23  C   UNL     1      45.468 -11.394   5.889  1.00  0.00     0.016 A 
HETATM   24  C   UNL     1      46.040 -11.016   7.102  1.00  0.00     0.003 A 
HETATM   25  C   UNL     1      45.226 -10.575   8.147  1.00  0.00     0.029 A 
BRANCH  22  26
HETATM   26  C   UNL     1      43.504 -11.777   4.436  1.00  0.00     0.180 A 
HETATM   27  N   UNL     1      43.419 -12.997   3.937  1.00  0.00    -0.226 NA
HETATM   28  C   UNL     1      42.746 -12.832   2.747  1.00  0.00     0.063 A 
HETATM   29  C   UNL     1      42.448 -13.980   1.869  1.00  0.00     0.073 C 
HETATM   30  C   UNL     1      42.432 -11.501   2.578  1.00  0.00     0.076 A 
HETATM   31  O   UNL     1      42.922 -10.815   3.653  1.00  0.00    -0.294 OA
HETATM   32  C   UNL     1      41.725 -10.721   1.548  1.00  0.00     0.079 C 
ENDBRANCH  22  26
ENDBRANCH   1  20
TORSDOF 6
ENDMDL
