MODEL 1
REMARK VINA RESULT:      -8.9      0.000      0.000
REMARK  7 active torsions:
REMARK  status: ('A' for Active; 'I' for Inactive)
REMARK    1  A    between atoms: C_6  and  N_7 
REMARK       I    between atoms: N_7  and  C_8 
REMARK       I    between atoms: C_8  and  N_9 
REMARK    2  A    between atoms: N_9  and  C_10 
REMARK    3  A    between atoms: C_10  and  C_11 
REMARK    4  A    between atoms: C_11  and  C_12 
REMARK    5  A    between atoms: C_12  and  C_13 
REMARK    6  A    between atoms: C_13  and  O_14 
REMARK    7  A    between atoms: O_14  and  C_15 
ROOT
HETATM    1  C   UNL     1      44.703 -11.407   6.750  1.00  0.00     0.219 C 
ENDROOT
BRANCH   1   2
HETATM    2  N   UNL     1      44.646 -10.949   8.111  1.00  0.00    -0.332 N 
HETATM    3  C   UNL     1      45.567 -10.060   8.572  1.00  0.00     0.321 C 
HETATM    4  N   UNL     1      45.442  -9.636   9.858  1.00  0.00    -0.309 N 
HETATM    5  O   UNL     1      46.522  -9.671   7.902  1.00  0.00    -0.247 OA
HETATM    6  H   UNL     1      46.291  -9.189  10.181  1.00  0.00     0.170 HD
HETATM    7  H   UNL     1      44.221 -11.551   8.801  1.00  0.00     0.165 HD
BRANCH   4   8
HETATM    8  C   UNL     1      44.326  -9.534  10.708  1.00  0.00     0.036 A 
HETATM    9  C   UNL     1      43.607  -8.357  10.918  1.00  0.00     0.037 A 
HETATM   10  C   UNL     1      42.544  -8.306  11.842  1.00  0.00    -0.054 A 
HETATM   11  C   UNL     1      42.185  -9.468  12.550  1.00  0.00    -0.056 A 
HETATM   12  C   UNL     1      41.806  -7.008  12.032  1.00  0.00     0.049 C 
HETATM   13  C   UNL     1      41.066  -9.468  13.553  1.00  0.00     0.049 C 
HETATM   14  C   UNL     1      42.927 -10.640  12.352  1.00  0.00     0.009 A 
HETATM   15  C   UNL     1      43.989 -10.670  11.447  1.00  0.00     0.030 A 
ENDBRANCH   4   8
ENDBRANCH   1   2
BRANCH   1  16
HETATM   16  C   UNL     1      44.117 -12.801   6.597  1.00  0.00    -0.085 C 
BRANCH  16  17
HETATM   17  C   UNL     1      43.614 -13.997   6.465  1.00  0.00    -0.078 C 
BRANCH  17  18
HETATM   18  C   UNL     1      43.029 -15.392   6.313  1.00  0.00     0.269 C 
BRANCH  18  19
HETATM   19  O   UNL     1      44.026 -16.251   5.771  1.00  0.00    -0.337 OA
BRANCH  19  20
HETATM   20  C   UNL     1      43.753 -16.869   4.568  1.00  0.00     0.099 A 
HETATM   21  C   UNL     1      43.810 -18.250   4.278  1.00  0.00     0.100 A 
HETATM   22  C   UNL     1      43.487 -18.644   2.956  1.00  0.00    -0.005 A 
HETATM   23  N   UNL     1      44.154 -19.190   5.195  1.00  0.00    -0.257 NA
HETATM   24  C   UNL     1      43.534 -20.006   2.621  1.00  0.00     0.015 A 
HETATM   25  C   UNL     1      43.126 -17.700   1.982  1.00  0.00     0.014 A 
HETATM   26  C   UNL     1      43.889 -20.947   3.575  1.00  0.00     0.020 A 
HETATM   27  C   UNL     1      44.188 -20.493   4.838  1.00  0.00     0.117 A 
HETATM   28  C   UNL     1      43.076 -16.348   2.293  1.00  0.00     0.004 A 
HETATM   29  C   UNL     1      43.389 -15.937   3.581  1.00  0.00     0.039 A 
ENDBRANCH  19  20
ENDBRANCH  18  19
ENDBRANCH  17  18
ENDBRANCH  16  17
ENDBRANCH   1  16
TORSDOF 7
ENDMDL
MODEL 2
REMARK VINA RESULT:      -8.8      1.593      2.940
REMARK  7 active torsions:
REMARK  status: ('A' for Active; 'I' for Inactive)
REMARK    1  A    between atoms: C_6  and  N_7 
REMARK       I    between atoms: N_7  and  C_8 
REMARK       I    between atoms: C_8  and  N_9 
REMARK    2  A    between atoms: N_9  and  C_10 
REMARK    3  A    between atoms: C_10  and  C_11 
REMARK    4  A    between atoms: C_11  and  C_12 
REMARK    5  A    between atoms: C_12  and  C_13 
REMARK    6  A    between atoms: C_13  and  O_14 
REMARK    7  A    between atoms: O_14  and  C_15 
ROOT
HETATM    1  C   UNL     1      44.013 -12.129   6.342  1.00  0.00     0.219 C 
ENDROOT
BRANCH   1   2
HETATM    2  N   UNL     1      44.301 -11.263   7.453  1.00  0.00    -0.332 N 
HETATM    3  C   UNL     1      45.558 -10.775   7.630  1.00  0.00     0.321 C 
HETATM    4  N   UNL     1      45.763  -9.932   8.678  1.00  0.00    -0.309 N 
HETATM    5  O   UNL     1      46.512 -11.098   6.924  1.00  0.00    -0.247 OA
HETATM    6  H   UNL     1      46.750  -9.826   8.876  1.00  0.00     0.170 HD
HETATM    7  H   UNL     1      43.731 -11.344   8.282  1.00  0.00     0.165 HD
BRANCH   4   8
HETATM    8  C   UNL     1      44.896  -9.069   9.371  1.00  0.00     0.036 A 
HETATM    9  C   UNL     1      44.428  -9.303  10.665  1.00  0.00     0.037 A 
HETATM   10  C   UNL     1      43.500  -8.435  11.274  1.00  0.00    -0.054 A 
HETATM   11  C   UNL     1      43.052  -7.299  10.574  1.00  0.00    -0.056 A 
HETATM   12  C   UNL     1      43.026  -8.738  12.669  1.00  0.00     0.049 C 
HETATM   13  C   UNL     1      42.057  -6.344  11.172  1.00  0.00     0.049 C 
HETATM   14  C   UNL     1      43.508  -7.082   9.267  1.00  0.00     0.009 A 
HETATM   15  C   UNL     1      44.413  -7.962   8.671  1.00  0.00     0.030 A 
ENDBRANCH   4   8
ENDBRANCH   1   2
BRANCH   1  16
HETATM   16  C   UNL     1      43.623 -13.525   6.800  1.00  0.00    -0.085 C 
BRANCH  16  17
HETATM   17  C   UNL     1      43.287 -14.723   7.191  1.00  0.00    -0.078 C 
BRANCH  17  18
HETATM   18  C   UNL     1      42.898 -16.120   7.648  1.00  0.00     0.269 C 
BRANCH  18  19
HETATM   19  O   UNL     1      42.081 -16.718   6.649  1.00  0.00    -0.337 OA
BRANCH  19  20
HETATM   20  C   UNL     1      42.697 -17.148   5.491  1.00  0.00     0.099 A 
HETATM   21  C   UNL     1      42.591 -16.586   4.200  1.00  0.00     0.100 A 
HETATM   22  C   UNL     1      43.321 -17.214   3.162  1.00  0.00    -0.005 A 
HETATM   23  N   UNL     1      41.833 -15.494   3.924  1.00  0.00    -0.257 NA
HETATM   24  C   UNL     1      43.243 -16.692   1.862  1.00  0.00     0.015 A 
HETATM   25  C   UNL     1      44.115 -18.345   3.411  1.00  0.00     0.014 A 
HETATM   26  C   UNL     1      42.462 -15.576   1.604  1.00  0.00     0.020 A 
HETATM   27  C   UNL     1      41.781 -15.017   2.660  1.00  0.00     0.117 A 
HETATM   28  C   UNL     1      44.204 -18.878   4.690  1.00  0.00     0.004 A 
HETATM   29  C   UNL     1      43.497 -18.280   5.724  1.00  0.00     0.039 A 
ENDBRANCH  19  20
ENDBRANCH  18  19
ENDBRANCH  17  18
ENDBRANCH  16  17
ENDBRANCH   1  16
TORSDOF 7
ENDMDL
MODEL 3
REMARK VINA RESULT:      -8.7      1.882     10.394
REMARK  7 active torsions:
REMARK  status: ('A' for Active; 'I' for Inactive)
REMARK    1  A    between atoms: C_6  and  N_7 
REMARK       I    between atoms: N_7  and  C_8 
REMARK       I    between atoms: C_8  and  N_9 
REMARK    2  A    between atoms: N_9  and  C_10 
REMARK    3  A    between atoms: C_10  and  C_11 
REMARK    4  A    between atoms: C_11  and  C_12 
REMARK    5  A    between atoms: C_12  and  C_13 
REMARK    6  A    between atoms: C_13  and  O_14 
REMARK    7  A    between atoms: O_14  and  C_15 
ROOT
HETATM    1  C   UNL     1      42.028 -13.332   6.142  1.00  0.00     0.219 C 
ENDROOT
BRANCH   1   2
HETATM    2  N   UNL     1      42.307 -14.426   5.252  1.00  0.00    -0.332 N 
HETATM    3  C   UNL     1      42.781 -14.185   4.001  1.00  0.00     0.321 C 
HETATM    4  N   UNL     1      43.059 -15.261   3.216  1.00  0.00    -0.309 N 
HETATM    5  O   UNL     1      42.919 -13.053   3.539  1.00  0.00    -0.247 OA
HETATM    6  H   UNL     1      43.161 -14.990   2.246  1.00  0.00     0.170 HD
HETATM    7  H   UNL     1      41.794 -15.287   5.379  1.00  0.00     0.165 HD
BRANCH   4   8
HETATM    8  C   UNL     1      43.412 -16.585   3.530  1.00  0.00     0.036 A 
HETATM    9  C   UNL     1      43.271 -17.662   2.654  1.00  0.00     0.037 A 
HETATM   10  C   UNL     1      43.573 -18.977   3.059  1.00  0.00    -0.054 A 
HETATM   11  C   UNL     1      44.047 -19.208   4.364  1.00  0.00    -0.056 A 
HETATM   12  C   UNL     1      43.398 -20.101   2.074  1.00  0.00     0.049 C 
HETATM   13  C   UNL     1      44.376 -20.592   4.851  1.00  0.00     0.049 C 
HETATM   14  C   UNL     1      44.164 -18.126   5.246  1.00  0.00     0.009 A 
HETATM   15  C   UNL     1      43.842 -16.831   4.836  1.00  0.00     0.030 A 
ENDBRANCH   4   8
ENDBRANCH   1   2
BRANCH   1  16
HETATM   16  C   UNL     1      43.292 -12.581   6.528  1.00  0.00    -0.085 C 
BRANCH  16  17
HETATM   17  C   UNL     1      44.376 -11.937   6.860  1.00  0.00    -0.078 C 
BRANCH  17  18
HETATM   18  C   UNL     1      45.640 -11.185   7.247  1.00  0.00     0.269 C 
BRANCH  18  19
HETATM   19  O   UNL     1      45.666 -11.031   8.662  1.00  0.00    -0.337 OA
BRANCH  19  20
HETATM   20  C   UNL     1      44.913 -10.011   9.208  1.00  0.00     0.099 A 
HETATM   21  C   UNL     1      44.156 -10.044  10.399  1.00  0.00     0.100 A 
HETATM   22  C   UNL     1      43.458  -8.863  10.752  1.00  0.00    -0.005 A 
HETATM   23  N   UNL     1      44.074 -11.138  11.199  1.00  0.00    -0.257 NA
HETATM   24  C   UNL     1      42.690  -8.851  11.926  1.00  0.00     0.015 A 
HETATM   25  C   UNL     1      43.521  -7.713   9.950  1.00  0.00     0.014 A 
HETATM   26  C   UNL     1      42.621  -9.980  12.726  1.00  0.00     0.020 A 
HETATM   27  C   UNL     1      43.325 -11.091  12.323  1.00  0.00     0.117 A 
HETATM   28  C   UNL     1      44.274  -7.705   8.783  1.00  0.00     0.004 A 
HETATM   29  C   UNL     1      44.966  -8.851   8.416  1.00  0.00     0.039 A 
ENDBRANCH  19  20
ENDBRANCH  18  19
ENDBRANCH  17  18
ENDBRANCH  16  17
ENDBRANCH   1  16
TORSDOF 7
ENDMDL
MODEL 4
REMARK VINA RESULT:      -8.6      1.544     10.583
REMARK  7 active torsions:
REMARK  status: ('A' for Active; 'I' for Inactive)
REMARK    1  A    between atoms: C_6  and  N_7 
REMARK       I    between atoms: N_7  and  C_8 
REMARK       I    between atoms: C_8  and  N_9 
REMARK    2  A    between atoms: N_9  and  C_10 
REMARK    3  A    between atoms: C_10  and  C_11 
REMARK    4  A    between atoms: C_11  and  C_12 
REMARK    5  A    between atoms: C_12  and  C_13 
REMARK    6  A    between atoms: C_13  and  O_14 
REMARK    7  A    between atoms: O_14  and  C_15 
ROOT
HETATM    1  C   UNL     1      42.651 -13.759   6.348  1.00  0.00     0.219 C 
ENDROOT
BRANCH   1   2
HETATM    2  N   UNL     1      43.171 -15.078   6.107  1.00  0.00    -0.332 N 
HETATM    3  C   UNL     1      43.302 -15.959   7.135  1.00  0.00     0.321 C 
HETATM    4  N   UNL     1      43.766 -17.203   6.841  1.00  0.00    -0.309 N 
HETATM    5  O   UNL     1      43.070 -15.666   8.307  1.00  0.00    -0.247 OA
HETATM    6  H   UNL     1      44.064 -17.690   7.677  1.00  0.00     0.170 HD
HETATM    7  H   UNL     1      43.791 -15.210   5.321  1.00  0.00     0.165 HD
BRANCH   4   8
HETATM    8  C   UNL     1      43.720 -17.967   5.661  1.00  0.00     0.036 A 
HETATM    9  C   UNL     1      43.859 -19.355   5.621  1.00  0.00     0.037 A 
HETATM   10  C   UNL     1      43.879 -20.051   4.397  1.00  0.00    -0.054 A 
HETATM   11  C   UNL     1      43.732 -19.339   3.192  1.00  0.00    -0.056 A 
HETATM   12  C   UNL     1      44.037 -21.548   4.412  1.00  0.00     0.049 C 
HETATM   13  C   UNL     1      43.754 -20.030   1.857  1.00  0.00     0.049 C 
HETATM   14  C   UNL     1      43.616 -17.943   3.237  1.00  0.00     0.009 A 
HETATM   15  C   UNL     1      43.618 -17.266   4.458  1.00  0.00     0.030 A 
ENDBRANCH   4   8
ENDBRANCH   1   2
BRANCH   1  16
HETATM   16  C   UNL     1      43.754 -12.769   6.685  1.00  0.00    -0.085 C 
BRANCH  16  17
HETATM   17  C   UNL     1      44.700 -11.919   6.975  1.00  0.00    -0.078 C 
BRANCH  17  18
HETATM   18  C   UNL     1      45.801 -10.928   7.313  1.00  0.00     0.269 C 
BRANCH  18  19
HETATM   19  O   UNL     1      45.842 -10.752   8.724  1.00  0.00    -0.337 OA
BRANCH  19  20
HETATM   20  C   UNL     1      44.997  -9.812   9.277  1.00  0.00     0.099 A 
HETATM   21  C   UNL     1      44.199  -9.947  10.435  1.00  0.00     0.100 A 
HETATM   22  C   UNL     1      43.403  -8.835  10.802  1.00  0.00    -0.005 A 
HETATM   23  N   UNL     1      44.168 -11.076  11.189  1.00  0.00    -0.257 NA
HETATM   24  C   UNL     1      42.593  -8.925  11.944  1.00  0.00     0.015 A 
HETATM   25  C   UNL     1      43.411  -7.652  10.046  1.00  0.00     0.014 A 
HETATM   26  C   UNL     1      42.577 -10.088  12.698  1.00  0.00     0.020 A 
HETATM   27  C   UNL     1      43.376 -11.128  12.283  1.00  0.00     0.117 A 
HETATM   28  C   UNL     1      44.205  -7.544   8.912  1.00  0.00     0.004 A 
HETATM   29  C   UNL     1      44.993  -8.621   8.532  1.00  0.00     0.039 A 
ENDBRANCH  19  20
ENDBRANCH  18  19
ENDBRANCH  17  18
ENDBRANCH  16  17
ENDBRANCH   1  16
TORSDOF 7
ENDMDL
MODEL 5
REMARK VINA RESULT:      -8.5      3.193      9.275
REMARK  7 active torsions:
REMARK  status: ('A' for Active; 'I' for Inactive)
REMARK    1  A    between atoms: C_6  and  N_7 
REMARK       I    between atoms: N_7  and  C_8 
REMARK       I    between atoms: C_8  and  N_9 
REMARK    2  A    between atoms: N_9  and  C_10 
REMARK    3  A    between atoms: C_10  and  C_11 
REMARK    4  A    between atoms: C_11  and  C_12 
REMARK    5  A    between atoms: C_12  and  C_13 
REMARK    6  A    between atoms: C_13  and  O_14 
REMARK    7  A    between atoms: O_14  and  C_15 
ROOT
HETATM    1  C   UNL     1      40.261 -14.789   6.485  1.00  0.00     0.219 C 
ENDROOT
BRANCH   1   2
HETATM    2  N   UNL     1      41.325 -15.374   5.715  1.00  0.00    -0.332 N 
HETATM    3  C   UNL     1      42.621 -15.127   6.044  1.00  0.00     0.321 C 
HETATM    4  N   UNL     1      43.585 -15.736   5.302  1.00  0.00    -0.309 N 
HETATM    5  O   UNL     1      42.954 -14.349   6.937  1.00  0.00    -0.247 OA
HETATM    6  H   UNL     1      44.489 -15.306   5.451  1.00  0.00     0.170 HD
HETATM    7  H   UNL     1      41.144 -15.607   4.750  1.00  0.00     0.165 HD
BRANCH   4   8
HETATM    8  C   UNL     1      43.581 -16.928   4.555  1.00  0.00     0.036 A 
HETATM    9  C   UNL     1      43.910 -18.180   5.076  1.00  0.00     0.037 A 
HETATM   10  C   UNL     1      43.959 -19.322   4.253  1.00  0.00    -0.054 A 
HETATM   11  C   UNL     1      43.648 -19.205   2.886  1.00  0.00    -0.056 A 
HETATM   12  C   UNL     1      44.325 -20.647   4.867  1.00  0.00     0.049 C 
HETATM   13  C   UNL     1      43.693 -20.390   1.961  1.00  0.00     0.049 C 
HETATM   14  C   UNL     1      43.341 -17.942   2.364  1.00  0.00     0.009 A 
HETATM   15  C   UNL     1      43.315 -16.815   3.189  1.00  0.00     0.030 A 
ENDBRANCH   4   8
ENDBRANCH   1   2
BRANCH   1  16
HETATM   16  C   UNL     1      39.940 -13.376   6.024  1.00  0.00    -0.085 C 
BRANCH  16  17
HETATM   17  C   UNL     1      39.666 -12.165   5.628  1.00  0.00    -0.078 C 
BRANCH  17  18
HETATM   18  C   UNL     1      39.346 -10.752   5.165  1.00  0.00     0.269 C 
BRANCH  18  19
HETATM   19  O   UNL     1      40.510  -9.948   5.310  1.00  0.00    -0.337 OA
BRANCH  19  20
HETATM   20  C   UNL     1      41.723 -10.508   4.965  1.00  0.00     0.099 A 
HETATM   21  C   UNL     1      42.815 -10.789   5.815  1.00  0.00     0.100 A 
HETATM   22  C   UNL     1      43.964 -11.365   5.220  1.00  0.00    -0.005 A 
HETATM   23  N   UNL     1      42.804 -10.532   7.148  1.00  0.00    -0.257 NA
HETATM   24  C   UNL     1      45.074 -11.658   6.026  1.00  0.00     0.015 A 
HETATM   25  C   UNL     1      44.009 -11.644   3.845  1.00  0.00     0.014 A 
HETATM   26  C   UNL     1      45.040 -11.387   7.385  1.00  0.00     0.020 A 
HETATM   27  C   UNL     1      43.891 -10.828   7.895  1.00  0.00     0.117 A 
HETATM   28  C   UNL     1      42.922 -11.360   3.030  1.00  0.00     0.004 A 
HETATM   29  C   UNL     1      41.785 -10.794   3.590  1.00  0.00     0.039 A 
ENDBRANCH  19  20
ENDBRANCH  18  19
ENDBRANCH  17  18
ENDBRANCH  16  17
ENDBRANCH   1  16
TORSDOF 7
ENDMDL
MODEL 6
REMARK VINA RESULT:      -8.4      1.807      2.816
REMARK  7 active torsions:
REMARK  status: ('A' for Active; 'I' for Inactive)
REMARK    1  A    between atoms: C_6  and  N_7 
REMARK       I    between atoms: N_7  and  C_8 
REMARK       I    between atoms: C_8  and  N_9 
REMARK    2  A    between atoms: N_9  and  C_10 
REMARK    3  A    between atoms: C_10  and  C_11 
REMARK    4  A    between atoms: C_11  and  C_12 
REMARK    5  A    between atoms: C_12  and  C_13 
REMARK    6  A    between atoms: C_13  and  O_14 
REMARK    7  A    between atoms: O_14  and  C_15 
ROOT
HETATM    1  C   UNL     1      45.888 -10.668   7.905  1.00  0.00     0.219 C 
ENDROOT
BRANCH   1   2
HETATM    2  N   UNL     1      45.084 -10.097   8.950  1.00  0.00    -0.332 N 
HETATM    3  C   UNL     1      44.915  -8.749   9.022  1.00  0.00     0.321 C 
HETATM    4  N   UNL     1      44.115  -8.268  10.012  1.00  0.00    -0.309 N 
HETATM    5  O   UNL     1      45.486  -7.957   8.274  1.00  0.00    -0.247 OA
HETATM    6  H   UNL     1      44.250  -7.273  10.140  1.00  0.00     0.170 HD
HETATM    7  H   UNL     1      44.995 -10.606   9.817  1.00  0.00     0.165 HD
BRANCH   4   8
HETATM    8  C   UNL     1      43.043  -8.845  10.715  1.00  0.00     0.036 A 
HETATM    9  C   UNL     1      41.772  -9.047  10.176  1.00  0.00     0.037 A 
HETATM   10  C   UNL     1      40.720  -9.562  10.960  1.00  0.00    -0.054 A 
HETATM   11  C   UNL     1      40.960  -9.899  12.305  1.00  0.00    -0.056 A 
HETATM   12  C   UNL     1      39.368  -9.755  10.328  1.00  0.00     0.049 C 
HETATM   13  C   UNL     1      39.872 -10.443  13.189  1.00  0.00     0.049 C 
HETATM   14  C   UNL     1      42.232  -9.672  12.846  1.00  0.00     0.009 A 
HETATM   15  C   UNL     1      43.258  -9.144  12.062  1.00  0.00     0.030 A 
ENDBRANCH   4   8
ENDBRANCH   1   2
BRANCH   1  16
HETATM   16  C   UNL     1      45.036 -11.293   6.812  1.00  0.00    -0.085 C 
BRANCH  16  17
HETATM   17  C   UNL     1      44.305 -11.829   5.875  1.00  0.00    -0.078 C 
BRANCH  17  18
HETATM   18  C   UNL     1      43.453 -12.455   4.782  1.00  0.00     0.269 C 
BRANCH  18  19
HETATM   19  O   UNL     1      42.663 -13.491   5.354  1.00  0.00    -0.337 OA
BRANCH  19  20
HETATM   20  C   UNL     1      43.148 -14.781   5.280  1.00  0.00     0.099 A 
HETATM   21  C   UNL     1      43.051 -15.675   4.192  1.00  0.00     0.100 A 
HETATM   22  C   UNL     1      43.629 -16.958   4.358  1.00  0.00    -0.005 A 
HETATM   23  N   UNL     1      42.440 -15.360   3.021  1.00  0.00    -0.257 NA
HETATM   24  C   UNL     1      43.553 -17.881   3.304  1.00  0.00     0.015 A 
HETATM   25  C   UNL     1      44.269 -17.318   5.554  1.00  0.00     0.014 A 
HETATM   26  C   UNL     1      42.923 -17.536   2.119  1.00  0.00     0.020 A 
HETATM   27  C   UNL     1      42.386 -16.273   2.026  1.00  0.00     0.117 A 
HETATM   28  C   UNL     1      44.353 -16.420   6.610  1.00  0.00     0.004 A 
HETATM   29  C   UNL     1      43.794 -15.158   6.470  1.00  0.00     0.039 A 
ENDBRANCH  19  20
ENDBRANCH  18  19
ENDBRANCH  17  18
ENDBRANCH  16  17
ENDBRANCH   1  16
TORSDOF 7
ENDMDL
MODEL 7
REMARK VINA RESULT:      -8.3      1.813      2.242
REMARK  7 active torsions:
REMARK  status: ('A' for Active; 'I' for Inactive)
REMARK    1  A    between atoms: C_6  and  N_7 
REMARK       I    between atoms: N_7  and  C_8 
REMARK       I    between atoms: C_8  and  N_9 
REMARK    2  A    between atoms: N_9  and  C_10 
REMARK    3  A    between atoms: C_10  and  C_11 
REMARK    4  A    between atoms: C_11  and  C_12 
REMARK    5  A    between atoms: C_12  and  C_13 
REMARK    6  A    between atoms: C_13  and  O_14 
REMARK    7  A    between atoms: O_14  and  C_15 
ROOT
HETATM    1  C   UNL     1      42.829  -9.674   7.509  1.00  0.00     0.219 C 
ENDROOT
BRANCH   1   2
HETATM    2  N   UNL     1      42.660  -9.884   8.921  1.00  0.00    -0.332 N 
HETATM    3  C   UNL     1      43.544 -10.658   9.607  1.00  0.00     0.321 C 
HETATM    4  N   UNL     1      43.353 -10.792  10.947  1.00  0.00    -0.309 N 
HETATM    5  O   UNL     1      44.462 -11.272   9.067  1.00  0.00    -0.247 OA
HETATM    6  H   UNL     1      43.890 -11.566  11.318  1.00  0.00     0.170 HD
HETATM    7  H   UNL     1      41.729  -9.819   9.306  1.00  0.00     0.165 HD
BRANCH   4   8
HETATM    8  C   UNL     1      42.729  -9.960  11.894  1.00  0.00     0.036 A 
HETATM    9  C   UNL     1      43.337  -8.851  12.484  1.00  0.00     0.037 A 
HETATM   10  C   UNL     1      42.682  -8.105  13.482  1.00  0.00    -0.054 A 
HETATM   11  C   UNL     1      41.381  -8.468  13.878  1.00  0.00    -0.056 A 
HETATM   12  C   UNL     1      43.387  -6.921  14.088  1.00  0.00     0.049 C 
HETATM   13  C   UNL     1      40.639  -7.712  14.944  1.00  0.00     0.049 C 
HETATM   14  C   UNL     1      40.785  -9.596  13.299  1.00  0.00     0.009 A 
HETATM   15  C   UNL     1      41.455 -10.338  12.324  1.00  0.00     0.030 A 
ENDBRANCH   4   8
ENDBRANCH   1   2
BRANCH   1  16
HETATM   16  C   UNL     1      42.454 -10.908   6.705  1.00  0.00    -0.085 C 
BRANCH  16  17
HETATM   17  C   UNL     1      42.132 -11.967   6.016  1.00  0.00    -0.078 C 
BRANCH  17  18
HETATM   18  C   UNL     1      41.756 -13.202   5.212  1.00  0.00     0.269 C 
BRANCH  18  19
HETATM   19  O   UNL     1      42.860 -14.099   5.206  1.00  0.00    -0.337 OA
BRANCH  19  20
HETATM   20  C   UNL     1      42.999 -14.937   4.119  1.00  0.00     0.099 A 
HETATM   21  C   UNL     1      43.340 -16.307   4.125  1.00  0.00     0.100 A 
HETATM   22  C   UNL     1      43.426 -16.956   2.869  1.00  0.00    -0.005 A 
HETATM   23  N   UNL     1      43.582 -17.008   5.262  1.00  0.00    -0.257 NA
HETATM   24  C   UNL     1      43.765 -18.317   2.827  1.00  0.00     0.015 A 
HETATM   25  C   UNL     1      43.182 -16.262   1.673  1.00  0.00     0.014 A 
HETATM   26  C   UNL     1      44.008 -19.011   4.002  1.00  0.00     0.020 A 
HETATM   27  C   UNL     1      43.905 -18.318   5.185  1.00  0.00     0.117 A 
HETATM   28  C   UNL     1      42.847 -14.915   1.693  1.00  0.00     0.004 A 
HETATM   29  C   UNL     1      42.757 -14.258   2.912  1.00  0.00     0.039 A 
ENDBRANCH  19  20
ENDBRANCH  18  19
ENDBRANCH  17  18
ENDBRANCH  16  17
ENDBRANCH   1  16
TORSDOF 7
ENDMDL
MODEL 8
REMARK VINA RESULT:      -8.3      3.019     10.037
REMARK  7 active torsions:
REMARK  status: ('A' for Active; 'I' for Inactive)
REMARK    1  A    between atoms: C_6  and  N_7 
REMARK       I    between atoms: N_7  and  C_8 
REMARK       I    between atoms: C_8  and  N_9 
REMARK    2  A    between atoms: N_9  and  C_10 
REMARK    3  A    between atoms: C_10  and  C_11 
REMARK    4  A    between atoms: C_11  and  C_12 
REMARK    5  A    between atoms: C_12  and  C_13 
REMARK    6  A    between atoms: C_13  and  O_14 
REMARK    7  A    between atoms: O_14  and  C_15 
ROOT
HETATM    1  C   UNL     1      39.586 -13.418   2.868  1.00  0.00     0.219 C 
ENDROOT
BRANCH   1   2
HETATM    2  N   UNL     1      40.569 -14.416   2.548  1.00  0.00    -0.332 N 
HETATM    3  C   UNL     1      41.566 -14.134   1.666  1.00  0.00     0.321 C 
HETATM    4  N   UNL     1      42.488 -15.106   1.428  1.00  0.00    -0.309 N 
HETATM    5  O   UNL     1      41.638 -13.074   1.047  1.00  0.00    -0.247 OA
HETATM    6  H   UNL     1      43.025 -14.904   0.594  1.00  0.00     0.170 HD
HETATM    7  H   UNL     1      40.310 -15.387   2.635  1.00  0.00     0.165 HD
BRANCH   4   8
HETATM    8  C   UNL     1      42.938 -16.184   2.211  1.00  0.00     0.036 A 
HETATM    9  C   UNL     1      42.951 -17.511   1.781  1.00  0.00     0.037 A 
HETATM   10  C   UNL     1      43.344 -18.553   2.643  1.00  0.00    -0.054 A 
HETATM   11  C   UNL     1      43.752 -18.250   3.956  1.00  0.00    -0.056 A 
HETATM   12  C   UNL     1      43.335 -19.968   2.128  1.00  0.00     0.049 C 
HETATM   13  C   UNL     1      44.173 -19.324   4.920  1.00  0.00     0.049 C 
HETATM   14  C   UNL     1      43.714 -16.919   4.388  1.00  0.00     0.009 A 
HETATM   15  C   UNL     1      43.304 -15.899   3.528  1.00  0.00     0.030 A 
ENDBRANCH   4   8
ENDBRANCH   1   2
BRANCH   1  16
HETATM   16  C   UNL     1      39.975 -12.615   4.099  1.00  0.00    -0.085 C 
BRANCH  16  17
HETATM   17  C   UNL     1      40.308 -11.926   5.155  1.00  0.00    -0.078 C 
BRANCH  17  18
HETATM   18  C   UNL     1      40.698 -11.123   6.386  1.00  0.00     0.269 C 
BRANCH  18  19
HETATM   19  O   UNL     1      41.759 -10.241   6.040  1.00  0.00    -0.337 OA
BRANCH  19  20
HETATM   20  C   UNL     1      42.998 -10.482   6.597  1.00  0.00     0.099 A 
HETATM   21  C   UNL     1      43.455 -10.101   7.878  1.00  0.00     0.100 A 
HETATM   22  C   UNL     1      44.781 -10.462   8.223  1.00  0.00    -0.005 A 
HETATM   23  N   UNL     1      42.690  -9.418   8.768  1.00  0.00    -0.257 NA
HETATM   24  C   UNL     1      45.278 -10.101   9.485  1.00  0.00     0.015 A 
HETATM   25  C   UNL     1      45.599 -11.168   7.328  1.00  0.00     0.014 A 
HETATM   26  C   UNL     1      44.478  -9.404  10.377  1.00  0.00     0.020 A 
HETATM   27  C   UNL     1      43.201  -9.088   9.975  1.00  0.00     0.117 A 
HETATM   28  C   UNL     1      45.126 -11.533   6.075  1.00  0.00     0.004 A 
HETATM   29  C   UNL     1      43.831 -11.189   5.714  1.00  0.00     0.039 A 
ENDBRANCH  19  20
ENDBRANCH  18  19
ENDBRANCH  17  18
ENDBRANCH  16  17
ENDBRANCH   1  16
TORSDOF 7
ENDMDL
MODEL 9
REMARK VINA RESULT:      -8.2      2.882      9.694
REMARK  7 active torsions:
REMARK  status: ('A' for Active; 'I' for Inactive)
REMARK    1  A    between atoms: C_6  and  N_7 
REMARK       I    between atoms: N_7  and  C_8 
REMARK       I    between atoms: C_8  and  N_9 
REMARK    2  A    between atoms: N_9  and  C_10 
REMARK    3  A    between atoms: C_10  and  C_11 
REMARK    4  A    between atoms: C_11  and  C_12 
REMARK    5  A    between atoms: C_12  and  C_13 
REMARK    6  A    between atoms: C_13  and  O_14 
REMARK    7  A    between atoms: O_14  and  C_15 
ROOT
HETATM    1  C   UNL     1      40.281 -14.679   6.445  1.00  0.00     0.219 C 
ENDROOT
BRANCH   1   2
HETATM    2  N   UNL     1      41.345 -15.289   5.695  1.00  0.00    -0.332 N 
HETATM    3  C   UNL     1      42.640 -15.087   6.059  1.00  0.00     0.321 C 
HETATM    4  N   UNL     1      43.602 -15.718   5.333  1.00  0.00    -0.309 N 
HETATM    5  O   UNL     1      42.974 -14.332   6.970  1.00  0.00    -0.247 OA
HETATM    6  H   UNL     1      44.515 -15.320   5.510  1.00  0.00     0.170 HD
HETATM    7  H   UNL     1      41.181 -15.503   4.722  1.00  0.00     0.165 HD
BRANCH   4   8
HETATM    8  C   UNL     1      43.578 -16.900   4.570  1.00  0.00     0.036 A 
HETATM    9  C   UNL     1      43.911 -18.160   5.069  1.00  0.00     0.037 A 
HETATM   10  C   UNL     1      43.939 -19.292   4.231  1.00  0.00    -0.054 A 
HETATM   11  C   UNL     1      43.605 -19.155   2.870  1.00  0.00    -0.056 A 
HETATM   12  C   UNL     1      44.309 -20.626   4.820  1.00  0.00     0.049 C 
HETATM   13  C   UNL     1      43.627 -20.328   1.930  1.00  0.00     0.049 C 
HETATM   14  C   UNL     1      43.295 -17.884   2.371  1.00  0.00     0.009 A 
HETATM   15  C   UNL     1      43.289 -16.768   3.211  1.00  0.00     0.030 A 
ENDBRANCH   4   8
ENDBRANCH   1   2
BRANCH   1  16
HETATM   16  C   UNL     1      40.024 -13.248   6.002  1.00  0.00    -0.085 C 
BRANCH  16  17
HETATM   17  C   UNL     1      39.804 -12.020   5.620  1.00  0.00    -0.078 C 
BRANCH  17  18
HETATM   18  C   UNL     1      39.546 -10.590   5.175  1.00  0.00     0.269 C 
BRANCH  18  19
HETATM   19  O   UNL     1      40.787  -9.896   5.120  1.00  0.00    -0.337 OA
BRANCH  19  20
HETATM   20  C   UNL     1      41.554  -9.863   6.266  1.00  0.00     0.099 A 
HETATM   21  C   UNL     1      42.843 -10.407   6.455  1.00  0.00     0.100 A 
HETATM   22  C   UNL     1      43.428 -10.248   7.736  1.00  0.00    -0.005 A 
HETATM   23  N   UNL     1      43.525 -11.060   5.480  1.00  0.00    -0.257 NA
HETATM   24  C   UNL     1      44.707 -10.775   7.970  1.00  0.00     0.015 A 
HETATM   25  C   UNL     1      42.752  -9.577   8.767  1.00  0.00     0.014 A 
HETATM   26  C   UNL     1      45.383 -11.439   6.959  1.00  0.00     0.020 A 
HETATM   27  C   UNL     1      44.756 -11.555   5.741  1.00  0.00     0.117 A 
HETATM   28  C   UNL     1      41.485  -9.050   8.556  1.00  0.00     0.004 A 
HETATM   29  C   UNL     1      40.891  -9.194   7.310  1.00  0.00     0.039 A 
ENDBRANCH  19  20
ENDBRANCH  18  19
ENDBRANCH  17  18
ENDBRANCH  16  17
ENDBRANCH   1  16
TORSDOF 7
ENDMDL
MODEL 10
REMARK VINA RESULT:      -8.1      4.966      8.904
REMARK  7 active torsions:
REMARK  status: ('A' for Active; 'I' for Inactive)
REMARK    1  A    between atoms: C_6  and  N_7 
REMARK       I    between atoms: N_7  and  C_8 
REMARK       I    between atoms: C_8  and  N_9 
REMARK    2  A    between atoms: N_9  and  C_10 
REMARK    3  A    between atoms: C_10  and  C_11 
REMARK    4  A    between atoms: C_11  and  C_12 
REMARK    5  A    between atoms: C_12  and  C_13 
REMARK    6  A    between atoms: C_13  and  O_14 
REMARK    7  A    between atoms: O_14  and  C_15 
ROOT
HETATM    1  C   UNL     1      40.258 -14.809   6.421  1.00  0.00     0.219 C 
ENDROOT
BRANCH   1   2
HETATM    2  N   UNL     1      41.301 -15.391   5.620  1.00  0.00    -0.332 N 
HETATM    3  C   UNL     1      42.603 -15.080   5.864  1.00  0.00     0.321 C 
HETATM    4  N   UNL     1      43.548 -15.689   5.097  1.00  0.00    -0.309 N 
HETATM    5  O   UNL     1      42.952 -14.249   6.700  1.00  0.00    -0.247 OA
HETATM    6  H   UNL     1      44.441 -15.219   5.175  1.00  0.00     0.170 HD
HETATM    7  H   UNL     1      41.077 -15.676   4.678  1.00  0.00     0.165 HD
BRANCH   4   8
HETATM    8  C   UNL     1      43.549 -16.914   4.407  1.00  0.00     0.036 A 
HETATM    9  C   UNL     1      43.897 -18.137   4.984  1.00  0.00     0.037 A 
HETATM   10  C   UNL     1      43.951 -19.316   4.215  1.00  0.00    -0.054 A 
HETATM   11  C   UNL     1      43.627 -19.267   2.846  1.00  0.00    -0.056 A 
HETATM   12  C   UNL     1      44.337 -20.606   4.887  1.00  0.00     0.049 C 
HETATM   13  C   UNL     1      43.676 -20.494   1.978  1.00  0.00     0.049 C 
HETATM   14  C   UNL     1      43.302 -18.033   2.269  1.00  0.00     0.009 A 
HETATM   15  C   UNL     1      43.271 -16.869   3.040  1.00  0.00     0.030 A 
ENDBRANCH   4   8
ENDBRANCH   1   2
BRANCH   1  16
HETATM   16  C   UNL     1      39.984 -13.366   6.030  1.00  0.00    -0.085 C 
BRANCH  16  17
HETATM   17  C   UNL     1      39.750 -12.128   5.695  1.00  0.00    -0.078 C 
BRANCH  17  18
HETATM   18  C   UNL     1      39.475 -10.685   5.302  1.00  0.00     0.269 C 
BRANCH  18  19
HETATM   19  O   UNL     1      40.016 -10.451   4.007  1.00  0.00    -0.337 OA
BRANCH  19  20
HETATM   20  C   UNL     1      41.083 -11.230   3.609  1.00  0.00     0.099 A 
HETATM   21  C   UNL     1      41.061 -12.331   2.725  1.00  0.00     0.100 A 
HETATM   22  C   UNL     1      42.295 -12.980   2.474  1.00  0.00    -0.005 A 
HETATM   23  N   UNL     1      39.930 -12.781   2.124  1.00  0.00    -0.257 NA
HETATM   24  C   UNL     1      42.321 -14.081   1.605  1.00  0.00     0.015 A 
HETATM   25  C   UNL     1      43.485 -12.542   3.077  1.00  0.00     0.014 A 
HETATM   26  C   UNL     1      41.153 -14.522   1.003  1.00  0.00     0.020 A 
HETATM   27  C   UNL     1      39.992 -13.845   1.292  1.00  0.00     0.117 A 
HETATM   28  C   UNL     1      43.480 -11.455   3.941  1.00  0.00     0.004 A 
HETATM   29  C   UNL     1      42.283 -10.804   4.204  1.00  0.00     0.039 A 
ENDBRANCH  19  20
ENDBRANCH  18  19
ENDBRANCH  17  18
ENDBRANCH  16  17
ENDBRANCH   1  16
TORSDOF 7
ENDMDL
