MODEL 1
REMARK VINA RESULT:      -9.0      0.000      0.000
REMARK  4 active torsions:
REMARK  status: ('A' for Active; 'I' for Inactive)
REMARK    1  A    between atoms: N_2  and  C_4 
REMARK    2  A    between atoms: N_2  and  C_16 
REMARK    3  A    between atoms: C_4  and  C_5 
REMARK    4  A    between atoms: C_16  and  C_17 
ROOT
HETATM    1  C   UNL     1      40.870 -14.305   4.250  1.00  0.00     0.270 C 
HETATM    2  N   UNL     1      41.410 -14.194   2.850  1.00  0.00    -0.064 N 
HETATM    3  H   UNL     1      41.332 -13.194   2.597  1.00  0.00     0.280 HD
ENDROOT
BRANCH   2   4
HETATM    4  C   UNL     1      42.905 -14.487   2.783  1.00  0.00     0.312 C 
BRANCH   4   5
HETATM    5  C   UNL     1      43.229 -15.879   3.308  1.00  0.00     0.133 A 
HETATM    6  N   UNL     1      43.129 -16.890   2.504  1.00  0.00    -0.233 NA
HETATM    7  C   UNL     1      43.429 -18.167   3.029  1.00  0.00     0.074 A 
HETATM    8  C   UNL     1      43.819 -18.362   4.358  1.00  0.00     0.061 A 
HETATM    9  C   UNL     1      43.334 -19.283   2.194  1.00  0.00     0.032 A 
HETATM   10  C   UNL     1      43.912 -17.172   5.218  1.00  0.00     0.259 A 
HETATM   11  C   UNL     1      44.111 -19.634   4.859  1.00  0.00     0.019 A 
HETATM   12  O   UNL     1      44.245 -17.221   6.393  1.00  0.00    -0.267 OA
HETATM   13  N   UNL     1      43.603 -15.978   4.617  1.00  0.00    -0.309 N 
HETATM   14  H   UNL     1      43.664 -15.183   5.243  1.00  0.00     0.170 HD
HETATM   15  C   UNL     1      44.011 -20.737   4.014  1.00  0.00     0.001 A 
HETATM   16  C   UNL     1      43.625 -20.561   2.683  1.00  0.00     0.002 A 
ENDBRANCH   4   5
ENDBRANCH   2   4
BRANCH   2  17
HETATM   17  C   UNL     1      40.648 -15.004   1.836  1.00  0.00     0.273 C 
BRANCH  17  18
HETATM   18  C   UNL     1      40.395 -14.306   0.528  1.00  0.00    -0.028 A 
HETATM   19  C   UNL     1      39.714 -14.949  -0.515  1.00  0.00     0.035 A 
HETATM   20  C   UNL     1      39.461 -14.281  -1.721  1.00  0.00     0.070 A 
HETATM   21 CL   UNL     1      38.604 -15.131  -2.954  1.00  0.00    -0.081 Cl
HETATM   22  C   UNL     1      39.883 -12.960  -1.901  1.00  0.00     0.123 A 
HETATM   23  C   UNL     1      40.592 -12.329  -0.875  1.00  0.00     0.104 A 
HETATM   24  O   UNL     1      39.593 -12.328  -3.084  1.00  0.00    -0.344 OA
HETATM   25  O   UNL     1      41.076 -11.049  -0.963  1.00  0.00    -0.346 OA
HETATM   26  C   UNL     1      40.834 -12.989   0.333  1.00  0.00     0.048 A 
HETATM   27  C   UNL     1      41.039 -10.550  -2.307  1.00  0.00     0.202 C 
HETATM   28  C   UNL     1      39.724 -10.907  -2.977  1.00  0.00     0.202 C 
ENDBRANCH  17  18
ENDBRANCH   2  17
TORSDOF 4
ENDMDL
MODEL 2
REMARK VINA RESULT:      -8.9      4.777      6.543
REMARK  4 active torsions:
REMARK  status: ('A' for Active; 'I' for Inactive)
REMARK    1  A    between atoms: N_2  and  C_4 
REMARK    2  A    between atoms: N_2  and  C_16 
REMARK    3  A    between atoms: C_4  and  C_5 
REMARK    4  A    between atoms: C_16  and  C_17 
ROOT
HETATM    1  C   UNL     1      40.559 -14.098   3.620  1.00  0.00     0.270 C 
HETATM    2  N   UNL     1      42.015 -13.727   3.701  1.00  0.00    -0.064 N 
HETATM    3  H   UNL     1      42.335 -14.044   4.632  1.00  0.00     0.280 HD
ENDROOT
BRANCH   2   4
HETATM    4  C   UNL     1      42.868 -14.520   2.717  1.00  0.00     0.312 C 
BRANCH   4   5
HETATM    5  C   UNL     1      43.210 -15.902   3.257  1.00  0.00     0.133 A 
HETATM    6  N   UNL     1      43.111 -16.925   2.468  1.00  0.00    -0.233 NA
HETATM    7  C   UNL     1      43.427 -18.192   3.006  1.00  0.00     0.074 A 
HETATM    8  C   UNL     1      43.833 -18.365   4.334  1.00  0.00     0.061 A 
HETATM    9  C   UNL     1      43.334 -19.319   2.188  1.00  0.00     0.032 A 
HETATM   10  C   UNL     1      43.925 -17.163   5.177  1.00  0.00     0.259 A 
HETATM   11  C   UNL     1      44.142 -19.628   4.849  1.00  0.00     0.019 A 
HETATM   12  O   UNL     1      44.271 -17.193   6.349  1.00  0.00    -0.267 OA
HETATM   13  N   UNL     1      43.598 -15.980   4.563  1.00  0.00    -0.309 N 
HETATM   14  H   UNL     1      43.660 -15.176   5.177  1.00  0.00     0.170 HD
HETATM   15  C   UNL     1      44.043 -20.743   4.020  1.00  0.00     0.001 A 
HETATM   16  C   UNL     1      43.641 -20.588   2.692  1.00  0.00     0.002 A 
ENDBRANCH   4   5
ENDBRANCH   2   4
BRANCH   2  17
HETATM   17  C   UNL     1      42.275 -12.249   3.584  1.00  0.00     0.273 C 
BRANCH  17  18
HETATM   18  C   UNL     1      42.753 -11.588   4.848  1.00  0.00    -0.028 A 
HETATM   19  C   UNL     1      41.879 -10.839   5.649  1.00  0.00     0.035 A 
HETATM   20  C   UNL     1      42.330 -10.248   6.837  1.00  0.00     0.070 A 
HETATM   21 CL   UNL     1      41.194  -9.354   7.779  1.00  0.00    -0.081 Cl
HETATM   22  C   UNL     1      43.660 -10.398   7.243  1.00  0.00     0.123 A 
HETATM   23  C   UNL     1      44.540 -11.115   6.429  1.00  0.00     0.104 A 
HETATM   24  O   UNL     1      44.058  -9.829   8.426  1.00  0.00    -0.344 OA
HETATM   25  O   UNL     1      45.869 -11.294   6.720  1.00  0.00    -0.346 OA
HETATM   26  C   UNL     1      44.091 -11.716   5.250  1.00  0.00     0.048 A 
HETATM   27  C   UNL     1      46.311 -10.426   7.774  1.00  0.00     0.202 C 
HETATM   28  C   UNL     1      45.291 -10.384   8.897  1.00  0.00     0.202 C 
ENDBRANCH  17  18
ENDBRANCH   2  17
TORSDOF 4
ENDMDL
MODEL 3
REMARK VINA RESULT:      -8.8      2.478      8.503
REMARK  4 active torsions:
REMARK  status: ('A' for Active; 'I' for Inactive)
REMARK    1  A    between atoms: N_2  and  C_4 
REMARK    2  A    between atoms: N_2  and  C_16 
REMARK    3  A    between atoms: C_4  and  C_5 
REMARK    4  A    between atoms: C_16  and  C_17 
ROOT
HETATM    1  C   UNL     1      40.685 -15.010   3.222  1.00  0.00     0.270 C 
HETATM    2  N   UNL     1      41.739 -14.836   2.162  1.00  0.00    -0.064 N 
HETATM    3  H   UNL     1      41.460 -15.458   1.384  1.00  0.00     0.280 HD
ENDROOT
BRANCH   2   4
HETATM    4  C   UNL     1      41.722 -13.438   1.556  1.00  0.00     0.312 C 
BRANCH   4   5
HETATM    5  C   UNL     1      40.589 -13.274   0.551  1.00  0.00     0.133 A 
HETATM    6  N   UNL     1      40.454 -14.154  -0.390  1.00  0.00    -0.233 NA
HETATM    7  C   UNL     1      39.398 -13.964  -1.308  1.00  0.00     0.074 A 
HETATM    8  C   UNL     1      38.519 -12.879  -1.231  1.00  0.00     0.061 A 
HETATM    9  C   UNL     1      39.219 -14.892  -2.337  1.00  0.00     0.032 A 
HETATM   10  C   UNL     1      38.727 -11.916  -0.139  1.00  0.00     0.259 A 
HETATM   11  C   UNL     1      37.479 -12.708  -2.150  1.00  0.00     0.019 A 
HETATM   12  O   UNL     1      38.020 -10.933   0.030  1.00  0.00    -0.267 OA
HETATM   13  N   UNL     1      39.778 -12.187   0.702  1.00  0.00    -0.309 N 
HETATM   14  H   UNL     1      39.899 -11.496   1.433  1.00  0.00     0.170 HD
HETATM   15  C   UNL     1      37.314 -13.642  -3.170  1.00  0.00     0.001 A 
HETATM   16  C   UNL     1      38.182 -14.732  -3.263  1.00  0.00     0.002 A 
ENDBRANCH   4   5
ENDBRANCH   2   4
BRANCH   2  17
HETATM   17  C   UNL     1      43.123 -15.223   2.609  1.00  0.00     0.273 C 
BRANCH  17  18
HETATM   18  C   UNL     1      43.274 -16.658   3.034  1.00  0.00    -0.028 A 
HETATM   19  C   UNL     1      43.284 -17.695   2.090  1.00  0.00     0.035 A 
HETATM   20  C   UNL     1      43.451 -19.027   2.494  1.00  0.00     0.070 A 
HETATM   21 CL   UNL     1      43.469 -20.247   1.275  1.00  0.00    -0.081 Cl
HETATM   22  C   UNL     1      43.612 -19.341   3.847  1.00  0.00     0.123 A 
HETATM   23  C   UNL     1      43.568 -18.313   4.792  1.00  0.00     0.104 A 
HETATM   24  O   UNL     1      43.801 -20.652   4.203  1.00  0.00    -0.344 OA
HETATM   25  O   UNL     1      43.684 -18.518   6.144  1.00  0.00    -0.346 OA
HETATM   26  C   UNL     1      43.414 -16.983   4.391  1.00  0.00     0.048 A 
HETATM   27  C   UNL     1      43.553 -19.904   6.491  1.00  0.00     0.202 C 
HETATM   28  C   UNL     1      44.336 -20.776   5.525  1.00  0.00     0.202 C 
ENDBRANCH  17  18
ENDBRANCH   2  17
TORSDOF 4
ENDMDL
MODEL 4
REMARK VINA RESULT:      -8.8      5.090      7.114
REMARK  4 active torsions:
REMARK  status: ('A' for Active; 'I' for Inactive)
REMARK    1  A    between atoms: N_2  and  C_4 
REMARK    2  A    between atoms: N_2  and  C_16 
REMARK    3  A    between atoms: C_4  and  C_5 
REMARK    4  A    between atoms: C_16  and  C_17 
ROOT
HETATM    1  C   UNL     1      41.536 -15.697   6.725  1.00  0.00     0.270 C 
HETATM    2  N   UNL     1      42.741 -14.797   6.684  1.00  0.00    -0.064 N 
HETATM    3  H   UNL     1      42.856 -14.437   7.647  1.00  0.00     0.280 HD
ENDROOT
BRANCH   2   4
HETATM    4  C   UNL     1      44.028 -15.567   6.412  1.00  0.00     0.312 C 
BRANCH   4   5
HETATM    5  C   UNL     1      43.853 -16.570   5.279  1.00  0.00     0.133 A 
HETATM    6  N   UNL     1      44.046 -17.828   5.520  1.00  0.00    -0.233 NA
HETATM    7  C   UNL     1      43.883 -18.727   4.443  1.00  0.00     0.074 A 
HETATM    8  C   UNL     1      43.531 -18.305   3.157  1.00  0.00     0.061 A 
HETATM    9  C   UNL     1      44.081 -20.092   4.663  1.00  0.00     0.032 A 
HETATM   10  C   UNL     1      43.328 -16.863   2.950  1.00  0.00     0.259 A 
HETATM   11  C   UNL     1      43.375 -19.210   2.103  1.00  0.00     0.019 A 
HETATM   12  O   UNL     1      43.015 -16.380   1.871  1.00  0.00    -0.267 OA
HETATM   13  N   UNL     1      43.507 -16.071   4.056  1.00  0.00    -0.309 N 
HETATM   14  H   UNL     1      43.373 -15.084   3.872  1.00  0.00     0.170 HD
HETATM   15  C   UNL     1      43.576 -20.568   2.339  1.00  0.00     0.001 A 
HETATM   16  C   UNL     1      43.928 -21.008   3.617  1.00  0.00     0.002 A 
ENDBRANCH   4   5
ENDBRANCH   2   4
BRANCH   2  17
HETATM   17  C   UNL     1      42.595 -13.625   5.751  1.00  0.00     0.273 C 
BRANCH  17  18
HETATM   18  C   UNL     1      42.973 -12.294   6.340  1.00  0.00    -0.028 A 
HETATM   19  C   UNL     1      42.033 -11.260   6.456  1.00  0.00     0.035 A 
HETATM   20  C   UNL     1      42.390 -10.032   7.029  1.00  0.00     0.070 A 
HETATM   21 CL   UNL     1      41.175  -8.813   7.153  1.00  0.00    -0.081 Cl
HETATM   22  C   UNL     1      43.690  -9.820   7.498  1.00  0.00     0.123 A 
HETATM   23  C   UNL     1      44.638 -10.837   7.352  1.00  0.00     0.104 A 
HETATM   24  O   UNL     1      43.995  -8.616   8.079  1.00  0.00    -0.344 OA
HETATM   25  O   UNL     1      45.945 -10.719   7.748  1.00  0.00    -0.346 OA
HETATM   26  C   UNL     1      44.281 -12.066   6.792  1.00  0.00     0.048 A 
HETATM   27  C   UNL     1      46.298  -9.360   8.044  1.00  0.00     0.202 C 
HETATM   28  C   UNL     1      45.201  -8.683   8.847  1.00  0.00     0.202 C 
ENDBRANCH  17  18
ENDBRANCH   2  17
TORSDOF 4
ENDMDL
MODEL 5
REMARK VINA RESULT:      -8.7      6.044      9.274
REMARK  4 active torsions:
REMARK  status: ('A' for Active; 'I' for Inactive)
REMARK    1  A    between atoms: N_2  and  C_4 
REMARK    2  A    between atoms: N_2  and  C_16 
REMARK    3  A    between atoms: C_4  and  C_5 
REMARK    4  A    between atoms: C_16  and  C_17 
ROOT
HETATM    1  C   UNL     1      42.856 -11.171   6.121  1.00  0.00     0.270 C 
HETATM    2  N   UNL     1      43.937 -12.213   6.218  1.00  0.00    -0.064 N 
HETATM    3  H   UNL     1      44.284 -12.349   5.253  1.00  0.00     0.280 HD
ENDROOT
BRANCH   2   4
HETATM    4  C   UNL     1      45.153 -11.712   6.990  1.00  0.00     0.312 C 
BRANCH   4   5
HETATM    5  C   UNL     1      44.754 -10.770   8.118  1.00  0.00     0.133 A 
HETATM    6  N   UNL     1      44.290 -11.270   9.218  1.00  0.00    -0.233 NA
HETATM    7  C   UNL     1      43.921 -10.365  10.238  1.00  0.00     0.074 A 
HETATM    8  C   UNL     1      44.041  -8.978  10.092  1.00  0.00     0.061 A 
HETATM    9  C   UNL     1      43.418 -10.865  11.440  1.00  0.00     0.032 A 
HETATM   10  C   UNL     1      44.574  -8.475   8.817  1.00  0.00     0.259 A 
HETATM   11  C   UNL     1      43.670  -8.098  11.113  1.00  0.00     0.019 A 
HETATM   12  O   UNL     1      44.725  -7.285   8.579  1.00  0.00    -0.267 OA
HETATM   13  N   UNL     1      44.904  -9.432   7.891  1.00  0.00    -0.309 N 
HETATM   14  H   UNL     1      45.255  -9.048   7.021  1.00  0.00     0.170 HD
HETATM   15  C   UNL     1      43.169  -8.613  12.306  1.00  0.00     0.001 A 
HETATM   16  C   UNL     1      43.044  -9.994  12.470  1.00  0.00     0.002 A 
ENDBRANCH   4   5
ENDBRANCH   2   4
BRANCH   2  17
HETATM   17  C   UNL     1      43.461 -13.539   6.746  1.00  0.00     0.273 C 
BRANCH  17  18
HETATM   18  C   UNL     1      43.428 -14.650   5.733  1.00  0.00    -0.028 A 
HETATM   19  C   UNL     1      42.982 -14.422   4.423  1.00  0.00     0.035 A 
HETATM   20  C   UNL     1      42.978 -15.459   3.480  1.00  0.00     0.070 A 
HETATM   21 CL   UNL     1      42.430 -15.100   1.884  1.00  0.00    -0.081 Cl
HETATM   22  C   UNL     1      43.422 -16.738   3.831  1.00  0.00     0.123 A 
HETATM   23  C   UNL     1      43.835 -16.975   5.145  1.00  0.00     0.104 A 
HETATM   24  O   UNL     1      43.431 -17.720   2.873  1.00  0.00    -0.344 OA
HETATM   25  O   UNL     1      44.258 -18.199   5.598  1.00  0.00    -0.346 OA
HETATM   26  C   UNL     1      43.851 -15.940   6.083  1.00  0.00     0.048 A 
HETATM   27  C   UNL     1      43.948 -19.252   4.675  1.00  0.00     0.202 C 
HETATM   28  C   UNL     1      44.258 -18.826   3.251  1.00  0.00     0.202 C 
ENDBRANCH  17  18
ENDBRANCH   2  17
TORSDOF 4
ENDMDL
MODEL 6
REMARK VINA RESULT:      -8.7      4.954      6.773
REMARK  4 active torsions:
REMARK  status: ('A' for Active; 'I' for Inactive)
REMARK    1  A    between atoms: N_2  and  C_4 
REMARK    2  A    between atoms: N_2  and  C_16 
REMARK    3  A    between atoms: C_4  and  C_5 
REMARK    4  A    between atoms: C_16  and  C_17 
ROOT
HETATM    1  C   UNL     1      40.815 -13.684   4.179  1.00  0.00     0.270 C 
HETATM    2  N   UNL     1      42.307 -13.576   4.015  1.00  0.00    -0.064 N 
HETATM    3  H   UNL     1      42.715 -13.983   4.874  1.00  0.00     0.280 HD
ENDROOT
BRANCH   2   4
HETATM    4  C   UNL     1      42.829 -14.464   2.891  1.00  0.00     0.312 C 
BRANCH   4   5
HETATM    5  C   UNL     1      43.178 -15.859   3.392  1.00  0.00     0.133 A 
HETATM    6  N   UNL     1      43.086 -16.860   2.575  1.00  0.00    -0.233 NA
HETATM    7  C   UNL     1      43.409 -18.139   3.078  1.00  0.00     0.074 A 
HETATM    8  C   UNL     1      43.813 -18.348   4.402  1.00  0.00     0.061 A 
HETATM    9  C   UNL     1      43.324 -19.244   2.228  1.00  0.00     0.032 A 
HETATM   10  C   UNL     1      43.896 -17.169   5.278  1.00  0.00     0.259 A 
HETATM   11  C   UNL     1      44.128 -19.623   4.882  1.00  0.00     0.019 A 
HETATM   12  O   UNL     1      44.240 -17.230   6.450  1.00  0.00    -0.267 OA
HETATM   13  N   UNL     1      43.564 -15.971   4.697  1.00  0.00    -0.309 N 
HETATM   14  H   UNL     1      43.619 -15.185   5.333  1.00  0.00     0.170 HD
HETATM   15  C   UNL     1      44.037 -20.714   4.021  1.00  0.00     0.001 A 
HETATM   16  C   UNL     1      43.637 -20.525   2.697  1.00  0.00     0.002 A 
ENDBRANCH   4   5
ENDBRANCH   2   4
BRANCH   2  17
HETATM   17  C   UNL     1      42.805 -12.163   3.873  1.00  0.00     0.273 C 
BRANCH  17  18
HETATM   18  C   UNL     1      43.143 -11.477   5.168  1.00  0.00    -0.028 A 
HETATM   19  C   UNL     1      44.451 -11.490   5.674  1.00  0.00     0.035 A 
HETATM   20  C   UNL     1      44.761 -10.827   6.869  1.00  0.00     0.070 A 
HETATM   21 CL   UNL     1      46.395 -10.873   7.421  1.00  0.00    -0.081 Cl
HETATM   22  C   UNL     1      43.769 -10.139   7.575  1.00  0.00     0.123 A 
HETATM   23  C   UNL     1      42.458 -10.153   7.090  1.00  0.00     0.104 A 
HETATM   24  O   UNL     1      44.115  -9.477   8.726  1.00  0.00    -0.344 OA
HETATM   25  O   UNL     1      41.408  -9.538   7.723  1.00  0.00    -0.346 OA
HETATM   26  C   UNL     1      42.150 -10.803   5.893  1.00  0.00     0.048 A 
HETATM   27  C   UNL     1      41.742  -9.145   9.062  1.00  0.00     0.202 C 
HETATM   28  C   UNL     1      43.123  -8.518   9.110  1.00  0.00     0.202 C 
ENDBRANCH  17  18
ENDBRANCH   2  17
TORSDOF 4
ENDMDL
MODEL 7
REMARK VINA RESULT:      -8.5      2.027      2.769
REMARK  4 active torsions:
REMARK  status: ('A' for Active; 'I' for Inactive)
REMARK    1  A    between atoms: N_2  and  C_4 
REMARK    2  A    between atoms: N_2  and  C_16 
REMARK    3  A    between atoms: C_4  and  C_5 
REMARK    4  A    between atoms: C_16  and  C_17 
ROOT
HETATM    1  C   UNL     1      43.865 -11.580   3.745  1.00  0.00     0.270 C 
HETATM    2  N   UNL     1      42.687 -12.517   3.738  1.00  0.00    -0.064 N 
HETATM    3  H   UNL     1      42.932 -13.272   3.075  1.00  0.00     0.280 HD
ENDROOT
BRANCH   2   4
HETATM    4  C   UNL     1      42.509 -13.229   5.075  1.00  0.00     0.312 C 
BRANCH   4   5
HETATM    5  C   UNL     1      42.942 -14.687   4.997  1.00  0.00     0.133 A 
HETATM    6  N   UNL     1      42.863 -15.304   3.861  1.00  0.00    -0.233 NA
HETATM    7  C   UNL     1      43.265 -16.658   3.829  1.00  0.00     0.074 A 
HETATM    8  C   UNL     1      43.732 -17.331   4.964  1.00  0.00     0.061 A 
HETATM    9  C   UNL     1      43.196 -17.358   2.623  1.00  0.00     0.032 A 
HETATM   10  C   UNL     1      43.796 -16.573   6.222  1.00  0.00     0.259 A 
HETATM   11  C   UNL     1      44.124 -18.672   4.913  1.00  0.00     0.019 A 
HETATM   12  O   UNL     1      44.190 -17.056   7.274  1.00  0.00    -0.267 OA
HETATM   13  N   UNL     1      43.386 -15.265   6.151  1.00  0.00    -0.309 N 
HETATM   14  H   UNL     1      43.431 -14.779   7.039  1.00  0.00     0.170 HD
HETATM   15  C   UNL     1      44.049 -19.357   3.702  1.00  0.00     0.001 A 
HETATM   16  C   UNL     1      43.586 -18.701   2.559  1.00  0.00     0.002 A 
ENDBRANCH   4   5
ENDBRANCH   2   4
BRANCH   2  17
HETATM   17  C   UNL     1      41.403 -11.879   3.282  1.00  0.00     0.273 C 
BRANCH  17  18
HETATM   18  C   UNL     1      41.096 -12.048   1.820  1.00  0.00    -0.028 A 
HETATM   19  C   UNL     1      41.365 -11.024   0.900  1.00  0.00     0.035 A 
HETATM   20  C   UNL     1      41.097 -11.201  -0.464  1.00  0.00     0.070 A 
HETATM   21 CL   UNL     1      41.470  -9.903  -1.538  1.00  0.00    -0.081 Cl
HETATM   22  C   UNL     1      40.559 -12.405  -0.930  1.00  0.00     0.123 A 
HETATM   23  C   UNL     1      40.258 -13.413  -0.011  1.00  0.00     0.104 A 
HETATM   24  O   UNL     1      40.338 -12.552  -2.276  1.00  0.00    -0.344 OA
HETATM   25  O   UNL     1      39.700 -14.617  -0.360  1.00  0.00    -0.346 OA
HETATM   26  C   UNL     1      40.535 -13.244   1.348  1.00  0.00     0.048 A 
HETATM   27  C   UNL     1      39.191 -14.605  -1.702  1.00  0.00     0.202 C 
HETATM   28  C   UNL     1      40.171 -13.926  -2.642  1.00  0.00     0.202 C 
ENDBRANCH  17  18
ENDBRANCH   2  17
TORSDOF 4
ENDMDL
MODEL 8
REMARK VINA RESULT:      -8.4      3.014      8.588
REMARK  4 active torsions:
REMARK  status: ('A' for Active; 'I' for Inactive)
REMARK    1  A    between atoms: N_2  and  C_4 
REMARK    2  A    between atoms: N_2  and  C_16 
REMARK    3  A    between atoms: C_4  and  C_5 
REMARK    4  A    between atoms: C_16  and  C_17 
ROOT
HETATM    1  C   UNL     1      40.658 -14.892   3.560  1.00  0.00     0.270 C 
HETATM    2  N   UNL     1      41.368 -14.566   2.275  1.00  0.00    -0.064 N 
HETATM    3  H   UNL     1      40.924 -15.155   1.550  1.00  0.00     0.280 HD
ENDROOT
BRANCH   2   4
HETATM    4  C   UNL     1      41.102 -13.136   1.816  1.00  0.00     0.312 C 
BRANCH   4   5
HETATM    5  C   UNL     1      40.108 -13.091   0.663  1.00  0.00     0.133 A 
HETATM    6  N   UNL     1      40.146 -14.024  -0.234  1.00  0.00    -0.233 NA
HETATM    7  C   UNL     1      39.216 -13.944  -1.293  1.00  0.00     0.074 A 
HETATM    8  C   UNL     1      38.279 -12.910  -1.395  1.00  0.00     0.061 A 
HETATM    9  C   UNL     1      39.224 -14.932  -2.280  1.00  0.00     0.032 A 
HETATM   10  C   UNL     1      38.289 -11.881  -0.344  1.00  0.00     0.259 A 
HETATM   11  C   UNL     1      37.365 -12.847  -2.452  1.00  0.00     0.019 A 
HETATM   12  O   UNL     1      37.516 -10.934  -0.328  1.00  0.00    -0.267 OA
HETATM   13  N   UNL     1      39.229 -12.047   0.642  1.00  0.00    -0.309 N 
HETATM   14  H   UNL     1      39.215 -11.313   1.341  1.00  0.00     0.170 HD
HETATM   15  C   UNL     1      37.387 -13.840  -3.428  1.00  0.00     0.001 A 
HETATM   16  C   UNL     1      38.314 -14.881  -3.342  1.00  0.00     0.002 A 
ENDBRANCH   4   5
ENDBRANCH   2   4
BRANCH   2  17
HETATM   17  C   UNL     1      42.842 -14.868   2.298  1.00  0.00     0.273 C 
BRANCH  17  18
HETATM   18  C   UNL     1      43.223 -16.107   3.062  1.00  0.00    -0.028 A 
HETATM   19  C   UNL     1      43.624 -16.036   4.403  1.00  0.00     0.035 A 
HETATM   20  C   UNL     1      43.953 -17.199   5.112  1.00  0.00     0.070 A 
HETATM   21 CL   UNL     1      44.422 -17.035   6.765  1.00  0.00    -0.081 Cl
HETATM   22  C   UNL     1      43.884 -18.451   4.492  1.00  0.00     0.123 A 
HETATM   23  C   UNL     1      43.517 -18.520   3.145  1.00  0.00     0.104 A 
HETATM   24  O   UNL     1      44.185 -19.570   5.226  1.00  0.00    -0.344 OA
HETATM   25  O   UNL     1      43.450 -19.692   2.436  1.00  0.00    -0.346 OA
HETATM   26  C   UNL     1      43.177 -17.363   2.440  1.00  0.00     0.048 A 
HETATM   27  C   UNL     1      44.076 -20.779   3.132  1.00  0.00     0.202 C 
HETATM   28  C   UNL     1      43.699 -20.764   4.603  1.00  0.00     0.202 C 
ENDBRANCH  17  18
ENDBRANCH   2  17
TORSDOF 4
ENDMDL
MODEL 9
REMARK VINA RESULT:      -8.3      2.833      8.556
REMARK  4 active torsions:
REMARK  status: ('A' for Active; 'I' for Inactive)
REMARK    1  A    between atoms: N_2  and  C_4 
REMARK    2  A    between atoms: N_2  and  C_16 
REMARK    3  A    between atoms: C_4  and  C_5 
REMARK    4  A    between atoms: C_16  and  C_17 
ROOT
HETATM    1  C   UNL     1      39.259 -13.155   2.888  1.00  0.00     0.270 C 
HETATM    2  N   UNL     1      39.725 -14.126   1.837  1.00  0.00    -0.064 N 
HETATM    3  H   UNL     1      39.095 -13.989   1.028  1.00  0.00     0.280 HD
ENDROOT
BRANCH   2   4
HETATM    4  C   UNL     1      41.109 -13.777   1.303  1.00  0.00     0.312 C 
BRANCH   4   5
HETATM    5  C   UNL     1      41.027 -12.914   0.050  1.00  0.00     0.133 A 
HETATM    6  N   UNL     1      41.188 -11.633   0.160  1.00  0.00    -0.233 NA
HETATM    7  C   UNL     1      41.095 -10.865  -1.022  1.00  0.00     0.074 A 
HETATM    8  C   UNL     1      40.841 -11.436  -2.273  1.00  0.00     0.061 A 
HETATM    9  C   UNL     1      41.264  -9.481  -0.946  1.00  0.00     0.032 A 
HETATM   10  C   UNL     1      40.668 -12.896  -2.328  1.00  0.00     0.259 A 
HETATM   11  C   UNL     1      40.753 -10.659  -3.432  1.00  0.00     0.019 A 
HETATM   12  O   UNL     1      40.445 -13.504  -3.366  1.00  0.00    -0.267 OA
HETATM   13  N   UNL     1      40.776 -13.554  -1.129  1.00  0.00    -0.309 N 
HETATM   14  H   UNL     1      40.638 -14.555  -1.204  1.00  0.00     0.170 HD
HETATM   15  C   UNL     1      40.922  -9.280  -3.339  1.00  0.00     0.001 A 
HETATM   16  C   UNL     1      41.178  -8.692  -2.098  1.00  0.00     0.002 A 
ENDBRANCH   4   5
ENDBRANCH   2   4
BRANCH   2  17
HETATM   17  C   UNL     1      39.650 -15.568   2.262  1.00  0.00     0.273 C 
BRANCH  17  18
HETATM   18  C   UNL     1      40.798 -16.039   3.111  1.00  0.00    -0.028 A 
HETATM   19  C   UNL     1      41.771 -16.907   2.595  1.00  0.00     0.035 A 
HETATM   20  C   UNL     1      42.851 -17.320   3.388  1.00  0.00     0.070 A 
HETATM   21 CL   UNL     1      44.018 -18.375   2.680  1.00  0.00    -0.081 Cl
HETATM   22  C   UNL     1      42.975 -16.871   4.707  1.00  0.00     0.123 A 
HETATM   23  C   UNL     1      41.988 -16.033   5.233  1.00  0.00     0.104 A 
HETATM   24  O   UNL     1      44.060 -17.274   5.443  1.00  0.00    -0.344 OA
HETATM   25  O   UNL     1      41.999 -15.563   6.522  1.00  0.00    -0.346 OA
HETATM   26  C   UNL     1      40.917 -15.610   4.441  1.00  0.00     0.048 A 
HETATM   27  C   UNL     1      42.953 -16.256   7.339  1.00  0.00     0.202 C 
HETATM   28  C   UNL     1      44.262 -16.446   6.594  1.00  0.00     0.202 C 
ENDBRANCH  17  18
ENDBRANCH   2  17
TORSDOF 4
ENDMDL
MODEL 10
REMARK VINA RESULT:      -8.3      3.786      7.351
REMARK  4 active torsions:
REMARK  status: ('A' for Active; 'I' for Inactive)
REMARK    1  A    between atoms: N_2  and  C_4 
REMARK    2  A    between atoms: N_2  and  C_16 
REMARK    3  A    between atoms: C_4  and  C_5 
REMARK    4  A    between atoms: C_16  and  C_17 
ROOT
HETATM    1  C   UNL     1      40.194 -14.508  -0.242  1.00  0.00     0.270 C 
HETATM    2  N   UNL     1      40.316 -14.541   1.257  1.00  0.00    -0.064 N 
HETATM    3  H   UNL     1      41.290 -14.263   1.466  1.00  0.00     0.280 HD
ENDROOT
BRANCH   2   4
HETATM    4  C   UNL     1      39.464 -13.470   1.929  1.00  0.00     0.312 C 
BRANCH   4   5
HETATM    5  C   UNL     1      40.152 -12.894   3.160  1.00  0.00     0.133 A 
HETATM    6  N   UNL     1      41.408 -12.588   3.090  1.00  0.00    -0.233 NA
HETATM    7  C   UNL     1      42.014 -12.066   4.254  1.00  0.00     0.074 A 
HETATM    8  C   UNL     1      41.310 -11.878   5.449  1.00  0.00     0.061 A 
HETATM    9  C   UNL     1      43.367 -11.722   4.220  1.00  0.00     0.032 A 
HETATM   10  C   UNL     1      39.886 -12.246   5.461  1.00  0.00     0.259 A 
HETATM   11  C   UNL     1      41.927 -11.360   6.592  1.00  0.00     0.019 A 
HETATM   12  O   UNL     1      39.172 -12.122   6.446  1.00  0.00    -0.267 OA
HETATM   13  N   UNL     1      39.390 -12.743   4.283  1.00  0.00    -0.309 N 
HETATM   14  H   UNL     1      38.411 -12.999   4.332  1.00  0.00     0.170 HD
HETATM   15  C   UNL     1      43.278 -11.023   6.541  1.00  0.00     0.001 A 
HETATM   16  C   UNL     1      43.996 -11.203   5.357  1.00  0.00     0.002 A 
ENDBRANCH   4   5
ENDBRANCH   2   4
BRANCH   2  17
HETATM   17  C   UNL     1      40.067 -15.897   1.860  1.00  0.00     0.273 C 
BRANCH  17  18
HETATM   18  C   UNL     1      41.124 -16.367   2.821  1.00  0.00    -0.028 A 
HETATM   19  C   UNL     1      42.123 -17.265   2.417  1.00  0.00     0.035 A 
HETATM   20  C   UNL     1      43.117 -17.677   3.314  1.00  0.00     0.070 A 
HETATM   21 CL   UNL     1      44.322 -18.771   2.741  1.00  0.00    -0.081 Cl
HETATM   22  C   UNL     1      43.130 -17.197   4.628  1.00  0.00     0.123 A 
HETATM   23  C   UNL     1      42.116 -16.329   5.042  1.00  0.00     0.104 A 
HETATM   24  O   UNL     1      44.136 -17.601   5.469  1.00  0.00    -0.344 OA
HETATM   25  O   UNL     1      42.020 -15.827   6.315  1.00  0.00    -0.346 OA
HETATM   26  C   UNL     1      41.131 -15.907   4.146  1.00  0.00     0.048 A 
HETATM   27  C   UNL     1      42.882 -16.516   7.232  1.00  0.00     0.202 C 
HETATM   28  C   UNL     1      44.249 -16.748   6.614  1.00  0.00     0.202 C 
ENDBRANCH  17  18
ENDBRANCH   2  17
TORSDOF 4
ENDMDL
