MODEL 1
REMARK VINA RESULT:      -8.9      0.000      0.000
REMARK  8 active torsions:
REMARK  status: ('A' for Active; 'I' for Inactive)
REMARK    1  A    between atoms: C_4  and  C_5 
REMARK    2  A    between atoms: C_5  and  N_6 
REMARK       I    between atoms: N_6  and  C_7 
REMARK    3  A    between atoms: C_7  and  C_8 
REMARK    4  A    between atoms: C_11  and  C_12 
REMARK    5  A    between atoms: C_12  and  O_13 
REMARK    6  A    between atoms: O_13  and  C_14 
REMARK    7  A    between atoms: C_25  and  C_26 
REMARK    8  A    between atoms: C_26  and  O_27 
ROOT
HETATM    1  N   UNL     1      43.734 -11.463   8.185  1.00  0.00    -0.351 N 
HETATM    2  C   UNL     1      44.465 -11.849   7.089  1.00  0.00     0.251 C 
HETATM    3  O   UNL     1      45.530 -11.321   6.781  1.00  0.00    -0.268 OA
HETATM    4  H   UNL     1      42.790 -11.792   8.350  1.00  0.00     0.163 HD
ENDROOT
BRANCH   2   5
HETATM    5  C   UNL     1      43.882 -12.924   6.240  1.00  0.00     0.032 A 
HETATM    6  C   UNL     1      43.884 -14.232   6.737  1.00  0.00     0.017 A 
HETATM    7  C   UNL     1      43.373 -15.281   5.968  1.00  0.00     0.010 A 
HETATM    8  C   UNL     1      42.853 -15.035   4.690  1.00  0.00    -0.034 A 
HETATM    9  C   UNL     1      42.812 -13.717   4.214  1.00  0.00     0.010 A 
HETATM   10  C   UNL     1      43.325 -12.666   4.982  1.00  0.00     0.017 A 
BRANCH   8  11
HETATM   11  C   UNL     1      42.316 -16.172   3.854  1.00  0.00     0.214 C 
BRANCH  11  12
HETATM   12  O   UNL     1      43.394 -16.747   3.123  1.00  0.00    -0.347 OA
BRANCH  12  13
HETATM   13  C   UNL     1      43.521 -18.109   3.177  1.00  0.00     0.069 A 
HETATM   14  C   UNL     1      43.222 -19.005   2.149  1.00  0.00     0.037 A 
HETATM   15  C   UNL     1      43.400 -20.379   2.340  1.00  0.00     0.003 A 
HETATM   16  C   UNL     1      43.878 -20.863   3.557  1.00  0.00     0.000 A 
HETATM   17  C   UNL     1      44.177 -19.974   4.586  1.00  0.00     0.003 A 
HETATM   18  C   UNL     1      43.998 -18.603   4.395  1.00  0.00     0.037 A 
ENDBRANCH  12  13
ENDBRANCH  11  12
ENDBRANCH   8  11
ENDBRANCH   2   5
BRANCH   1  19
HETATM   19  C   UNL     1      44.152 -10.352   9.011  1.00  0.00     0.182 C 
BRANCH  19  20
HETATM   20  C   UNL     1      43.192 -10.099  10.154  1.00  0.00     0.052 A 
HETATM   21  N   UNL     1      42.002  -9.499   9.874  1.00  0.00    -0.256 NA
HETATM   22  C   UNL     1      41.139  -9.259  10.896  1.00  0.00     0.040 A 
HETATM   23  C   UNL     1      39.850  -8.599  10.499  1.00  0.00     0.071 C 
HETATM   24  C   UNL     1      41.421  -9.608  12.222  1.00  0.00    -0.006 A 
HETATM   25  C   UNL     1      42.659 -10.217  12.479  1.00  0.00     0.014 A 
HETATM   26  C   UNL     1      43.551 -10.467  11.442  1.00  0.00     0.029 A 
BRANCH  24  27
HETATM   27  C   UNL     1      40.468  -9.336  13.365  1.00  0.00     0.149 C 
HETATM   28  C   UNL     1      41.188  -8.821  14.606  1.00  0.00     0.044 C 
BRANCH  27  29
HETATM   29  O   UNL     1      39.764 -10.529  13.714  1.00  0.00    -0.391 OA
HETATM   30  H   UNL     1      40.280 -10.978  14.407  1.00  0.00     0.210 HD
ENDBRANCH  27  29
ENDBRANCH  24  27
ENDBRANCH  19  20
ENDBRANCH   1  19
TORSDOF 8
ENDMDL
MODEL 2
REMARK VINA RESULT:      -8.6      0.293      1.322
REMARK  8 active torsions:
REMARK  status: ('A' for Active; 'I' for Inactive)
REMARK    1  A    between atoms: C_4  and  C_5 
REMARK    2  A    between atoms: C_5  and  N_6 
REMARK       I    between atoms: N_6  and  C_7 
REMARK    3  A    between atoms: C_7  and  C_8 
REMARK    4  A    between atoms: C_11  and  C_12 
REMARK    5  A    between atoms: C_12  and  O_13 
REMARK    6  A    between atoms: O_13  and  C_14 
REMARK    7  A    between atoms: C_25  and  C_26 
REMARK    8  A    between atoms: C_26  and  O_27 
ROOT
HETATM    1  N   UNL     1      43.705 -11.200   8.032  1.00  0.00    -0.351 N 
HETATM    2  C   UNL     1      44.468 -11.661   6.988  1.00  0.00     0.251 C 
HETATM    3  O   UNL     1      45.527 -11.135   6.656  1.00  0.00    -0.268 OA
HETATM    4  H   UNL     1      42.765 -11.536   8.206  1.00  0.00     0.163 HD
ENDROOT
BRANCH   2   5
HETATM    5  C   UNL     1      43.928 -12.820   6.225  1.00  0.00     0.032 A 
HETATM    6  C   UNL     1      43.459 -12.595   4.926  1.00  0.00     0.017 A 
HETATM    7  C   UNL     1      42.918 -13.644   4.179  1.00  0.00     0.010 A 
HETATM    8  C   UNL     1      42.839 -14.934   4.722  1.00  0.00    -0.034 A 
HETATM    9  C   UNL     1      43.350 -15.164   6.006  1.00  0.00     0.010 A 
HETATM   10  C   UNL     1      43.890 -14.114   6.757  1.00  0.00     0.017 A 
BRANCH   8  11
HETATM   11  C   UNL     1      42.238 -16.063   3.918  1.00  0.00     0.214 C 
BRANCH  11  12
HETATM   12  O   UNL     1      43.268 -16.666   3.142  1.00  0.00    -0.347 OA
BRANCH  12  13
HETATM   13  C   UNL     1      43.503 -17.998   3.354  1.00  0.00     0.069 A 
HETATM   14  C   UNL     1      43.994 -18.569   4.529  1.00  0.00     0.037 A 
HETATM   15  C   UNL     1      44.188 -19.952   4.610  1.00  0.00     0.003 A 
HETATM   16  C   UNL     1      43.891 -20.769   3.520  1.00  0.00     0.000 A 
HETATM   17  C   UNL     1      43.401 -20.203   2.345  1.00  0.00     0.003 A 
HETATM   18  C   UNL     1      43.209 -18.823   2.265  1.00  0.00     0.037 A 
ENDBRANCH  12  13
ENDBRANCH  11  12
ENDBRANCH   8  11
ENDBRANCH   2   5
BRANCH   1  19
HETATM   19  C   UNL     1      44.079 -10.011   8.765  1.00  0.00     0.182 C 
BRANCH  19  20
HETATM   20  C   UNL     1      43.207  -9.795   9.984  1.00  0.00     0.052 A 
HETATM   21  N   UNL     1      41.883  -9.544   9.790  1.00  0.00    -0.256 NA
HETATM   22  C   UNL     1      41.094  -9.339  10.878  1.00  0.00     0.040 A 
HETATM   23  C   UNL     1      39.648  -9.072  10.575  1.00  0.00     0.071 C 
HETATM   24  C   UNL     1      41.586  -9.381  12.188  1.00  0.00    -0.006 A 
HETATM   25  C   UNL     1      42.957  -9.634  12.353  1.00  0.00     0.014 A 
HETATM   26  C   UNL     1      43.774  -9.844  11.248  1.00  0.00     0.029 A 
BRANCH  24  27
HETATM   27  C   UNL     1      40.716  -9.145  13.402  1.00  0.00     0.149 C 
HETATM   28  C   UNL     1      41.531  -8.751  14.628  1.00  0.00     0.044 C 
BRANCH  27  29
HETATM   29  O   UNL     1      39.974 -10.325  13.713  1.00  0.00    -0.391 OA
HETATM   30  H   UNL     1      39.058 -10.051  13.899  1.00  0.00     0.210 HD
ENDBRANCH  27  29
ENDBRANCH  24  27
ENDBRANCH  19  20
ENDBRANCH   1  19
TORSDOF 8
ENDMDL
MODEL 3
REMARK VINA RESULT:      -8.4      2.626     10.304
REMARK  8 active torsions:
REMARK  status: ('A' for Active; 'I' for Inactive)
REMARK    1  A    between atoms: C_4  and  C_5 
REMARK    2  A    between atoms: C_5  and  N_6 
REMARK       I    between atoms: N_6  and  C_7 
REMARK    3  A    between atoms: C_7  and  C_8 
REMARK    4  A    between atoms: C_11  and  C_12 
REMARK    5  A    between atoms: C_12  and  O_13 
REMARK    6  A    between atoms: O_13  and  C_14 
REMARK    7  A    between atoms: C_25  and  C_26 
REMARK    8  A    between atoms: C_26  and  O_27 
ROOT
HETATM    1  N   UNL     1      42.679 -13.023   4.408  1.00  0.00    -0.351 N 
HETATM    2  C   UNL     1      43.606 -12.015   4.312  1.00  0.00     0.251 C 
HETATM    3  O   UNL     1      44.045 -11.616   3.238  1.00  0.00    -0.268 OA
HETATM    4  H   UNL     1      42.435 -13.452   5.293  1.00  0.00     0.163 HD
ENDROOT
BRANCH   2   5
HETATM    5  C   UNL     1      44.107 -11.442   5.592  1.00  0.00     0.032 A 
HETATM    6  C   UNL     1      43.177 -10.875   6.471  1.00  0.00     0.017 A 
HETATM    7  C   UNL     1      43.600 -10.300   7.672  1.00  0.00     0.010 A 
HETATM    8  C   UNL     1      44.960 -10.285   8.011  1.00  0.00    -0.034 A 
HETATM    9  C   UNL     1      45.882 -10.893   7.149  1.00  0.00     0.010 A 
HETATM   10  C   UNL     1      45.462 -11.467   5.945  1.00  0.00     0.017 A 
BRANCH   8  11
HETATM   11  C   UNL     1      45.415  -9.648   9.302  1.00  0.00     0.214 C 
BRANCH  11  12
HETATM   12  O   UNL     1      45.090 -10.520  10.379  1.00  0.00    -0.347 OA
BRANCH  12  13
HETATM   13  C   UNL     1      44.155 -10.076  11.274  1.00  0.00     0.069 A 
HETATM   14  C   UNL     1      43.318 -10.874  12.056  1.00  0.00     0.037 A 
HETATM   15  C   UNL     1      42.404 -10.285  12.935  1.00  0.00     0.003 A 
HETATM   16  C   UNL     1      42.322  -8.897  13.037  1.00  0.00     0.000 A 
HETATM   17  C   UNL     1      43.154  -8.096  12.259  1.00  0.00     0.003 A 
HETATM   18  C   UNL     1      44.066  -8.685  11.382  1.00  0.00     0.037 A 
ENDBRANCH  12  13
ENDBRANCH  11  12
ENDBRANCH   8  11
ENDBRANCH   2   5
BRANCH   1  19
HETATM   19  C   UNL     1      42.213 -13.726   3.234  1.00  0.00     0.182 C 
BRANCH  19  20
HETATM   20  C   UNL     1      42.683 -15.165   3.207  1.00  0.00     0.052 A 
HETATM   21  N   UNL     1      43.283 -15.666   4.322  1.00  0.00    -0.256 NA
HETATM   22  C   UNL     1      43.717 -16.954   4.303  1.00  0.00     0.040 A 
HETATM   23  C   UNL     1      44.364 -17.426   5.573  1.00  0.00     0.071 C 
HETATM   24  C   UNL     1      43.567 -17.787   3.188  1.00  0.00    -0.006 A 
HETATM   25  C   UNL     1      42.952 -17.237   2.052  1.00  0.00     0.014 A 
HETATM   26  C   UNL     1      42.505 -15.921   2.058  1.00  0.00     0.029 A 
BRANCH  24  27
HETATM   27  C   UNL     1      44.056 -19.218   3.157  1.00  0.00     0.149 C 
HETATM   28  C   UNL     1      43.423 -20.020   2.027  1.00  0.00     0.044 C 
BRANCH  27  29
HETATM   29  O   UNL     1      43.757 -19.866   4.395  1.00  0.00    -0.391 OA
HETATM   30  H   UNL     1      43.636 -20.813   4.203  1.00  0.00     0.210 HD
ENDBRANCH  27  29
ENDBRANCH  24  27
ENDBRANCH  19  20
ENDBRANCH   1  19
TORSDOF 8
ENDMDL
MODEL 4
REMARK VINA RESULT:      -8.3      6.898      9.420
REMARK  8 active torsions:
REMARK  status: ('A' for Active; 'I' for Inactive)
REMARK    1  A    between atoms: C_4  and  C_5 
REMARK    2  A    between atoms: C_5  and  N_6 
REMARK       I    between atoms: N_6  and  C_7 
REMARK    3  A    between atoms: C_7  and  C_8 
REMARK    4  A    between atoms: C_11  and  C_12 
REMARK    5  A    between atoms: C_12  and  O_13 
REMARK    6  A    between atoms: O_13  and  C_14 
REMARK    7  A    between atoms: C_25  and  C_26 
REMARK    8  A    between atoms: C_26  and  O_27 
ROOT
HETATM    1  N   UNL     1      41.134 -13.258  -0.378  1.00  0.00    -0.351 N 
HETATM    2  C   UNL     1      40.531 -14.380   0.136  1.00  0.00     0.251 C 
HETATM    3  O   UNL     1      39.554 -14.908  -0.387  1.00  0.00    -0.268 OA
HETATM    4  H   UNL     1      41.838 -12.739   0.133  1.00  0.00     0.163 HD
ENDROOT
BRANCH   2   5
HETATM    5  C   UNL     1      41.090 -14.917   1.407  1.00  0.00     0.032 A 
HETATM    6  C   UNL     1      42.406 -14.581   1.744  1.00  0.00     0.017 A 
HETATM    7  C   UNL     1      42.985 -15.082   2.913  1.00  0.00     0.010 A 
HETATM    8  C   UNL     1      42.256 -15.926   3.761  1.00  0.00    -0.034 A 
HETATM    9  C   UNL     1      40.923 -16.223   3.442  1.00  0.00     0.010 A 
HETATM   10  C   UNL     1      40.342 -15.725   2.272  1.00  0.00     0.017 A 
BRANCH   8  11
HETATM   11  C   UNL     1      42.890 -16.479   5.015  1.00  0.00     0.214 C 
BRANCH  11  12
HETATM   12  O   UNL     1      44.111 -17.120   4.662  1.00  0.00    -0.347 OA
BRANCH  12  13
HETATM   13  C   UNL     1      44.042 -18.450   4.343  1.00  0.00     0.069 A 
HETATM   14  C   UNL     1      44.070 -19.515   5.244  1.00  0.00     0.037 A 
HETATM   15  C   UNL     1      43.990 -20.832   4.779  1.00  0.00     0.003 A 
HETATM   16  C   UNL     1      43.881 -21.089   3.413  1.00  0.00     0.000 A 
HETATM   17  C   UNL     1      43.853 -20.029   2.509  1.00  0.00     0.003 A 
HETATM   18  C   UNL     1      43.934 -18.716   2.974  1.00  0.00     0.037 A 
ENDBRANCH  12  13
ENDBRANCH  11  12
ENDBRANCH   8  11
ENDBRANCH   2   5
BRANCH   1  19
HETATM   19  C   UNL     1      40.600 -12.589  -1.544  1.00  0.00     0.182 C 
BRANCH  19  20
HETATM   20  C   UNL     1      40.974 -11.123  -1.580  1.00  0.00     0.052 A 
HETATM   21  N   UNL     1      40.905 -10.471  -2.774  1.00  0.00    -0.256 NA
HETATM   22  C   UNL     1      41.249  -9.157  -2.817  1.00  0.00     0.040 A 
HETATM   23  C   UNL     1      41.141  -8.515  -4.171  1.00  0.00     0.071 C 
HETATM   24  C   UNL     1      41.665  -8.445  -1.686  1.00  0.00    -0.006 A 
HETATM   25  C   UNL     1      41.733  -9.148  -0.472  1.00  0.00     0.014 A 
HETATM   26  C   UNL     1      41.386 -10.493  -0.415  1.00  0.00     0.029 A 
BRANCH  24  27
HETATM   27  C   UNL     1      42.057  -6.985  -1.729  1.00  0.00     0.149 C 
HETATM   28  C   UNL     1      43.562  -6.796  -1.873  1.00  0.00     0.044 C 
BRANCH  27  29
HETATM   29  O   UNL     1      41.631  -6.325  -0.536  1.00  0.00    -0.391 OA
HETATM   30  H   UNL     1      42.331  -6.449   0.129  1.00  0.00     0.210 HD
ENDBRANCH  27  29
ENDBRANCH  24  27
ENDBRANCH  19  20
ENDBRANCH   1  19
TORSDOF 8
ENDMDL
MODEL 5
REMARK VINA RESULT:      -8.0      6.092     10.218
REMARK  8 active torsions:
REMARK  status: ('A' for Active; 'I' for Inactive)
REMARK    1  A    between atoms: C_4  and  C_5 
REMARK    2  A    between atoms: C_5  and  N_6 
REMARK       I    between atoms: N_6  and  C_7 
REMARK    3  A    between atoms: C_7  and  C_8 
REMARK    4  A    between atoms: C_11  and  C_12 
REMARK    5  A    between atoms: C_12  and  O_13 
REMARK    6  A    between atoms: O_13  and  C_14 
REMARK    7  A    between atoms: C_25  and  C_26 
REMARK    8  A    between atoms: C_26  and  O_27 
ROOT
HETATM    1  N   UNL     1      42.345  -6.605  17.087  1.00  0.00    -0.351 N 
HETATM    2  C   UNL     1      41.423  -6.864  16.103  1.00  0.00     0.251 C 
HETATM    3  O   UNL     1      40.243  -6.542  16.196  1.00  0.00    -0.268 OA
HETATM    4  H   UNL     1      43.276  -7.004  17.076  1.00  0.00     0.163 HD
ENDROOT
BRANCH   2   5
HETATM    5  C   UNL     1      41.910  -7.612  14.910  1.00  0.00     0.032 A 
HETATM    6  C   UNL     1      41.231  -8.778  14.540  1.00  0.00     0.017 A 
HETATM    7  C   UNL     1      41.665  -9.530  13.445  1.00  0.00     0.010 A 
HETATM    8  C   UNL     1      42.784  -9.125  12.705  1.00  0.00    -0.034 A 
HETATM    9  C   UNL     1      43.434  -7.932  13.053  1.00  0.00     0.010 A 
HETATM   10  C   UNL     1      43.003  -7.180  14.150  1.00  0.00     0.017 A 
BRANCH   8  11
HETATM   11  C   UNL     1      43.261  -9.948  11.532  1.00  0.00     0.214 C 
BRANCH  11  12
HETATM   12  O   UNL     1      43.625  -9.066  10.476  1.00  0.00    -0.347 OA
BRANCH  12  13
HETATM   13  C   UNL     1      44.340  -9.604   9.440  1.00  0.00     0.069 A 
HETATM   14  C   UNL     1      44.026 -10.770   8.741  1.00  0.00     0.037 A 
HETATM   15  C   UNL     1      44.848 -11.208   7.698  1.00  0.00     0.003 A 
HETATM   16  C   UNL     1      45.987 -10.483   7.349  1.00  0.00     0.000 A 
HETATM   17  C   UNL     1      46.305  -9.319   8.044  1.00  0.00     0.003 A 
HETATM   18  C   UNL     1      45.484  -8.883   9.085  1.00  0.00     0.037 A 
ENDBRANCH  12  13
ENDBRANCH  11  12
ENDBRANCH   8  11
ENDBRANCH   2   5
BRANCH   1  19
HETATM   19  C   UNL     1      41.954  -5.988  18.335  1.00  0.00     0.182 C 
BRANCH  19  20
HETATM   20  C   UNL     1      41.599  -7.014  19.391  1.00  0.00     0.052 A 
HETATM   21  N   UNL     1      40.597  -6.716  20.264  1.00  0.00    -0.256 NA
HETATM   22  C   UNL     1      40.279  -7.627  21.221  1.00  0.00     0.040 A 
HETATM   23  C   UNL     1      39.162  -7.221  22.140  1.00  0.00     0.071 C 
HETATM   24  C   UNL     1      40.933  -8.859  21.342  1.00  0.00    -0.006 A 
HETATM   25  C   UNL     1      41.966  -9.131  20.432  1.00  0.00     0.014 A 
HETATM   26  C   UNL     1      42.303  -8.207  19.449  1.00  0.00     0.029 A 
BRANCH  24  27
HETATM   27  C   UNL     1      40.589  -9.872  22.411  1.00  0.00     0.149 C 
HETATM   28  C   UNL     1      41.818 -10.622  22.911  1.00  0.00     0.044 C 
BRANCH  27  29
HETATM   29  O   UNL     1      39.654 -10.825  21.903  1.00  0.00    -0.391 OA
HETATM   30  H   UNL     1      39.667 -10.754  20.932  1.00  0.00     0.210 HD
ENDBRANCH  27  29
ENDBRANCH  24  27
ENDBRANCH  19  20
ENDBRANCH   1  19
TORSDOF 8
ENDMDL
MODEL 6
REMARK VINA RESULT:      -8.0      6.880      9.313
REMARK  8 active torsions:
REMARK  status: ('A' for Active; 'I' for Inactive)
REMARK    1  A    between atoms: C_4  and  C_5 
REMARK    2  A    between atoms: C_5  and  N_6 
REMARK       I    between atoms: N_6  and  C_7 
REMARK    3  A    between atoms: C_7  and  C_8 
REMARK    4  A    between atoms: C_11  and  C_12 
REMARK    5  A    between atoms: C_12  and  O_13 
REMARK    6  A    between atoms: O_13  and  C_14 
REMARK    7  A    between atoms: C_25  and  C_26 
REMARK    8  A    between atoms: C_26  and  O_27 
ROOT
HETATM    1  N   UNL     1      40.850 -13.452  -0.601  1.00  0.00    -0.351 N 
HETATM    2  C   UNL     1      40.347 -14.612  -0.066  1.00  0.00     0.251 C 
HETATM    3  O   UNL     1      39.435 -15.245  -0.590  1.00  0.00    -0.268 OA
HETATM    4  H   UNL     1      41.491 -12.855  -0.093  1.00  0.00     0.163 HD
ENDROOT
BRANCH   2   5
HETATM    5  C   UNL     1      40.930 -15.060   1.229  1.00  0.00     0.032 A 
HETATM    6  C   UNL     1      42.289 -14.822   1.458  1.00  0.00     0.017 A 
HETATM    7  C   UNL     1      42.890 -15.248   2.646  1.00  0.00     0.010 A 
HETATM    8  C   UNL     1      42.138 -15.917   3.622  1.00  0.00    -0.034 A 
HETATM    9  C   UNL     1      40.767 -16.113   3.407  1.00  0.00     0.010 A 
HETATM   10  C   UNL     1      40.164 -15.691   2.217  1.00  0.00     0.017 A 
BRANCH   8  11
HETATM   11  C   UNL     1      42.793 -16.389   4.897  1.00  0.00     0.214 C 
BRANCH  11  12
HETATM   12  O   UNL     1      44.024 -17.024   4.568  1.00  0.00    -0.347 OA
BRANCH  12  13
HETATM   13  C   UNL     1      43.964 -18.346   4.216  1.00  0.00     0.069 A 
HETATM   14  C   UNL     1      43.874 -18.848   2.916  1.00  0.00     0.037 A 
HETATM   15  C   UNL     1      43.819 -20.228   2.698  1.00  0.00     0.003 A 
HETATM   16  C   UNL     1      43.856 -21.112   3.776  1.00  0.00     0.000 A 
HETATM   17  C   UNL     1      43.944 -20.616   5.074  1.00  0.00     0.003 A 
HETATM   18  C   UNL     1      43.998 -19.238   5.291  1.00  0.00     0.037 A 
ENDBRANCH  12  13
ENDBRANCH  11  12
ENDBRANCH   8  11
ENDBRANCH   2   5
BRANCH   1  19
HETATM   19  C   UNL     1      40.278 -12.868  -1.794  1.00  0.00     0.182 C 
BRANCH  19  20
HETATM   20  C   UNL     1      39.103 -11.967  -1.479  1.00  0.00     0.052 A 
HETATM   21  N   UNL     1      38.869 -11.647  -0.176  1.00  0.00    -0.256 NA
HETATM   22  C   UNL     1      37.810 -10.846   0.116  1.00  0.00     0.040 A 
HETATM   23  C   UNL     1      37.627 -10.540   1.575  1.00  0.00     0.071 C 
HETATM   24  C   UNL     1      36.956 -10.333  -0.866  1.00  0.00    -0.006 A 
HETATM   25  C   UNL     1      37.219 -10.688  -2.199  1.00  0.00     0.014 A 
HETATM   26  C   UNL     1      38.298 -11.507  -2.511  1.00  0.00     0.029 A 
BRANCH  24  27
HETATM   27  C   UNL     1      35.771  -9.449  -0.547  1.00  0.00     0.149 C 
HETATM   28  C   UNL     1      34.690  -9.522  -1.619  1.00  0.00     0.044 C 
BRANCH  27  29
HETATM   29  O   UNL     1      36.191  -8.089  -0.421  1.00  0.00    -0.391 OA
HETATM   30  H   UNL     1      35.426  -7.528  -0.640  1.00  0.00     0.210 HD
ENDBRANCH  27  29
ENDBRANCH  24  27
ENDBRANCH  19  20
ENDBRANCH   1  19
TORSDOF 8
ENDMDL
MODEL 7
REMARK VINA RESULT:      -7.6      2.371     10.413
REMARK  8 active torsions:
REMARK  status: ('A' for Active; 'I' for Inactive)
REMARK    1  A    between atoms: C_4  and  C_5 
REMARK    2  A    between atoms: C_5  and  N_6 
REMARK       I    between atoms: N_6  and  C_7 
REMARK    3  A    between atoms: C_7  and  C_8 
REMARK    4  A    between atoms: C_11  and  C_12 
REMARK    5  A    between atoms: C_12  and  O_13 
REMARK    6  A    between atoms: O_13  and  C_14 
REMARK    7  A    between atoms: C_25  and  C_26 
REMARK    8  A    between atoms: C_26  and  O_27 
ROOT
HETATM    1  N   UNL     1      43.451 -12.876   7.335  1.00  0.00    -0.351 N 
HETATM    2  C   UNL     1      44.363 -11.852   7.260  1.00  0.00     0.251 C 
HETATM    3  O   UNL     1      45.414 -11.943   6.633  1.00  0.00    -0.268 OA
HETATM    4  H   UNL     1      42.664 -12.855   7.972  1.00  0.00     0.163 HD
ENDROOT
BRANCH   2   5
HETATM    5  C   UNL     1      44.044 -10.615   8.026  1.00  0.00     0.032 A 
HETATM    6  C   UNL     1      42.940  -9.856   7.624  1.00  0.00     0.017 A 
HETATM    7  C   UNL     1      42.616  -8.672   8.293  1.00  0.00     0.010 A 
HETATM    8  C   UNL     1      43.392  -8.232   9.373  1.00  0.00    -0.034 A 
HETATM    9  C   UNL     1      44.471  -9.020   9.800  1.00  0.00     0.010 A 
HETATM   10  C   UNL     1      44.799 -10.203   9.130  1.00  0.00     0.017 A 
BRANCH   8  11
HETATM   11  C   UNL     1      43.049  -6.945  10.083  1.00  0.00     0.214 C 
BRANCH  11  12
HETATM   12  O   UNL     1      41.826  -7.127  10.789  1.00  0.00    -0.347 OA
BRANCH  12  13
HETATM   13  C   UNL     1      41.916  -7.589  12.074  1.00  0.00     0.069 A 
HETATM   14  C   UNL     1      42.709  -7.050  13.089  1.00  0.00     0.037 A 
HETATM   15  C   UNL     1      42.706  -7.625  14.364  1.00  0.00     0.003 A 
HETATM   16  C   UNL     1      41.911  -8.739  14.630  1.00  0.00     0.000 A 
HETATM   17  C   UNL     1      41.119  -9.281  13.621  1.00  0.00     0.003 A 
HETATM   18  C   UNL     1      41.123  -8.707  12.348  1.00  0.00     0.037 A 
ENDBRANCH  12  13
ENDBRANCH  11  12
ENDBRANCH   8  11
ENDBRANCH   2   5
BRANCH   1  19
HETATM   19  C   UNL     1      43.715 -14.160   6.724  1.00  0.00     0.182 C 
BRANCH  19  20
HETATM   20  C   UNL     1      42.824 -14.415   5.527  1.00  0.00     0.052 A 
HETATM   21  N   UNL     1      43.065 -15.523   4.772  1.00  0.00    -0.256 NA
HETATM   22  C   UNL     1      42.276 -15.755   3.690  1.00  0.00     0.040 A 
HETATM   23  C   UNL     1      42.607 -16.999   2.916  1.00  0.00     0.071 C 
HETATM   24  C   UNL     1      41.225 -14.906   3.323  1.00  0.00    -0.006 A 
HETATM   25  C   UNL     1      41.009 -13.769   4.117  1.00  0.00     0.014 A 
HETATM   26  C   UNL     1      41.809 -13.520   5.226  1.00  0.00     0.029 A 
BRANCH  24  27
HETATM   27  C   UNL     1      40.349 -15.154   2.115  1.00  0.00     0.149 C 
HETATM   28  C   UNL     1      40.101 -13.883   1.312  1.00  0.00     0.044 C 
BRANCH  27  29
HETATM   29  O   UNL     1      39.087 -15.685   2.522  1.00  0.00    -0.391 OA
HETATM   30  H   UNL     1      38.441 -15.459   1.830  1.00  0.00     0.210 HD
ENDBRANCH  27  29
ENDBRANCH  24  27
ENDBRANCH  19  20
ENDBRANCH   1  19
TORSDOF 8
ENDMDL
MODEL 8
REMARK VINA RESULT:      -7.6      1.857      2.633
REMARK  8 active torsions:
REMARK  status: ('A' for Active; 'I' for Inactive)
REMARK    1  A    between atoms: C_4  and  C_5 
REMARK    2  A    between atoms: C_5  and  N_6 
REMARK       I    between atoms: N_6  and  C_7 
REMARK    3  A    between atoms: C_7  and  C_8 
REMARK    4  A    between atoms: C_11  and  C_12 
REMARK    5  A    between atoms: C_12  and  O_13 
REMARK    6  A    between atoms: O_13  and  C_14 
REMARK    7  A    between atoms: C_25  and  C_26 
REMARK    8  A    between atoms: C_26  and  O_27 
ROOT
HETATM    1  N   UNL     1      41.784 -10.581   6.421  1.00  0.00    -0.351 N 
HETATM    2  C   UNL     1      42.323 -10.900   5.199  1.00  0.00     0.251 C 
HETATM    3  O   UNL     1      42.777 -10.056   4.431  1.00  0.00    -0.268 OA
HETATM    4  H   UNL     1      41.275 -11.254   6.981  1.00  0.00     0.163 HD
ENDROOT
BRANCH   2   5
HETATM    5  C   UNL     1      42.293 -12.337   4.809  1.00  0.00     0.032 A 
HETATM    6  C   UNL     1      41.656 -13.241   5.667  1.00  0.00     0.017 A 
HETATM    7  C   UNL     1      41.625 -14.604   5.360  1.00  0.00     0.010 A 
HETATM    8  C   UNL     1      42.230 -15.081   4.189  1.00  0.00    -0.034 A 
HETATM    9  C   UNL     1      42.827 -14.166   3.310  1.00  0.00     0.010 A 
HETATM   10  C   UNL     1      42.862 -12.802   3.617  1.00  0.00     0.017 A 
BRANCH   8  11
HETATM   11  C   UNL     1      42.208 -16.556   3.868  1.00  0.00     0.214 C 
BRANCH  11  12
HETATM   12  O   UNL     1      43.549 -17.034   3.836  1.00  0.00    -0.347 OA
BRANCH  12  13
HETATM   13  C   UNL     1      43.722 -18.392   3.846  1.00  0.00     0.069 A 
HETATM   14  C   UNL     1      44.071 -19.169   4.952  1.00  0.00     0.037 A 
HETATM   15  C   UNL     1      44.215 -20.554   4.821  1.00  0.00     0.003 A 
HETATM   16  C   UNL     1      44.009 -21.168   3.586  1.00  0.00     0.000 A 
HETATM   17  C   UNL     1      43.661 -20.397   2.480  1.00  0.00     0.003 A 
HETATM   18  C   UNL     1      43.519 -19.015   2.611  1.00  0.00     0.037 A 
ENDBRANCH  12  13
ENDBRANCH  11  12
ENDBRANCH   8  11
ENDBRANCH   2   5
BRANCH   1  19
HETATM   19  C   UNL     1      41.659  -9.205   6.847  1.00  0.00     0.182 C 
BRANCH  19  20
HETATM   20  C   UNL     1      42.041  -9.022   8.300  1.00  0.00     0.052 A 
HETATM   21  N   UNL     1      43.260  -9.475   8.706  1.00  0.00    -0.256 NA
HETATM   22  C   UNL     1      43.607  -9.324  10.011  1.00  0.00     0.040 A 
HETATM   23  C   UNL     1      44.968  -9.848  10.373  1.00  0.00     0.071 C 
HETATM   24  C   UNL     1      42.768  -8.717  10.953  1.00  0.00    -0.006 A 
HETATM   25  C   UNL     1      41.515  -8.268  10.504  1.00  0.00     0.014 A 
HETATM   26  C   UNL     1      41.148  -8.418   9.172  1.00  0.00     0.029 A 
BRANCH  24  27
HETATM   27  C   UNL     1      43.145  -8.554  12.408  1.00  0.00     0.149 C 
HETATM   28  C   UNL     1      42.406  -9.536  13.309  1.00  0.00     0.044 C 
BRANCH  27  29
HETATM   29  O   UNL     1      42.849  -7.227  12.848  1.00  0.00    -0.391 OA
HETATM   30  H   UNL     1      42.834  -6.658  12.058  1.00  0.00     0.210 HD
ENDBRANCH  27  29
ENDBRANCH  24  27
ENDBRANCH  19  20
ENDBRANCH   1  19
TORSDOF 8
ENDMDL
MODEL 9
REMARK VINA RESULT:      -7.4      3.460      4.509
REMARK  8 active torsions:
REMARK  status: ('A' for Active; 'I' for Inactive)
REMARK    1  A    between atoms: C_4  and  C_5 
REMARK    2  A    between atoms: C_5  and  N_6 
REMARK       I    between atoms: N_6  and  C_7 
REMARK    3  A    between atoms: C_7  and  C_8 
REMARK    4  A    between atoms: C_11  and  C_12 
REMARK    5  A    between atoms: C_12  and  O_13 
REMARK    6  A    between atoms: O_13  and  C_14 
REMARK    7  A    between atoms: C_25  and  C_26 
REMARK    8  A    between atoms: C_26  and  O_27 
ROOT
HETATM    1  N   UNL     1      39.955 -12.120   6.768  1.00  0.00    -0.351 N 
HETATM    2  C   UNL     1      40.457 -12.726   5.643  1.00  0.00     0.251 C 
HETATM    3  O   UNL     1      40.232 -12.313   4.509  1.00  0.00    -0.268 OA
HETATM    4  H   UNL     1      40.013 -12.547   7.685  1.00  0.00     0.163 HD
ENDROOT
BRANCH   2   5
HETATM    5  C   UNL     1      41.264 -13.960   5.851  1.00  0.00     0.032 A 
HETATM    6  C   UNL     1      42.636 -13.820   6.084  1.00  0.00     0.017 A 
HETATM    7  C   UNL     1      43.442 -14.949   6.258  1.00  0.00     0.010 A 
HETATM    8  C   UNL     1      42.885 -16.234   6.202  1.00  0.00    -0.034 A 
HETATM    9  C   UNL     1      41.502 -16.367   6.013  1.00  0.00     0.010 A 
HETATM   10  C   UNL     1      40.694 -15.239   5.836  1.00  0.00     0.017 A 
BRANCH   8  11
HETATM   11  C   UNL     1      43.760 -17.452   6.374  1.00  0.00     0.214 C 
BRANCH  11  12
HETATM   12  O   UNL     1      44.584 -17.586   5.221  1.00  0.00    -0.347 OA
BRANCH  12  13
HETATM   13  C   UNL     1      44.203 -18.519   4.294  1.00  0.00     0.069 A 
HETATM   14  C   UNL     1      43.781 -18.257   2.989  1.00  0.00     0.037 A 
HETATM   15  C   UNL     1      43.419 -19.310   2.143  1.00  0.00     0.003 A 
HETATM   16  C   UNL     1      43.477 -20.627   2.596  1.00  0.00     0.000 A 
HETATM   17  C   UNL     1      43.896 -20.893   3.898  1.00  0.00     0.003 A 
HETATM   18  C   UNL     1      44.257 -19.842   4.741  1.00  0.00     0.037 A 
ENDBRANCH  12  13
ENDBRANCH  11  12
ENDBRANCH   8  11
ENDBRANCH   2   5
BRANCH   1  19
HETATM   19  C   UNL     1      39.065 -10.984   6.673  1.00  0.00     0.182 C 
BRANCH  19  20
HETATM   20  C   UNL     1      39.809  -9.669   6.763  1.00  0.00     0.052 A 
HETATM   21  N   UNL     1      40.981  -9.640   7.456  1.00  0.00    -0.256 NA
HETATM   22  C   UNL     1      41.651  -8.461   7.550  1.00  0.00     0.040 A 
HETATM   23  C   UNL     1      42.934  -8.518   8.328  1.00  0.00     0.071 C 
HETATM   24  C   UNL     1      41.188  -7.279   6.961  1.00  0.00    -0.006 A 
HETATM   25  C   UNL     1      39.973  -7.341   6.261  1.00  0.00     0.014 A 
HETATM   26  C   UNL     1      39.278  -8.540   6.158  1.00  0.00     0.029 A 
BRANCH  24  27
HETATM   27  C   UNL     1      41.924  -5.962   7.070  1.00  0.00     0.149 C 
HETATM   28  C   UNL     1      41.155  -4.938   7.897  1.00  0.00     0.044 C 
BRANCH  27  29
HETATM   29  O   UNL     1      42.149  -5.414   5.769  1.00  0.00    -0.391 OA
HETATM   30  H   UNL     1      42.268  -6.162   5.158  1.00  0.00     0.210 HD
ENDBRANCH  27  29
ENDBRANCH  24  27
ENDBRANCH  19  20
ENDBRANCH   1  19
TORSDOF 8
ENDMDL
MODEL 10
REMARK VINA RESULT:      -7.4      2.431      3.028
REMARK  8 active torsions:
REMARK  status: ('A' for Active; 'I' for Inactive)
REMARK    1  A    between atoms: C_4  and  C_5 
REMARK    2  A    between atoms: C_5  and  N_6 
REMARK       I    between atoms: N_6  and  C_7 
REMARK    3  A    between atoms: C_7  and  C_8 
REMARK    4  A    between atoms: C_11  and  C_12 
REMARK    5  A    between atoms: C_12  and  O_13 
REMARK    6  A    between atoms: O_13  and  C_14 
REMARK    7  A    between atoms: C_25  and  C_26 
REMARK    8  A    between atoms: C_26  and  O_27 
ROOT
HETATM    1  N   UNL     1      40.064 -10.228   7.917  1.00  0.00    -0.351 N 
HETATM    2  C   UNL     1      39.536 -10.896   6.840  1.00  0.00     0.251 C 
HETATM    3  O   UNL     1      38.392 -10.708   6.436  1.00  0.00    -0.268 OA
HETATM    4  H   UNL     1      40.946 -10.493   8.339  1.00  0.00     0.163 HD
ENDROOT
BRANCH   2   5
HETATM    5  C   UNL     1      40.406 -11.917   6.193  1.00  0.00     0.032 A 
HETATM    6  C   UNL     1      41.744 -11.587   5.952  1.00  0.00     0.017 A 
HETATM    7  C   UNL     1      42.595 -12.500   5.322  1.00  0.00     0.010 A 
HETATM    8  C   UNL     1      42.118 -13.756   4.926  1.00  0.00    -0.034 A 
HETATM    9  C   UNL     1      40.788 -14.100   5.210  1.00  0.00     0.010 A 
HETATM   10  C   UNL     1      39.935 -13.186   5.837  1.00  0.00     0.017 A 
BRANCH   8  11
HETATM   11  C   UNL     1      43.035 -14.735   4.231  1.00  0.00     0.214 C 
BRANCH  11  12
HETATM   12  O   UNL     1      42.240 -15.666   3.504  1.00  0.00    -0.347 OA
BRANCH  12  13
HETATM   13  C   UNL     1      42.769 -16.914   3.313  1.00  0.00     0.069 A 
HETATM   14  C   UNL     1      42.431 -17.803   2.292  1.00  0.00     0.037 A 
HETATM   15  C   UNL     1      43.053 -19.053   2.214  1.00  0.00     0.003 A 
HETATM   16  C   UNL     1      44.014 -19.419   3.154  1.00  0.00     0.000 A 
HETATM   17  C   UNL     1      44.354 -18.536   4.176  1.00  0.00     0.003 A 
HETATM   18  C   UNL     1      43.732 -17.289   4.254  1.00  0.00     0.037 A 
ENDBRANCH  12  13
ENDBRANCH  11  12
ENDBRANCH   8  11
ENDBRANCH   2   5
BRANCH   1  19
HETATM   19  C   UNL     1      39.266  -9.301   8.687  1.00  0.00     0.182 C 
BRANCH  19  20
HETATM   20  C   UNL     1      39.916  -8.951  10.009  1.00  0.00     0.052 A 
HETATM   21  N   UNL     1      39.174  -8.279  10.932  1.00  0.00    -0.256 NA
HETATM   22  C   UNL     1      39.753  -7.952  12.117  1.00  0.00     0.040 A 
HETATM   23  C   UNL     1      38.865  -7.215  13.078  1.00  0.00     0.071 C 
HETATM   24  C   UNL     1      41.077  -8.283  12.430  1.00  0.00    -0.006 A 
HETATM   25  C   UNL     1      41.817  -8.968  11.454  1.00  0.00     0.014 A 
HETATM   26  C   UNL     1      41.237  -9.307  10.237  1.00  0.00     0.029 A 
BRANCH  24  27
HETATM   27  C   UNL     1      41.730  -7.914  13.743  1.00  0.00     0.149 C 
HETATM   28  C   UNL     1      43.187  -7.504  13.569  1.00  0.00     0.044 C 
BRANCH  27  29
HETATM   29  O   UNL     1      41.677  -9.019  14.647  1.00  0.00    -0.391 OA
HETATM   30  H   UNL     1      42.234  -8.794  15.413  1.00  0.00     0.210 HD
ENDBRANCH  27  29
ENDBRANCH  24  27
ENDBRANCH  19  20
ENDBRANCH   1  19
TORSDOF 8
ENDMDL
