MODEL 1
REMARK VINA RESULT:      -8.5      0.000      0.000
REMARK  7 active torsions:
REMARK  status: ('A' for Active; 'I' for Inactive)
REMARK    1  A    between atoms: O_2  and  C_3 
REMARK    2  A    between atoms: C_4  and  O_5 
REMARK    3  A    between atoms: C_7  and  C_8 
REMARK       I    between atoms: C_8  and  N_9 
REMARK    4  A    between atoms: N_9  and  C_10 
REMARK    5  A    between atoms: C_10  and  C_11 
REMARK    6  A    between atoms: C_11  and  N_12 
REMARK    7  A    between atoms: C_11  and  C_18 
ROOT
HETATM    1  C   UNL     1      43.046 -13.413   5.839  1.00  0.00     0.239 C 
ENDROOT
BRANCH   1   2
HETATM    2  C   UNL     1      44.116 -12.835   6.823  1.00  0.00     0.161 C 
BRANCH   2   3
HETATM    3  N   UNL     1      43.603 -11.871   7.789  1.00  0.00    -0.354 N 
HETATM    4  C   UNL     1      44.358 -10.849   8.311  1.00  0.00     0.254 C 
HETATM    5  O   UNL     1      45.483 -10.619   7.879  1.00  0.00    -0.268 OA
HETATM    6  H   UNL     1      42.671 -12.011   8.174  1.00  0.00     0.162 HD
BRANCH   4   7
HETATM    7  C   UNL     1      43.763  -9.998   9.386  1.00  0.00     0.068 A 
HETATM    8  C   UNL     1      42.530  -9.321   9.278  1.00  0.00     0.117 A 
HETATM    9  C   UNL     1      42.118  -8.454  10.316  1.00  0.00     0.102 A 
HETATM   10  C   UNL     1      42.892  -8.353  11.479  1.00  0.00     0.040 A 
HETATM   11  C   UNL     1      44.085  -9.062  11.603  1.00  0.00     0.004 A 
HETATM   12  C   UNL     1      44.526  -9.866  10.557  1.00  0.00     0.020 A 
BRANCH   8  13
HETATM   13  O   UNL     1      41.823  -9.476   8.104  1.00  0.00    -0.352 OA
HETATM   14  C   UNL     1      42.068  -8.472   7.114  1.00  0.00     0.210 C 
ENDBRANCH   8  13
BRANCH   9  15
HETATM   15  O   UNL     1      40.976  -7.725  10.106  1.00  0.00    -0.353 OA
HETATM   16  C   UNL     1      39.769  -8.184  10.704  1.00  0.00     0.210 C 
ENDBRANCH   9  15
ENDBRANCH   4   7
ENDBRANCH   2   3
ENDBRANCH   1   2
BRANCH   1  17
HETATM   17  N   UNL     1      41.630 -12.932   6.207  1.00  0.00    -0.061 N 
HETATM   18  H   UNL     1      41.678 -12.669   7.200  1.00  0.00     0.280 HD
HETATM   19  C   UNL     1      40.529 -13.947   5.989  1.00  0.00     0.236 C 
HETATM   20  C   UNL     1      40.014 -13.620   4.606  1.00  0.00     0.029 C 
HETATM   21  C   UNL     1      39.978 -12.108   4.618  1.00  0.00     0.029 C 
HETATM   22  C   UNL     1      41.186 -11.686   5.441  1.00  0.00     0.236 C 
ENDBRANCH   1  17
BRANCH   1  23
HETATM   23  C   UNL     1      43.196 -14.935   5.767  1.00  0.00    -0.015 A 
HETATM   24  C   UNL     1      43.207 -15.634   4.515  1.00  0.00    -0.018 A 
HETATM   25  C   UNL     1      43.333 -17.049   4.534  1.00  0.00    -0.025 A 
HETATM   26  C   UNL     1      43.101 -15.021   3.239  1.00  0.00     0.013 A 
HETATM   27  C   UNL     1      43.333 -17.782   3.336  1.00  0.00     0.012 A 
HETATM   28  C   UNL     1      43.466 -17.732   5.749  1.00  0.00     0.012 A 
HETATM   29  C   UNL     1      43.216 -17.147   2.103  1.00  0.00     0.001 A 
HETATM   30  C   UNL     1      43.104 -15.766   2.055  1.00  0.00     0.001 A 
HETATM   31  C   UNL     1      43.479 -17.048   6.957  1.00  0.00     0.002 A 
HETATM   32  C   UNL     1      43.346 -15.666   6.967  1.00  0.00     0.010 A 
ENDBRANCH   1  23
TORSDOF 7
ENDMDL
MODEL 2
REMARK VINA RESULT:      -8.3      2.209      3.538
REMARK  7 active torsions:
REMARK  status: ('A' for Active; 'I' for Inactive)
REMARK    1  A    between atoms: O_2  and  C_3 
REMARK    2  A    between atoms: C_4  and  O_5 
REMARK    3  A    between atoms: C_7  and  C_8 
REMARK       I    between atoms: C_8  and  N_9 
REMARK    4  A    between atoms: N_9  and  C_10 
REMARK    5  A    between atoms: C_10  and  C_11 
REMARK    6  A    between atoms: C_11  and  N_12 
REMARK    7  A    between atoms: C_11  and  C_18 
ROOT
HETATM    1  C   UNL     1      41.983 -14.896   2.936  1.00  0.00     0.239 C 
ENDROOT
BRANCH   1   2
HETATM    2  C   UNL     1      42.898 -13.629   2.889  1.00  0.00     0.161 C 
BRANCH   2   3
HETATM    3  N   UNL     1      43.198 -13.040   4.188  1.00  0.00    -0.354 N 
HETATM    4  C   UNL     1      43.794 -11.813   4.343  1.00  0.00     0.254 C 
HETATM    5  O   UNL     1      43.986 -11.083   3.375  1.00  0.00    -0.268 OA
HETATM    6  H   UNL     1      43.050 -13.600   5.026  1.00  0.00     0.162 HD
BRANCH   4   7
HETATM    7  C   UNL     1      44.165 -11.367   5.721  1.00  0.00     0.068 A 
HETATM    8  C   UNL     1      43.243 -10.922   6.692  1.00  0.00     0.117 A 
HETATM    9  C   UNL     1      43.717 -10.418   7.925  1.00  0.00     0.102 A 
HETATM   10  C   UNL     1      45.090 -10.457   8.204  1.00  0.00     0.040 A 
HETATM   11  C   UNL     1      45.994 -10.943   7.261  1.00  0.00     0.004 A 
HETATM   12  C   UNL     1      45.536 -11.380   6.022  1.00  0.00     0.020 A 
BRANCH   8  13
HETATM   13  O   UNL     1      41.908 -10.921   6.344  1.00  0.00    -0.352 OA
HETATM   14  C   UNL     1      41.440  -9.703   5.755  1.00  0.00     0.210 C 
ENDBRANCH   8  13
BRANCH   9  15
HETATM   15  O   UNL     1      42.790  -9.883   8.781  1.00  0.00    -0.353 OA
HETATM   16  C   UNL     1      42.863  -8.489   9.060  1.00  0.00     0.210 C 
ENDBRANCH   9  15
ENDBRANCH   4   7
ENDBRANCH   2   3
ENDBRANCH   1   2
BRANCH   1  17
HETATM   17  N   UNL     1      40.528 -14.549   2.568  1.00  0.00    -0.061 N 
HETATM   18  H   UNL     1      40.011 -14.550   3.457  1.00  0.00     0.280 HD
HETATM   19  C   UNL     1      39.872 -15.491   1.582  1.00  0.00     0.236 C 
HETATM   20  C   UNL     1      40.108 -14.827   0.245  1.00  0.00     0.029 C 
HETATM   21  C   UNL     1      39.840 -13.371   0.550  1.00  0.00     0.029 C 
HETATM   22  C   UNL     1      40.363 -13.155   1.963  1.00  0.00     0.236 C 
ENDBRANCH   1  17
BRANCH   1  23
HETATM   23  C   UNL     1      42.143 -15.584   4.294  1.00  0.00    -0.015 A 
HETATM   24  C   UNL     1      42.871 -16.811   4.438  1.00  0.00    -0.018 A 
HETATM   25  C   UNL     1      42.959 -17.395   5.730  1.00  0.00    -0.025 A 
HETATM   26  C   UNL     1      43.523 -17.500   3.381  1.00  0.00     0.013 A 
HETATM   27  C   UNL     1      43.648 -18.604   5.921  1.00  0.00     0.012 A 
HETATM   28  C   UNL     1      42.365 -16.770   6.832  1.00  0.00     0.012 A 
HETATM   29  C   UNL     1      44.265 -19.258   4.858  1.00  0.00     0.001 A 
HETATM   30  C   UNL     1      44.206 -18.703   3.590  1.00  0.00     0.001 A 
HETATM   31  C   UNL     1      41.681 -15.570   6.692  1.00  0.00     0.002 A 
HETATM   32  C   UNL     1      41.570 -14.983   5.437  1.00  0.00     0.010 A 
ENDBRANCH   1  23
TORSDOF 7
ENDMDL
MODEL 3
REMARK VINA RESULT:      -8.2      4.406      7.619
REMARK  7 active torsions:
REMARK  status: ('A' for Active; 'I' for Inactive)
REMARK    1  A    between atoms: O_2  and  C_3 
REMARK    2  A    between atoms: C_4  and  O_5 
REMARK    3  A    between atoms: C_7  and  C_8 
REMARK       I    between atoms: C_8  and  N_9 
REMARK    4  A    between atoms: N_9  and  C_10 
REMARK    5  A    between atoms: C_10  and  C_11 
REMARK    6  A    between atoms: C_11  and  N_12 
REMARK    7  A    between atoms: C_11  and  C_18 
ROOT
HETATM    1  C   UNL     1      41.917 -13.891   4.214  1.00  0.00     0.239 C 
ENDROOT
BRANCH   1   2
HETATM    2  C   UNL     1      42.701 -13.085   3.128  1.00  0.00     0.161 C 
BRANCH   2   3
HETATM    3  N   UNL     1      42.047 -13.010   1.828  1.00  0.00    -0.354 N 
HETATM    4  C   UNL     1      41.721 -11.826   1.212  1.00  0.00     0.254 C 
HETATM    5  O   UNL     1      42.093 -10.754   1.680  1.00  0.00    -0.268 OA
HETATM    6  H   UNL     1      41.724 -13.871   1.391  1.00  0.00     0.162 HD
BRANCH   4   7
HETATM    7  C   UNL     1      40.940 -11.875  -0.061  1.00  0.00     0.068 A 
HETATM    8  C   UNL     1      39.913 -12.803  -0.334  1.00  0.00     0.117 A 
HETATM    9  C   UNL     1      39.318 -12.828  -1.617  1.00  0.00     0.102 A 
HETATM   10  C   UNL     1      39.689 -11.868  -2.568  1.00  0.00     0.040 A 
HETATM   11  C   UNL     1      40.669 -10.921  -2.278  1.00  0.00     0.004 A 
HETATM   12  C   UNL     1      41.302 -10.934  -1.039  1.00  0.00     0.020 A 
BRANCH   8  13
HETATM   13  O   UNL     1      39.601 -13.712   0.656  1.00  0.00    -0.352 OA
HETATM   14  C   UNL     1      40.056 -15.047   0.414  1.00  0.00     0.210 C 
ENDBRANCH   8  13
BRANCH   9  15
HETATM   15  O   UNL     1      38.417 -13.829  -1.870  1.00  0.00    -0.353 OA
HETATM   16  C   UNL     1      38.617 -14.634  -3.026  1.00  0.00     0.210 C 
ENDBRANCH   9  15
ENDBRANCH   4   7
ENDBRANCH   2   3
ENDBRANCH   1   2
BRANCH   1  17
HETATM   17  N   UNL     1      41.296 -12.953   5.267  1.00  0.00    -0.061 N 
HETATM   18  H   UNL     1      41.645 -13.287   6.174  1.00  0.00     0.280 HD
HETATM   19  C   UNL     1      39.783 -12.908   5.276  1.00  0.00     0.236 C 
HETATM   20  C   UNL     1      39.458 -11.727   4.391  1.00  0.00     0.029 C 
HETATM   21  C   UNL     1      40.480 -10.701   4.824  1.00  0.00     0.029 C 
HETATM   22  C   UNL     1      41.741 -11.497   5.131  1.00  0.00     0.236 C 
ENDBRANCH   1  17
BRANCH   1  23
HETATM   23  C   UNL     1      42.828 -14.975   4.796  1.00  0.00    -0.015 A 
HETATM   24  C   UNL     1      43.075 -16.206   4.103  1.00  0.00    -0.018 A 
HETATM   25  C   UNL     1      43.920 -17.168   4.718  1.00  0.00    -0.025 A 
HETATM   26  C   UNL     1      42.537 -16.548   2.834  1.00  0.00     0.013 A 
HETATM   27  C   UNL     1      44.180 -18.396   4.088  1.00  0.00     0.012 A 
HETATM   28  C   UNL     1      44.511 -16.903   5.959  1.00  0.00     0.012 A 
HETATM   29  C   UNL     1      43.626 -18.701   2.848  1.00  0.00     0.001 A 
HETATM   30  C   UNL     1      42.808 -17.775   2.220  1.00  0.00     0.001 A 
HETATM   31  C   UNL     1      44.288 -15.699   6.615  1.00  0.00     0.002 A 
HETATM   32  C   UNL     1      43.457 -14.746   6.041  1.00  0.00     0.010 A 
ENDBRANCH   1  23
TORSDOF 7
ENDMDL
MODEL 4
REMARK VINA RESULT:      -8.2      5.275      8.294
REMARK  7 active torsions:
REMARK  status: ('A' for Active; 'I' for Inactive)
REMARK    1  A    between atoms: O_2  and  C_3 
REMARK    2  A    between atoms: C_4  and  O_5 
REMARK    3  A    between atoms: C_7  and  C_8 
REMARK       I    between atoms: C_8  and  N_9 
REMARK    4  A    between atoms: N_9  and  C_10 
REMARK    5  A    between atoms: C_10  and  C_11 
REMARK    6  A    between atoms: C_11  and  N_12 
REMARK    7  A    between atoms: C_11  and  C_18 
ROOT
HETATM    1  C   UNL     1      41.795 -14.401   3.245  1.00  0.00     0.239 C 
ENDROOT
BRANCH   1   2
HETATM    2  C   UNL     1      42.550 -14.053   1.920  1.00  0.00     0.161 C 
BRANCH   2   3
HETATM    3  N   UNL     1      41.687 -13.767   0.779  1.00  0.00    -0.354 N 
HETATM    4  C   UNL     1      40.563 -14.497   0.480  1.00  0.00     0.254 C 
HETATM    5  O   UNL     1      40.152 -15.359   1.251  1.00  0.00    -0.268 OA
HETATM    6  H   UNL     1      41.977 -13.055   0.112  1.00  0.00     0.162 HD
BRANCH   4   7
HETATM    7  C   UNL     1      39.827 -14.189  -0.784  1.00  0.00     0.068 A 
HETATM    8  C   UNL     1      39.546 -12.886  -1.247  1.00  0.00     0.117 A 
HETATM    9  C   UNL     1      38.744 -12.714  -2.400  1.00  0.00     0.102 A 
HETATM   10  C   UNL     1      38.322 -13.838  -3.120  1.00  0.00     0.040 A 
HETATM   11  C   UNL     1      38.643 -15.123  -2.687  1.00  0.00     0.004 A 
HETATM   12  C   UNL     1      39.377 -15.298  -1.518  1.00  0.00     0.020 A 
BRANCH   8  13
HETATM   13  O   UNL     1      40.002 -11.831  -0.485  1.00  0.00    -0.352 OA
HETATM   14  C   UNL     1      41.078 -11.087  -1.067  1.00  0.00     0.210 C 
ENDBRANCH   8  13
BRANCH   9  15
HETATM   15  O   UNL     1      38.396 -11.431  -2.734  1.00  0.00    -0.353 OA
HETATM   16  C   UNL     1      37.065 -11.006  -2.464  1.00  0.00     0.210 C 
ENDBRANCH   9  15
ENDBRANCH   4   7
ENDBRANCH   2   3
ENDBRANCH   1   2
BRANCH   1  17
HETATM   17  N   UNL     1      41.292 -13.129   3.953  1.00  0.00    -0.061 N 
HETATM   18  H   UNL     1      41.822 -13.076   4.832  1.00  0.00     0.280 HD
HETATM   19  C   UNL     1      39.806 -13.096   4.237  1.00  0.00     0.236 C 
HETATM   20  C   UNL     1      39.233 -12.363   3.046  1.00  0.00     0.029 C 
HETATM   21  C   UNL     1      40.227 -11.241   2.843  1.00  0.00     0.029 C 
HETATM   22  C   UNL     1      41.583 -11.842   3.183  1.00  0.00     0.236 C 
ENDBRANCH   1  17
BRANCH   1  23
HETATM   23  C   UNL     1      42.685 -15.296   4.112  1.00  0.00    -0.015 A 
HETATM   24  C   UNL     1      43.047 -16.622   3.706  1.00  0.00    -0.018 A 
HETATM   25  C   UNL     1      43.863 -17.395   4.575  1.00  0.00    -0.025 A 
HETATM   26  C   UNL     1      42.654 -17.237   2.488  1.00  0.00     0.013 A 
HETATM   27  C   UNL     1      44.232 -18.705   4.231  1.00  0.00     0.012 A 
HETATM   28  C   UNL     1      44.315 -16.858   5.786  1.00  0.00     0.012 A 
HETATM   29  C   UNL     1      43.817 -19.279   3.033  1.00  0.00     0.001 A 
HETATM   30  C   UNL     1      43.032 -18.543   2.160  1.00  0.00     0.001 A 
HETATM   31  C   UNL     1      43.981 -15.563   6.164  1.00  0.00     0.002 A 
HETATM   32  C   UNL     1      43.176 -14.791   5.337  1.00  0.00     0.010 A 
ENDBRANCH   1  23
TORSDOF 7
ENDMDL
MODEL 5
REMARK VINA RESULT:      -8.1      2.012      3.444
REMARK  7 active torsions:
REMARK  status: ('A' for Active; 'I' for Inactive)
REMARK    1  A    between atoms: O_2  and  C_3 
REMARK    2  A    between atoms: C_4  and  O_5 
REMARK    3  A    between atoms: C_7  and  C_8 
REMARK       I    between atoms: C_8  and  N_9 
REMARK    4  A    between atoms: N_9  and  C_10 
REMARK    5  A    between atoms: C_10  and  C_11 
REMARK    6  A    between atoms: C_11  and  N_12 
REMARK    7  A    between atoms: C_11  and  C_18 
ROOT
HETATM    1  C   UNL     1      42.633 -14.817   3.403  1.00  0.00     0.239 C 
ENDROOT
BRANCH   1   2
HETATM    2  C   UNL     1      43.474 -13.511   3.588  1.00  0.00     0.161 C 
BRANCH   2   3
HETATM    3  N   UNL     1      43.193 -12.769   4.810  1.00  0.00    -0.354 N 
HETATM    4  C   UNL     1      43.157 -11.397   4.871  1.00  0.00     0.254 C 
HETATM    5  O   UNL     1      43.230 -10.724   3.847  1.00  0.00    -0.268 OA
HETATM    6  H   UNL     1      43.114 -13.280   5.688  1.00  0.00     0.162 HD
BRANCH   4   7
HETATM    7  C   UNL     1      42.982 -10.745   6.204  1.00  0.00     0.068 A 
HETATM    8  C   UNL     1      43.821 -10.967   7.317  1.00  0.00     0.117 A 
HETATM    9  C   UNL     1      43.495 -10.381   8.563  1.00  0.00     0.102 A 
HETATM   10  C   UNL     1      42.399  -9.513   8.651  1.00  0.00     0.040 A 
HETATM   11  C   UNL     1      41.602  -9.257   7.537  1.00  0.00     0.004 A 
HETATM   12  C   UNL     1      41.882  -9.882   6.326  1.00  0.00     0.020 A 
BRANCH   8  13
HETATM   13  O   UNL     1      44.883 -11.830   7.149  1.00  0.00    -0.352 OA
HETATM   14  C   UNL     1      46.108 -11.208   6.748  1.00  0.00     0.210 C 
ENDBRANCH   8  13
BRANCH   9  15
HETATM   15  O   UNL     1      44.269 -10.729   9.639  1.00  0.00    -0.353 OA
HETATM   16  C   UNL     1      45.192  -9.767  10.139  1.00  0.00     0.210 C 
ENDBRANCH   9  15
ENDBRANCH   4   7
ENDBRANCH   2   3
ENDBRANCH   1   2
BRANCH   1  17
HETATM   17  N   UNL     1      41.130 -14.503   3.281  1.00  0.00    -0.061 N 
HETATM   18  H   UNL     1      40.872 -14.041   4.163  1.00  0.00     0.280 HD
HETATM   19  C   UNL     1      40.239 -15.702   3.040  1.00  0.00     0.236 C 
HETATM   20  C   UNL     1      40.102 -15.745   1.535  1.00  0.00     0.029 C 
HETATM   21  C   UNL     1      39.915 -14.287   1.181  1.00  0.00     0.029 C 
HETATM   22  C   UNL     1      40.798 -13.522   2.157  1.00  0.00     0.236 C 
ENDBRANCH   1  17
BRANCH   1  23
HETATM   23  C   UNL     1      42.981 -15.804   4.522  1.00  0.00    -0.015 A 
HETATM   24  C   UNL     1      43.351 -17.161   4.243  1.00  0.00    -0.018 A 
HETATM   25  C   UNL     1      43.643 -18.019   5.337  1.00  0.00    -0.025 A 
HETATM   26  C   UNL     1      43.453 -17.727   2.945  1.00  0.00     0.013 A 
HETATM   27  C   UNL     1      43.995 -19.360   5.118  1.00  0.00     0.012 A 
HETATM   28  C   UNL     1      43.590 -17.536   6.650  1.00  0.00     0.012 A 
HETATM   29  C   UNL     1      44.073 -19.884   3.831  1.00  0.00     0.001 A 
HETATM   30  C   UNL     1      43.806 -19.066   2.745  1.00  0.00     0.001 A 
HETATM   31  C   UNL     1      43.254 -16.214   6.913  1.00  0.00     0.002 A 
HETATM   32  C   UNL     1      42.953 -15.357   5.862  1.00  0.00     0.010 A 
ENDBRANCH   1  23
TORSDOF 7
ENDMDL
MODEL 6
REMARK VINA RESULT:      -7.8      4.523      8.420
REMARK  7 active torsions:
REMARK  status: ('A' for Active; 'I' for Inactive)
REMARK    1  A    between atoms: O_2  and  C_3 
REMARK    2  A    between atoms: C_4  and  O_5 
REMARK    3  A    between atoms: C_7  and  C_8 
REMARK       I    between atoms: C_8  and  N_9 
REMARK    4  A    between atoms: N_9  and  C_10 
REMARK    5  A    between atoms: C_10  and  C_11 
REMARK    6  A    between atoms: C_11  and  N_12 
REMARK    7  A    between atoms: C_11  and  C_18 
ROOT
HETATM    1  C   UNL     1      40.141 -12.250   1.726  1.00  0.00     0.239 C 
ENDROOT
BRANCH   1   2
HETATM    2  C   UNL     1      39.667 -13.350   2.732  1.00  0.00     0.161 C 
BRANCH   2   3
HETATM    3  N   UNL     1      40.690 -14.316   3.112  1.00  0.00    -0.354 N 
HETATM    4  C   UNL     1      40.721 -15.607   2.645  1.00  0.00     0.254 C 
HETATM    5  O   UNL     1      39.949 -15.973   1.765  1.00  0.00    -0.268 OA
HETATM    6  H   UNL     1      41.362 -14.060   3.833  1.00  0.00     0.162 HD
BRANCH   4   7
HETATM    7  C   UNL     1      41.746 -16.543   3.201  1.00  0.00     0.068 A 
HETATM    8  C   UNL     1      42.165 -16.560   4.548  1.00  0.00     0.117 A 
HETATM    9  C   UNL     1      43.223 -17.413   4.939  1.00  0.00     0.102 A 
HETATM   10  C   UNL     1      43.775 -18.299   4.005  1.00  0.00     0.040 A 
HETATM   11  C   UNL     1      43.324 -18.315   2.686  1.00  0.00     0.004 A 
HETATM   12  C   UNL     1      42.328 -17.431   2.283  1.00  0.00     0.020 A 
BRANCH   8  13
HETATM   13  O   UNL     1      41.569 -15.661   5.408  1.00  0.00    -0.352 OA
HETATM   14  C   UNL     1      40.476 -16.187   6.168  1.00  0.00     0.210 C 
ENDBRANCH   8  13
BRANCH   9  15
HETATM   15  O   UNL     1      43.675 -17.300   6.228  1.00  0.00    -0.353 OA
HETATM   16  C   UNL     1      44.673 -16.324   6.504  1.00  0.00     0.210 C 
ENDBRANCH   9  15
ENDBRANCH   4   7
ENDBRANCH   2   3
ENDBRANCH   1   2
BRANCH   1  17
HETATM   17  N   UNL     1      40.651 -10.998   2.465  1.00  0.00    -0.061 N 
HETATM   18  H   UNL     1      40.086 -10.218   2.106  1.00  0.00     0.280 HD
HETATM   19  C   UNL     1      42.124 -10.701   2.286  1.00  0.00     0.236 C 
HETATM   20  C   UNL     1      42.768 -11.366   3.481  1.00  0.00     0.029 C 
HETATM   21  C   UNL     1      41.817 -11.016   4.603  1.00  0.00     0.029 C 
HETATM   22  C   UNL     1      40.431 -11.045   3.976  1.00  0.00     0.236 C 
ENDBRANCH   1  17
BRANCH   1  23
HETATM   23  C   UNL     1      39.024 -11.974   0.715  1.00  0.00    -0.015 A 
HETATM   24  C   UNL     1      38.946 -12.675  -0.533  1.00  0.00    -0.018 A 
HETATM   25  C   UNL     1      37.889 -12.349  -1.424  1.00  0.00    -0.025 A 
HETATM   26  C   UNL     1      39.850 -13.683  -0.960  1.00  0.00     0.013 A 
HETATM   27  C   UNL     1      37.776 -12.995  -2.666  1.00  0.00     0.012 A 
HETATM   28  C   UNL     1      36.939 -11.382  -1.073  1.00  0.00     0.012 A 
HETATM   29  C   UNL     1      38.689 -13.971  -3.055  1.00  0.00     0.001 A 
HETATM   30  C   UNL     1      39.723 -14.317  -2.200  1.00  0.00     0.001 A 
HETATM   31  C   UNL     1      37.005 -10.724   0.148  1.00  0.00     0.002 A 
HETATM   32  C   UNL     1      38.036 -11.016   1.033  1.00  0.00     0.010 A 
ENDBRANCH   1  23
TORSDOF 7
ENDMDL
MODEL 7
REMARK VINA RESULT:      -7.6     18.230     19.951
REMARK  7 active torsions:
REMARK  status: ('A' for Active; 'I' for Inactive)
REMARK    1  A    between atoms: O_2  and  C_3 
REMARK    2  A    between atoms: C_4  and  O_5 
REMARK    3  A    between atoms: C_7  and  C_8 
REMARK       I    between atoms: C_8  and  N_9 
REMARK    4  A    between atoms: N_9  and  C_10 
REMARK    5  A    between atoms: C_10  and  C_11 
REMARK    6  A    between atoms: C_11  and  N_12 
REMARK    7  A    between atoms: C_11  and  C_18 
ROOT
HETATM    1  C   UNL     1      43.864 -30.786   0.603  1.00  0.00     0.239 C 
ENDROOT
BRANCH   1   2
HETATM    2  C   UNL     1      44.619 -31.886   1.420  1.00  0.00     0.161 C 
BRANCH   2   3
HETATM    3  N   UNL     1      46.033 -31.617   1.648  1.00  0.00    -0.354 N 
HETATM    4  C   UNL     1      46.491 -30.555   2.388  1.00  0.00     0.254 C 
HETATM    5  O   UNL     1      45.710 -29.844   3.013  1.00  0.00    -0.268 OA
HETATM    6  H   UNL     1      46.725 -32.183   1.160  1.00  0.00     0.162 HD
BRANCH   4   7
HETATM    7  C   UNL     1      47.965 -30.310   2.450  1.00  0.00     0.068 A 
HETATM    8  C   UNL     1      48.815 -30.268   1.325  1.00  0.00     0.117 A 
HETATM    9  C   UNL     1      50.212 -30.141   1.511  1.00  0.00     0.102 A 
HETATM   10  C   UNL     1      50.721 -29.961   2.803  1.00  0.00     0.040 A 
HETATM   11  C   UNL     1      49.873 -29.953   3.909  1.00  0.00     0.004 A 
HETATM   12  C   UNL     1      48.505 -30.143   3.735  1.00  0.00     0.020 A 
BRANCH   8  13
HETATM   13  O   UNL     1      48.236 -30.446   0.086  1.00  0.00    -0.352 OA
HETATM   14  C   UNL     1      48.091 -29.253  -0.690  1.00  0.00     0.210 C 
ENDBRANCH   8  13
BRANCH   9  15
HETATM   15  O   UNL     1      51.002 -30.232   0.396  1.00  0.00    -0.353 OA
HETATM   16  C   UNL     1      51.447 -31.523  -0.006  1.00  0.00     0.210 C 
ENDBRANCH   9  15
ENDBRANCH   4   7
ENDBRANCH   2   3
ENDBRANCH   1   2
BRANCH   1  17
HETATM   17  N   UNL     1      42.395 -30.666   1.052  1.00  0.00    -0.061 N 
HETATM   18  H   UNL     1      41.842 -30.652   0.185  1.00  0.00     0.280 HD
HETATM   19  C   UNL     1      42.077 -29.447   1.892  1.00  0.00     0.236 C 
HETATM   20  C   UNL     1      42.212 -29.950   3.311  1.00  0.00     0.029 C 
HETATM   21  C   UNL     1      41.546 -31.307   3.243  1.00  0.00     0.029 C 
HETATM   22  C   UNL     1      41.903 -31.859   1.870  1.00  0.00     0.236 C 
ENDBRANCH   1  17
BRANCH   1  23
HETATM   23  C   UNL     1      44.045 -31.054  -0.894  1.00  0.00    -0.015 A 
HETATM   24  C   UNL     1      44.436 -30.018  -1.804  1.00  0.00    -0.018 A 
HETATM   25  C   UNL     1      44.567 -30.344  -3.180  1.00  0.00    -0.025 A 
HETATM   26  C   UNL     1      44.708 -28.673  -1.439  1.00  0.00     0.013 A 
HETATM   27  C   UNL     1      44.932 -29.361  -4.116  1.00  0.00     0.012 A 
HETATM   28  C   UNL     1      44.340 -31.652  -3.624  1.00  0.00     0.012 A 
HETATM   29  C   UNL     1      45.180 -28.049  -3.722  1.00  0.00     0.001 A 
HETATM   30  C   UNL     1      45.072 -27.707  -2.383  1.00  0.00     0.001 A 
HETATM   31  C   UNL     1      43.985 -32.658  -2.734  1.00  0.00     0.002 A 
HETATM   32  C   UNL     1      43.839 -32.363  -1.384  1.00  0.00     0.010 A 
ENDBRANCH   1  23
TORSDOF 7
ENDMDL
MODEL 8
REMARK VINA RESULT:      -7.3      3.189      8.312
REMARK  7 active torsions:
REMARK  status: ('A' for Active; 'I' for Inactive)
REMARK    1  A    between atoms: O_2  and  C_3 
REMARK    2  A    between atoms: C_4  and  O_5 
REMARK    3  A    between atoms: C_7  and  C_8 
REMARK       I    between atoms: C_8  and  N_9 
REMARK    4  A    between atoms: N_9  and  C_10 
REMARK    5  A    between atoms: C_10  and  C_11 
REMARK    6  A    between atoms: C_11  and  N_12 
REMARK    7  A    between atoms: C_11  and  C_18 
ROOT
HETATM    1  C   UNL     1      41.684 -12.143   5.512  1.00  0.00     0.239 C 
ENDROOT
BRANCH   1   2
HETATM    2  C   UNL     1      41.391 -13.582   6.048  1.00  0.00     0.161 C 
BRANCH   2   3
HETATM    3  N   UNL     1      42.135 -14.647   5.386  1.00  0.00    -0.354 N 
HETATM    4  C   UNL     1      41.550 -15.582   4.568  1.00  0.00     0.254 C 
HETATM    5  O   UNL     1      40.371 -15.481   4.245  1.00  0.00    -0.268 OA
HETATM    6  H   UNL     1      43.120 -14.771   5.613  1.00  0.00     0.162 HD
BRANCH   4   7
HETATM    7  C   UNL     1      42.394 -16.700   4.045  1.00  0.00     0.068 A 
HETATM    8  C   UNL     1      43.048 -17.653   4.854  1.00  0.00     0.117 A 
HETATM    9  C   UNL     1      43.912 -18.600   4.256  1.00  0.00     0.102 A 
HETATM   10  C   UNL     1      44.030 -18.641   2.861  1.00  0.00     0.040 A 
HETATM   11  C   UNL     1      43.342 -17.731   2.061  1.00  0.00     0.004 A 
HETATM   12  C   UNL     1      42.543 -16.756   2.650  1.00  0.00     0.020 A 
BRANCH   8  13
HETATM   13  O   UNL     1      42.877 -17.549   6.219  1.00  0.00    -0.352 OA
HETATM   14  C   UNL     1      43.985 -16.980   6.925  1.00  0.00     0.210 C 
ENDBRANCH   8  13
BRANCH   9  15
HETATM   15  O   UNL     1      44.619 -19.420   5.096  1.00  0.00    -0.353 OA
HETATM   16  C   UNL     1      44.149 -20.750   5.288  1.00  0.00     0.210 C 
ENDBRANCH   9  15
ENDBRANCH   4   7
ENDBRANCH   2   3
ENDBRANCH   1   2
BRANCH   1  17
HETATM   17  N   UNL     1      41.855 -12.140   3.981  1.00  0.00    -0.061 N 
HETATM   18  H   UNL     1      42.358 -13.009   3.758  1.00  0.00     0.280 HD
HETATM   19  C   UNL     1      42.599 -10.948   3.418  1.00  0.00     0.236 C 
HETATM   20  C   UNL     1      41.496  -9.983   3.050  1.00  0.00     0.029 C 
HETATM   21  C   UNL     1      40.462 -10.890   2.422  1.00  0.00     0.029 C 
HETATM   22  C   UNL     1      40.533 -12.187   3.215  1.00  0.00     0.236 C 
ENDBRANCH   1  17
BRANCH   1  23
HETATM   23  C   UNL     1      42.870 -11.550   6.279  1.00  0.00    -0.015 A 
HETATM   24  C   UNL     1      42.766 -10.307   6.986  1.00  0.00    -0.018 A 
HETATM   25  C   UNL     1      43.916  -9.816   7.660  1.00  0.00    -0.025 A 
HETATM   26  C   UNL     1      41.590  -9.515   7.073  1.00  0.00     0.013 A 
HETATM   27  C   UNL     1      43.871  -8.597   8.354  1.00  0.00     0.012 A 
HETATM   28  C   UNL     1      45.111 -10.546   7.645  1.00  0.00     0.012 A 
HETATM   29  C   UNL     1      42.703  -7.841   8.407  1.00  0.00     0.001 A 
HETATM   30  C   UNL     1      41.562  -8.303   7.770  1.00  0.00     0.001 A 
HETATM   31  C   UNL     1      45.200 -11.761   6.978  1.00  0.00     0.002 A 
HETATM   32  C   UNL     1      44.092 -12.258   6.303  1.00  0.00     0.010 A 
ENDBRANCH   1  23
TORSDOF 7
ENDMDL
MODEL 9
REMARK VINA RESULT:      -7.3      2.317      3.141
REMARK  7 active torsions:
REMARK  status: ('A' for Active; 'I' for Inactive)
REMARK    1  A    between atoms: O_2  and  C_3 
REMARK    2  A    between atoms: C_4  and  O_5 
REMARK    3  A    between atoms: C_7  and  C_8 
REMARK       I    between atoms: C_8  and  N_9 
REMARK    4  A    between atoms: N_9  and  C_10 
REMARK    5  A    between atoms: C_10  and  C_11 
REMARK    6  A    between atoms: C_11  and  N_12 
REMARK    7  A    between atoms: C_11  and  C_18 
ROOT
HETATM    1  C   UNL     1      42.772 -14.723   4.382  1.00  0.00     0.239 C 
ENDROOT
BRANCH   1   2
HETATM    2  C   UNL     1      43.503 -13.617   5.211  1.00  0.00     0.161 C 
BRANCH   2   3
HETATM    3  N   UNL     1      42.633 -12.583   5.757  1.00  0.00    -0.354 N 
HETATM    4  C   UNL     1      42.874 -11.239   5.615  1.00  0.00     0.254 C 
HETATM    5  O   UNL     1      43.783 -10.839   4.893  1.00  0.00    -0.268 OA
HETATM    6  H   UNL     1      41.858 -12.861   6.357  1.00  0.00     0.162 HD
BRANCH   4   7
HETATM    7  C   UNL     1      41.979 -10.273   6.324  1.00  0.00     0.068 A 
HETATM    8  C   UNL     1      40.590 -10.164   6.105  1.00  0.00     0.117 A 
HETATM    9  C   UNL     1      39.861  -9.138   6.751  1.00  0.00     0.102 A 
HETATM   10  C   UNL     1      40.510  -8.306   7.672  1.00  0.00     0.040 A 
HETATM   11  C   UNL     1      41.873  -8.449   7.923  1.00  0.00     0.004 A 
HETATM   12  C   UNL     1      42.607  -9.416   7.241  1.00  0.00     0.020 A 
BRANCH   8  13
HETATM   13  O   UNL     1      40.024 -11.024   5.187  1.00  0.00    -0.352 OA
HETATM   14  C   UNL     1      39.190 -12.042   5.749  1.00  0.00     0.210 C 
ENDBRANCH   8  13
BRANCH   9  15
HETATM   15  O   UNL     1      38.542  -8.997   6.408  1.00  0.00    -0.353 OA
HETATM   16  C   UNL     1      38.178  -7.893   5.585  1.00  0.00     0.210 C 
ENDBRANCH   9  15
ENDBRANCH   4   7
ENDBRANCH   2   3
ENDBRANCH   1   2
BRANCH   1  17
HETATM   17  N   UNL     1      41.271 -14.411   4.234  1.00  0.00    -0.061 N 
HETATM   18  H   UNL     1      41.034 -13.813   5.036  1.00  0.00     0.280 HD
HETATM   19  C   UNL     1      40.362 -15.620   4.198  1.00  0.00     0.236 C 
HETATM   20  C   UNL     1      40.199 -15.897   2.721  1.00  0.00     0.029 C 
HETATM   21  C   UNL     1      40.023 -14.510   2.144  1.00  0.00     0.029 C 
HETATM   22  C   UNL     1      40.931 -13.614   2.975  1.00  0.00     0.236 C 
ENDBRANCH   1  17
BRANCH   1  23
HETATM   23  C   UNL     1      43.073 -16.095   4.994  1.00  0.00    -0.015 A 
HETATM   24  C   UNL     1      43.341 -17.242   4.178  1.00  0.00    -0.018 A 
HETATM   25  C   UNL     1      43.595 -18.483   4.821  1.00  0.00    -0.025 A 
HETATM   26  C   UNL     1      43.378 -17.243   2.758  1.00  0.00     0.013 A 
HETATM   27  C   UNL     1      43.848 -19.641   4.067  1.00  0.00     0.012 A 
HETATM   28  C   UNL     1      43.602 -18.568   6.219  1.00  0.00     0.012 A 
HETATM   29  C   UNL     1      43.864 -19.604   2.676  1.00  0.00     0.001 A 
HETATM   30  C   UNL     1      43.633 -18.405   2.022  1.00  0.00     0.001 A 
HETATM   31  C   UNL     1      43.364 -17.448   7.005  1.00  0.00     0.002 A 
HETATM   32  C   UNL     1      43.103 -16.225   6.400  1.00  0.00     0.010 A 
ENDBRANCH   1  23
TORSDOF 7
ENDMDL
MODEL 10
REMARK VINA RESULT:      -7.2      2.206      4.231
REMARK  7 active torsions:
REMARK  status: ('A' for Active; 'I' for Inactive)
REMARK    1  A    between atoms: O_2  and  C_3 
REMARK    2  A    between atoms: C_4  and  O_5 
REMARK    3  A    between atoms: C_7  and  C_8 
REMARK       I    between atoms: C_8  and  N_9 
REMARK    4  A    between atoms: N_9  and  C_10 
REMARK    5  A    between atoms: C_10  and  C_11 
REMARK    6  A    between atoms: C_11  and  N_12 
REMARK    7  A    between atoms: C_11  and  C_18 
ROOT
HETATM    1  C   UNL     1      42.706 -14.672   2.148  1.00  0.00     0.239 C 
ENDROOT
BRANCH   1   2
HETATM    2  C   UNL     1      43.567 -13.504   2.732  1.00  0.00     0.161 C 
BRANCH   2   3
HETATM    3  N   UNL     1      42.803 -12.438   3.368  1.00  0.00    -0.354 N 
HETATM    4  C   UNL     1      43.381 -11.405   4.065  1.00  0.00     0.254 C 
HETATM    5  O   UNL     1      44.600 -11.259   4.071  1.00  0.00    -0.268 OA
HETATM    6  H   UNL     1      41.787 -12.506   3.386  1.00  0.00     0.162 HD
BRANCH   4   7
HETATM    7  C   UNL     1      42.492 -10.439   4.780  1.00  0.00     0.068 A 
HETATM    8  C   UNL     1      42.302 -10.412   6.177  1.00  0.00     0.117 A 
HETATM    9  C   UNL     1      41.350  -9.527   6.734  1.00  0.00     0.102 A 
HETATM   10  C   UNL     1      40.679  -8.622   5.901  1.00  0.00     0.040 A 
HETATM   11  C   UNL     1      40.906  -8.618   4.526  1.00  0.00     0.004 A 
HETATM   12  C   UNL     1      41.794  -9.532   3.967  1.00  0.00     0.020 A 
BRANCH   8  13
HETATM   13  O   UNL     1      43.004 -11.330   6.930  1.00  0.00    -0.352 OA
HETATM   14  C   UNL     1      44.204 -10.829   7.527  1.00  0.00     0.210 C 
ENDBRANCH   8  13
BRANCH   9  15
HETATM   15  O   UNL     1      41.114  -9.628   8.081  1.00  0.00    -0.353 OA
HETATM   16  C   UNL     1      41.555  -8.566   8.920  1.00  0.00     0.210 C 
ENDBRANCH   9  15
ENDBRANCH   4   7
ENDBRANCH   2   3
ENDBRANCH   1   2
BRANCH   1  17
HETATM   17  N   UNL     1      41.209 -14.309   2.131  1.00  0.00    -0.061 N 
HETATM   18  H   UNL     1      41.074 -13.660   2.917  1.00  0.00     0.280 HD
HETATM   19  C   UNL     1      40.261 -15.483   2.257  1.00  0.00     0.236 C 
HETATM   20  C   UNL     1      39.940 -15.834   0.823  1.00  0.00     0.029 C 
HETATM   21  C   UNL     1      39.752 -14.475   0.186  1.00  0.00     0.029 C 
HETATM   22  C   UNL     1      40.769 -13.571   0.868  1.00  0.00     0.236 C 
ENDBRANCH   1  17
BRANCH   1  23
HETATM   23  C   UNL     1      43.033 -15.965   2.899  1.00  0.00    -0.015 A 
HETATM   24  C   UNL     1      42.933 -16.055   4.326  1.00  0.00    -0.018 A 
HETATM   25  C   UNL     1      43.270 -17.286   4.950  1.00  0.00    -0.025 A 
HETATM   26  C   UNL     1      42.517 -15.001   5.182  1.00  0.00     0.013 A 
HETATM   27  C   UNL     1      43.203 -17.422   6.346  1.00  0.00     0.012 A 
HETATM   28  C   UNL     1      43.668 -18.385   4.179  1.00  0.00     0.012 A 
HETATM   29  C   UNL     1      42.802 -16.362   7.154  1.00  0.00     0.001 A 
HETATM   30  C   UNL     1      42.455 -15.153   6.571  1.00  0.00     0.001 A 
HETATM   31  C   UNL     1      43.741 -18.300   2.795  1.00  0.00     0.002 A 
HETATM   32  C   UNL     1      43.427 -17.104   2.161  1.00  0.00     0.010 A 
ENDBRANCH   1  23
TORSDOF 7
ENDMDL
