MODEL 1
REMARK VINA RESULT:      -9.4      0.000      0.000
REMARK  6 active torsions:
REMARK  status: ('A' for Active; 'I' for Inactive)
REMARK    1  A    between atoms: C_2  and  C_3 
REMARK    2  A    between atoms: C_3  and  N_4 
REMARK    3  A    between atoms: N_8  and  C_10 
REMARK    4  A    between atoms: C_10  and  C_11 
REMARK    5  A    between atoms: C_11  and  C_12 
REMARK    6  A    between atoms: C_20  and  N_21 
ROOT
HETATM    1  N   UNL     1      41.211 -11.992   2.201  1.00  0.00    -0.064 N 
HETATM    2  H   UNL     1      40.920 -11.356   1.441  1.00  0.00     0.280 HD
HETATM    3  C   UNL     1      42.550 -11.484   2.714  1.00  0.00     0.263 C 
HETATM    4  C   UNL     1      42.997 -12.221   4.007  1.00  0.00     0.262 C 
HETATM    5  N   UNL     1      41.906 -12.247   5.083  1.00  0.00    -0.068 N 
HETATM    6  H   UNL     1      41.822 -11.297   5.482  1.00  0.00     0.280 HD
HETATM    7  C   UNL     1      40.518 -12.647   4.550  1.00  0.00     0.262 C 
HETATM    8  C   UNL     1      40.139 -11.867   3.275  1.00  0.00     0.263 C 
ENDROOT
BRANCH   5   9
HETATM    9  C   UNL     1      42.258 -13.159   6.271  1.00  0.00     0.238 C 
BRANCH   9  10
HETATM   10  C   UNL     1      42.142 -14.632   5.903  1.00  0.00     0.070 C 
BRANCH  10  11
HETATM   11  C   UNL     1      43.472 -15.368   6.163  1.00  0.00     0.222 C 
HETATM   12  O   UNL     1      43.761 -16.130   5.003  1.00  0.00    -0.334 OA
HETATM   13  C   UNL     1      43.704 -17.485   5.152  1.00  0.00     0.099 A 
HETATM   14  C   UNL     1      43.554 -18.133   6.382  1.00  0.00     0.068 A 
HETATM   15  C   UNL     1      43.812 -18.228   3.978  1.00  0.00     0.075 A 
HETATM   16  N   UNL     1      43.429 -17.390   7.555  1.00  0.00    -0.323 N 
HETATM   17  C   UNL     1      43.514 -19.527   6.445  1.00  0.00     0.035 A 
HETATM   18  C   UNL     1      43.383 -16.028   7.545  1.00  0.00     0.251 C 
HETATM   19  H   UNL     1      43.354 -17.850   8.456  1.00  0.00     0.169 HD
HETATM   20  O   UNL     1      43.205 -15.365   8.564  1.00  0.00    -0.270 OA
HETATM   21  C   UNL     1      43.606 -20.281   5.269  1.00  0.00     0.038 A 
HETATM   22  C   UNL     1      43.750 -19.626   4.039  1.00  0.00     0.105 A 
BRANCH  22  23
HETATM   23  N   UNL     1      43.803 -20.400   2.795  1.00  0.00    -0.116 N 
HETATM   24  O   UNL     1      44.205 -21.571   2.875  1.00  0.00    -0.532 OA
HETATM   25  O   UNL     1      43.471 -19.832   1.749  1.00  0.00    -0.532 OA
ENDBRANCH  22  23
ENDBRANCH  10  11
ENDBRANCH   9  10
ENDBRANCH   5   9
BRANCH   1  26
HETATM   26  C   UNL     1      41.322 -13.352   1.513  1.00  0.00     0.273 C 
BRANCH  26  27
HETATM   27  C   UNL     1      40.724 -13.397   0.137  1.00  0.00    -0.030 A 
HETATM   28  C   UNL     1      40.934 -12.326  -0.766  1.00  0.00     0.012 A 
HETATM   29  C   UNL     1      40.404 -12.359  -2.060  1.00  0.00     0.040 A 
HETATM   30  C   UNL     1      39.667 -13.462  -2.424  1.00  0.00     0.105 A 
HETATM   31  C   UNL     1      39.448 -14.501  -1.554  1.00  0.00     0.105 A 
HETATM   32  O   UNL     1      39.077 -13.661  -3.629  1.00  0.00    -0.323 OA
HETATM   33  C   UNL     1      39.958 -14.502  -0.272  1.00  0.00     0.048 A 
HETATM   34  O   UNL     1      38.693 -15.486  -2.103  1.00  0.00    -0.323 OA
HETATM   35  C   UNL     1      38.408 -14.922  -3.406  1.00  0.00     0.352 A 
ENDBRANCH  26  27
ENDBRANCH   1  26
TORSDOF 6
ENDMDL
MODEL 2
REMARK VINA RESULT:      -9.4      3.956      8.348
REMARK  6 active torsions:
REMARK  status: ('A' for Active; 'I' for Inactive)
REMARK    1  A    between atoms: C_2  and  C_3 
REMARK    2  A    between atoms: C_3  and  N_4 
REMARK    3  A    between atoms: N_8  and  C_10 
REMARK    4  A    between atoms: C_10  and  C_11 
REMARK    5  A    between atoms: C_11  and  C_12 
REMARK    6  A    between atoms: C_20  and  N_21 
ROOT
HETATM    1  N   UNL     1      41.794 -15.269   2.758  1.00  0.00    -0.064 N 
HETATM    2  H   UNL     1      41.431 -15.930   2.052  1.00  0.00     0.280 HD
HETATM    3  C   UNL     1      41.733 -13.881   2.138  1.00  0.00     0.263 C 
HETATM    4  C   UNL     1      42.043 -12.765   3.173  1.00  0.00     0.262 C 
HETATM    5  N   UNL     1      41.211 -12.894   4.454  1.00  0.00    -0.068 N 
HETATM    6  H   UNL     1      40.238 -12.620   4.236  1.00  0.00     0.280 HD
HETATM    7  C   UNL     1      41.170 -14.322   5.026  1.00  0.00     0.262 C 
HETATM    8  C   UNL     1      40.844 -15.373   3.944  1.00  0.00     0.263 C 
ENDROOT
BRANCH   5   9
HETATM    9  C   UNL     1      41.667 -11.933   5.564  1.00  0.00     0.238 C 
BRANCH   9  10
HETATM   10  C   UNL     1      43.025 -11.317   5.253  1.00  0.00     0.070 C 
BRANCH  10  11
HETATM   11  C   UNL     1      44.114 -11.900   6.174  1.00  0.00     0.222 C 
HETATM   12  O   UNL     1      43.616 -11.838   7.500  1.00  0.00    -0.334 OA
HETATM   13  C   UNL     1      44.256 -10.969   8.336  1.00  0.00     0.099 A 
HETATM   14  C   UNL     1      45.437 -10.295   8.012  1.00  0.00     0.068 A 
HETATM   15  C   UNL     1      43.659 -10.776   9.580  1.00  0.00     0.075 A 
HETATM   16  N   UNL     1      46.025 -10.474   6.761  1.00  0.00    -0.323 N 
HETATM   17  C   UNL     1      46.030  -9.428   8.931  1.00  0.00     0.035 A 
HETATM   18  C   UNL     1      45.451 -11.246   5.797  1.00  0.00     0.251 C 
HETATM   19  H   UNL     1      46.901 -10.017   6.528  1.00  0.00     0.169 HD
HETATM   20  O   UNL     1      45.924 -11.357   4.669  1.00  0.00    -0.270 OA
HETATM   21  C   UNL     1      45.429  -9.217  10.178  1.00  0.00     0.038 A 
HETATM   22  C   UNL     1      44.242  -9.889  10.494  1.00  0.00     0.105 A 
BRANCH  22  23
HETATM   23  N   UNL     1      43.578  -9.645  11.778  1.00  0.00    -0.116 N 
HETATM   24  O   UNL     1      42.974 -10.599  12.293  1.00  0.00    -0.532 OA
HETATM   25  O   UNL     1      43.638  -8.504  12.250  1.00  0.00    -0.532 OA
ENDBRANCH  22  23
ENDBRANCH  10  11
ENDBRANCH   9  10
ENDBRANCH   5   9
BRANCH   1  26
HETATM   26  C   UNL     1      43.227 -15.743   2.997  1.00  0.00     0.273 C 
BRANCH  26  27
HETATM   27  C   UNL     1      43.371 -17.233   3.111  1.00  0.00    -0.030 A 
HETATM   28  C   UNL     1      43.063 -18.065   2.007  1.00  0.00     0.012 A 
HETATM   29  C   UNL     1      43.212 -19.454   2.086  1.00  0.00     0.040 A 
HETATM   30  C   UNL     1      43.660 -19.984   3.274  1.00  0.00     0.105 A 
HETATM   31  C   UNL     1      43.952 -19.188   4.353  1.00  0.00     0.105 A 
HETATM   32  O   UNL     1      43.858 -21.301   3.531  1.00  0.00    -0.323 OA
HETATM   33  C   UNL     1      43.819 -17.816   4.309  1.00  0.00     0.048 A 
HETATM   34  O   UNL     1      44.372 -19.906   5.427  1.00  0.00    -0.323 OA
HETATM   35  C   UNL     1      44.255 -21.257   4.920  1.00  0.00     0.352 A 
ENDBRANCH  26  27
ENDBRANCH   1  26
TORSDOF 6
ENDMDL
MODEL 3
REMARK VINA RESULT:      -9.4      4.557      8.986
REMARK  6 active torsions:
REMARK  status: ('A' for Active; 'I' for Inactive)
REMARK    1  A    between atoms: C_2  and  C_3 
REMARK    2  A    between atoms: C_3  and  N_4 
REMARK    3  A    between atoms: N_8  and  C_10 
REMARK    4  A    between atoms: C_10  and  C_11 
REMARK    5  A    between atoms: C_11  and  C_12 
REMARK    6  A    between atoms: C_20  and  N_21 
ROOT
HETATM    1  N   UNL     1      42.118 -14.604   5.590  1.00  0.00    -0.064 N 
HETATM    2  H   UNL     1      41.511 -15.440   5.598  1.00  0.00     0.280 HD
HETATM    3  C   UNL     1      41.204 -13.394   5.457  1.00  0.00     0.263 C 
HETATM    4  C   UNL     1      41.972 -12.059   5.654  1.00  0.00     0.262 C 
HETATM    5  N   UNL     1      42.818 -12.042   6.933  1.00  0.00    -0.068 N 
HETATM    6  H   UNL     1      42.179 -11.960   7.742  1.00  0.00     0.280 HD
HETATM    7  C   UNL     1      43.658 -13.315   7.138  1.00  0.00     0.262 C 
HETATM    8  C   UNL     1      42.827 -14.599   6.938  1.00  0.00     0.263 C 
ENDROOT
BRANCH   5   9
HETATM    9  C   UNL     1      43.747 -10.820   7.021  1.00  0.00     0.238 C 
BRANCH   9  10
HETATM   10  C   UNL     1      45.147 -11.209   7.479  1.00  0.00     0.070 C 
BRANCH  10  11
HETATM   11  C   UNL     1      45.543 -10.430   8.748  1.00  0.00     0.222 C 
HETATM   12  O   UNL     1      44.633 -10.805   9.769  1.00  0.00    -0.334 OA
HETATM   13  C   UNL     1      43.780  -9.828  10.193  1.00  0.00     0.099 A 
HETATM   14  C   UNL     1      43.872  -8.486   9.812  1.00  0.00     0.068 A 
HETATM   15  C   UNL     1      42.773 -10.240  11.064  1.00  0.00     0.075 A 
HETATM   16  N   UNL     1      44.870  -8.076   8.928  1.00  0.00    -0.323 N 
HETATM   17  C   UNL     1      42.961  -7.549  10.301  1.00  0.00     0.035 A 
HETATM   18  C   UNL     1      45.738  -8.958   8.359  1.00  0.00     0.251 C 
HETATM   19  H   UNL     1      44.967  -7.099   8.672  1.00  0.00     0.169 HD
HETATM   20  O   UNL     1      46.575  -8.620   7.528  1.00  0.00    -0.270 OA
HETATM   21  C   UNL     1      41.936  -7.958  11.163  1.00  0.00     0.038 A 
HETATM   22  C   UNL     1      41.845  -9.304  11.537  1.00  0.00     0.105 A 
BRANCH  22  23
HETATM   23  N   UNL     1      40.751  -9.755  12.404  1.00  0.00    -0.116 N 
HETATM   24  O   UNL     1      40.878  -9.557  13.622  1.00  0.00    -0.532 OA
HETATM   25  O   UNL     1      39.791 -10.324  11.871  1.00  0.00    -0.532 OA
ENDBRANCH  22  23
ENDBRANCH  10  11
ENDBRANCH   9  10
ENDBRANCH   5   9
BRANCH   1  26
HETATM   26  C   UNL     1      43.003 -14.810   4.362  1.00  0.00     0.273 C 
BRANCH  26  27
HETATM   27  C   UNL     1      43.185 -16.248   3.968  1.00  0.00    -0.030 A 
HETATM   28  C   UNL     1      42.904 -16.663   2.644  1.00  0.00     0.012 A 
HETATM   29  C   UNL     1      43.088 -17.994   2.251  1.00  0.00     0.040 A 
HETATM   30  C   UNL     1      43.543 -18.885   3.196  1.00  0.00     0.105 A 
HETATM   31  C   UNL     1      43.809 -18.494   4.485  1.00  0.00     0.105 A 
HETATM   32  O   UNL     1      43.774 -20.206   2.996  1.00  0.00    -0.323 OA
HETATM   33  C   UNL     1      43.641 -17.191   4.905  1.00  0.00     0.048 A 
HETATM   34  O   UNL     1      44.242 -19.523   5.258  1.00  0.00    -0.323 OA
HETATM   35  C   UNL     1      44.162 -20.625   4.323  1.00  0.00     0.352 A 
ENDBRANCH  26  27
ENDBRANCH   1  26
TORSDOF 6
ENDMDL
MODEL 4
REMARK VINA RESULT:      -9.3      1.638      2.455
REMARK  6 active torsions:
REMARK  status: ('A' for Active; 'I' for Inactive)
REMARK    1  A    between atoms: C_2  and  C_3 
REMARK    2  A    between atoms: C_3  and  N_4 
REMARK    3  A    between atoms: N_8  and  C_10 
REMARK    4  A    between atoms: C_10  and  C_11 
REMARK    5  A    between atoms: C_11  and  C_12 
REMARK    6  A    between atoms: C_20  and  N_21 
ROOT
HETATM    1  N   UNL     1      39.564 -14.513   1.244  1.00  0.00    -0.064 N 
HETATM    2  H   UNL     1      38.664 -14.700   0.773  1.00  0.00     0.280 HD
HETATM    3  C   UNL     1      39.390 -13.226   2.036  1.00  0.00     0.263 C 
HETATM    4  C   UNL     1      40.601 -12.947   2.969  1.00  0.00     0.262 C 
HETATM    5  N   UNL     1      40.968 -14.152   3.843  1.00  0.00    -0.068 N 
HETATM    6  H   UNL     1      40.244 -14.253   4.574  1.00  0.00     0.280 HD
HETATM    7  C   UNL     1      41.031 -15.482   3.071  1.00  0.00     0.262 C 
HETATM    8  C   UNL     1      39.792 -15.695   2.177  1.00  0.00     0.263 C 
ENDROOT
BRANCH   5   9
HETATM    9  C   UNL     1      42.292 -13.960   4.601  1.00  0.00     0.238 C 
BRANCH   9  10
HETATM   10  C   UNL     1      42.254 -14.616   5.975  1.00  0.00     0.070 C 
BRANCH  10  11
HETATM   11  C   UNL     1      43.558 -15.389   6.250  1.00  0.00     0.222 C 
HETATM   12  O   UNL     1      43.851 -16.141   5.085  1.00  0.00    -0.334 OA
HETATM   13  C   UNL     1      43.757 -17.497   5.213  1.00  0.00     0.099 A 
HETATM   14  C   UNL     1      43.566 -18.158   6.430  1.00  0.00     0.068 A 
HETATM   15  C   UNL     1      43.869 -18.225   4.031  1.00  0.00     0.075 A 
HETATM   16  N   UNL     1      43.437 -17.429   7.611  1.00  0.00    -0.323 N 
HETATM   17  C   UNL     1      43.490 -19.551   6.471  1.00  0.00     0.035 A 
HETATM   18  C   UNL     1      43.426 -16.067   7.621  1.00  0.00     0.251 C 
HETATM   19  H   UNL     1      43.333 -17.900   8.504  1.00  0.00     0.169 HD
HETATM   20  O   UNL     1      43.245 -15.414   8.645  1.00  0.00    -0.270 OA
HETATM   21  C   UNL     1      43.585 -20.290   5.286  1.00  0.00     0.038 A 
HETATM   22  C   UNL     1      43.770 -19.622   4.069  1.00  0.00     0.105 A 
BRANCH  22  23
HETATM   23  N   UNL     1      43.828 -20.379   2.815  1.00  0.00    -0.116 N 
HETATM   24  O   UNL     1      43.442 -19.801   1.787  1.00  0.00    -0.532 OA
HETATM   25  O   UNL     1      44.229 -21.547   2.865  1.00  0.00    -0.532 OA
ENDBRANCH  22  23
ENDBRANCH  10  11
ENDBRANCH   9  10
ENDBRANCH   5   9
BRANCH   1  26
HETATM   26  C   UNL     1      40.553 -14.364   0.089  1.00  0.00     0.273 C 
BRANCH  26  27
HETATM   27  C   UNL     1      40.162 -13.331  -0.928  1.00  0.00    -0.030 A 
HETATM   28  C   UNL     1      38.993 -13.509  -1.708  1.00  0.00     0.012 A 
HETATM   29  C   UNL     1      38.600 -12.547  -2.646  1.00  0.00     0.040 A 
HETATM   30  C   UNL     1      39.390 -11.430  -2.789  1.00  0.00     0.105 A 
HETATM   31  C   UNL     1      40.530 -11.253  -2.045  1.00  0.00     0.105 A 
HETATM   32  O   UNL     1      39.166 -10.404  -3.648  1.00  0.00    -0.323 OA
HETATM   33  C   UNL     1      40.946 -12.179  -1.111  1.00  0.00     0.048 A 
HETATM   34  O   UNL     1      41.167 -10.092  -2.343  1.00  0.00    -0.323 OA
HETATM   35  C   UNL     1      40.328  -9.580  -3.406  1.00  0.00     0.352 A 
ENDBRANCH  26  27
ENDBRANCH   1  26
TORSDOF 6
ENDMDL
MODEL 5
REMARK VINA RESULT:      -9.2      3.148      4.503
REMARK  6 active torsions:
REMARK  status: ('A' for Active; 'I' for Inactive)
REMARK    1  A    between atoms: C_2  and  C_3 
REMARK    2  A    between atoms: C_3  and  N_4 
REMARK    3  A    between atoms: N_8  and  C_10 
REMARK    4  A    between atoms: C_10  and  C_11 
REMARK    5  A    between atoms: C_11  and  C_12 
REMARK    6  A    between atoms: C_20  and  N_21 
ROOT
HETATM    1  N   UNL     1      39.643 -12.246  -1.080  1.00  0.00    -0.064 N 
HETATM    2  H   UNL     1      39.138 -11.651  -1.757  1.00  0.00     0.280 HD
HETATM    3  C   UNL     1      39.109 -11.895   0.302  1.00  0.00     0.263 C 
HETATM    4  C   UNL     1      39.624 -12.874   1.392  1.00  0.00     0.262 C 
HETATM    5  N   UNL     1      39.415 -14.346   1.017  1.00  0.00    -0.068 N 
HETATM    6  H   UNL     1      38.406 -14.559   1.098  1.00  0.00     0.280 HD
HETATM    7  C   UNL     1      39.843 -14.687  -0.421  1.00  0.00     0.262 C 
HETATM    8  C   UNL     1      39.284 -13.680  -1.448  1.00  0.00     0.263 C 
ENDROOT
BRANCH   5   9
HETATM    9  C   UNL     1      40.117 -15.316   1.982  1.00  0.00     0.238 C 
BRANCH   9  10
HETATM   10  C   UNL     1      40.789 -14.578   3.132  1.00  0.00     0.070 C 
BRANCH  10  11
HETATM   11  C   UNL     1      42.320 -14.741   3.067  1.00  0.00     0.222 C 
HETATM   12  O   UNL     1      42.582 -15.957   2.385  1.00  0.00    -0.334 OA
HETATM   13  C   UNL     1      43.135 -16.953   3.138  1.00  0.00     0.099 A 
HETATM   14  C   UNL     1      43.597 -16.784   4.445  1.00  0.00     0.068 A 
HETATM   15  C   UNL     1      43.226 -18.198   2.518  1.00  0.00     0.075 A 
HETATM   16  N   UNL     1      43.490 -15.542   5.071  1.00  0.00    -0.323 N 
HETATM   17  C   UNL     1      44.158 -17.857   5.140  1.00  0.00     0.035 A 
HETATM   18  C   UNL     1      42.883 -14.481   4.471  1.00  0.00     0.251 C 
HETATM   19  H   UNL     1      43.855 -15.400   6.008  1.00  0.00     0.169 HD
HETATM   20  O   UNL     1      42.722 -13.404   5.037  1.00  0.00    -0.270 OA
HETATM   21  C   UNL     1      44.239 -19.115   4.532  1.00  0.00     0.038 A 
HETATM   22  C   UNL     1      43.768 -19.280   3.224  1.00  0.00     0.105 A 
BRANCH  22  23
HETATM   23  N   UNL     1      43.806 -20.602   2.589  1.00  0.00    -0.116 N 
HETATM   24  O   UNL     1      43.566 -20.652   1.373  1.00  0.00    -0.532 OA
HETATM   25  O   UNL     1      44.047 -21.579   3.307  1.00  0.00    -0.532 OA
ENDBRANCH  22  23
ENDBRANCH  10  11
ENDBRANCH   9  10
ENDBRANCH   5   9
BRANCH   1  26
HETATM   26  C   UNL     1      41.106 -11.847  -1.264  1.00  0.00     0.273 C 
BRANCH  26  27
HETATM   27  C   UNL     1      41.302 -10.522  -1.942  1.00  0.00    -0.030 A 
HETATM   28  C   UNL     1      40.736 -10.285  -3.219  1.00  0.00     0.012 A 
HETATM   29  C   UNL     1      40.889  -9.050  -3.857  1.00  0.00     0.040 A 
HETATM   30  C   UNL     1      41.614  -8.077  -3.208  1.00  0.00     0.105 A 
HETATM   31  C   UNL     1      42.176  -8.300  -1.976  1.00  0.00     0.105 A 
HETATM   32  O   UNL     1      41.868  -6.830  -3.676  1.00  0.00    -0.323 OA
HETATM   33  C   UNL     1      42.043  -9.504  -1.317  1.00  0.00     0.048 A 
HETATM   34  O   UNL     1      42.854  -7.218  -1.513  1.00  0.00    -0.323 OA
HETATM   35  C   UNL     1      42.706  -6.302  -2.624  1.00  0.00     0.352 A 
ENDBRANCH  26  27
ENDBRANCH   1  26
TORSDOF 6
ENDMDL
MODEL 6
REMARK VINA RESULT:      -9.0      2.997      9.699
REMARK  6 active torsions:
REMARK  status: ('A' for Active; 'I' for Inactive)
REMARK    1  A    between atoms: C_2  and  C_3 
REMARK    2  A    between atoms: C_3  and  N_4 
REMARK    3  A    between atoms: N_8  and  C_10 
REMARK    4  A    between atoms: C_10  and  C_11 
REMARK    5  A    between atoms: C_11  and  C_12 
REMARK    6  A    between atoms: C_20  and  N_21 
ROOT
HETATM    1  N   UNL     1      41.801 -15.132   3.373  1.00  0.00    -0.064 N 
HETATM    2  H   UNL     1      42.062 -15.332   4.353  1.00  0.00     0.280 HD
HETATM    3  C   UNL     1      40.462 -15.810   3.124  1.00  0.00     0.263 C 
HETATM    4  C   UNL     1      39.848 -15.405   1.756  1.00  0.00     0.262 C 
HETATM    5  N   UNL     1      39.806 -13.886   1.549  1.00  0.00    -0.068 N 
HETATM    6  H   UNL     1      39.067 -13.498   2.159  1.00  0.00     0.280 HD
HETATM    7  C   UNL     1      41.122 -13.174   1.912  1.00  0.00     0.262 C 
HETATM    8  C   UNL     1      41.663 -13.617   3.287  1.00  0.00     0.263 C 
ENDROOT
BRANCH   5   9
HETATM    9  C   UNL     1      39.409 -13.487   0.119  1.00  0.00     0.238 C 
BRANCH   9  10
HETATM   10  C   UNL     1      39.720 -14.593  -0.881  1.00  0.00     0.070 C 
BRANCH  10  11
HETATM   11  C   UNL     1      40.094 -14.001  -2.254  1.00  0.00     0.222 C 
HETATM   12  O   UNL     1      41.045 -12.976  -2.021  1.00  0.00    -0.334 OA
HETATM   13  C   UNL     1      40.626 -11.704  -2.287  1.00  0.00     0.099 A 
HETATM   14  C   UNL     1      39.417 -11.392  -2.916  1.00  0.00     0.068 A 
HETATM   15  C   UNL     1      41.492 -10.687  -1.892  1.00  0.00     0.075 A 
HETATM   16  N   UNL     1      38.543 -12.410  -3.296  1.00  0.00    -0.323 N 
HETATM   17  C   UNL     1      39.070 -10.062  -3.158  1.00  0.00     0.035 A 
HETATM   18  C   UNL     1      38.793 -13.719  -3.017  1.00  0.00     0.251 C 
HETATM   19  H   UNL     1      37.679 -12.196  -3.785  1.00  0.00     0.169 HD
HETATM   20  O   UNL     1      37.999 -14.616  -3.286  1.00  0.00    -0.270 OA
HETATM   21  C   UNL     1      39.926  -9.033  -2.750  1.00  0.00     0.038 A 
HETATM   22  C   UNL     1      41.133  -9.351  -2.114  1.00  0.00     0.105 A 
BRANCH  22  23
HETATM   23  N   UNL     1      42.020  -8.283  -1.642  1.00  0.00    -0.116 N 
HETATM   24  O   UNL     1      41.562  -7.130  -1.636  1.00  0.00    -0.532 OA
HETATM   25  O   UNL     1      43.168  -8.594  -1.307  1.00  0.00    -0.532 OA
ENDBRANCH  22  23
ENDBRANCH  10  11
ENDBRANCH   9  10
ENDBRANCH   5   9
BRANCH   1  26
HETATM   26  C   UNL     1      42.936 -15.754   2.561  1.00  0.00     0.273 C 
BRANCH  26  27
HETATM   27  C   UNL     1      43.200 -17.198   2.877  1.00  0.00    -0.030 A 
HETATM   28  C   UNL     1      43.073 -18.182   1.866  1.00  0.00     0.012 A 
HETATM   29  C   UNL     1      43.336 -19.530   2.135  1.00  0.00     0.040 A 
HETATM   30  C   UNL     1      43.713 -19.868   3.414  1.00  0.00     0.105 A 
HETATM   31  C   UNL     1      43.828 -18.923   4.404  1.00  0.00     0.105 A 
HETATM   32  O   UNL     1      44.000 -21.118   3.854  1.00  0.00    -0.323 OA
HETATM   33  C   UNL     1      43.579 -17.586   4.174  1.00  0.00     0.048 A 
HETATM   34  O   UNL     1      44.203 -19.462   5.592  1.00  0.00    -0.323 OA
HETATM   35  C   UNL     1      44.256 -20.869   5.254  1.00  0.00     0.352 A 
ENDBRANCH  26  27
ENDBRANCH   1  26
TORSDOF 6
ENDMDL
MODEL 7
REMARK VINA RESULT:      -8.9      5.614     10.133
REMARK  6 active torsions:
REMARK  status: ('A' for Active; 'I' for Inactive)
REMARK    1  A    between atoms: C_2  and  C_3 
REMARK    2  A    between atoms: C_3  and  N_4 
REMARK    3  A    between atoms: N_8  and  C_10 
REMARK    4  A    between atoms: C_10  and  C_11 
REMARK    5  A    between atoms: C_11  and  C_12 
REMARK    6  A    between atoms: C_20  and  N_21 
ROOT
HETATM    1  N   UNL     1      43.893  -9.114   9.716  1.00  0.00    -0.064 N 
HETATM    2  H   UNL     1      43.899  -8.216  10.227  1.00  0.00     0.280 HD
HETATM    3  C   UNL     1      42.893  -8.968   8.578  1.00  0.00     0.263 C 
HETATM    4  C   UNL     1      42.947 -10.170   7.596  1.00  0.00     0.262 C 
HETATM    5  N   UNL     1      44.369 -10.483   7.117  1.00  0.00    -0.068 N 
HETATM    6  H   UNL     1      44.657  -9.744   6.454  1.00  0.00     0.280 HD
HETATM    7  C   UNL     1      45.412 -10.517   8.249  1.00  0.00     0.262 C 
HETATM    8  C   UNL     1      45.305  -9.287   9.174  1.00  0.00     0.263 C 
ENDROOT
BRANCH   5   9
HETATM    9  C   UNL     1      44.459 -11.799   6.326  1.00  0.00     0.238 C 
BRANCH   9  10
HETATM   10  C   UNL     1      44.179 -11.586   4.845  1.00  0.00     0.070 C 
BRANCH  10  11
HETATM   11  C   UNL     1      42.896 -12.326   4.418  1.00  0.00     0.222 C 
HETATM   12  O   UNL     1      42.926 -13.603   5.034  1.00  0.00    -0.334 OA
HETATM   13  C   UNL     1      43.072 -14.667   4.191  1.00  0.00     0.099 A 
HETATM   14  C   UNL     1      43.019 -14.576   2.798  1.00  0.00     0.068 A 
HETATM   15  C   UNL     1      43.281 -15.900   4.805  1.00  0.00     0.075 A 
HETATM   16  N   UNL     1      42.828 -13.340   2.183  1.00  0.00    -0.323 N 
HETATM   17  C   UNL     1      43.170 -15.719   2.010  1.00  0.00     0.035 A 
HETATM   18  C   UNL     1      42.751 -12.182   2.897  1.00  0.00     0.251 C 
HETATM   19  H   UNL     1      42.753 -13.268   1.173  1.00  0.00     0.169 HD
HETATM   20  O   UNL     1      42.652 -11.081   2.363  1.00  0.00    -0.270 OA
HETATM   21  C   UNL     1      43.396 -16.959   2.618  1.00  0.00     0.038 A 
HETATM   22  C   UNL     1      43.455 -17.043   4.014  1.00  0.00     0.105 A 
BRANCH  22  23
HETATM   23  N   UNL     1      43.734 -18.328   4.664  1.00  0.00    -0.116 N 
HETATM   24  O   UNL     1      43.412 -18.440   5.857  1.00  0.00    -0.532 OA
HETATM   25  O   UNL     1      44.293 -19.203   3.993  1.00  0.00    -0.532 OA
ENDBRANCH  22  23
ENDBRANCH  10  11
ENDBRANCH   9  10
ENDBRANCH   5   9
BRANCH   1  26
HETATM   26  C   UNL     1      43.444 -10.127  10.767  1.00  0.00     0.273 C 
BRANCH  26  27
HETATM   27  C   UNL     1      42.812  -9.515  11.983  1.00  0.00    -0.030 A 
HETATM   28  C   UNL     1      41.572 -10.004  12.463  1.00  0.00     0.012 A 
HETATM   29  C   UNL     1      40.977  -9.461  13.608  1.00  0.00     0.040 A 
HETATM   30  C   UNL     1      41.633  -8.433  14.245  1.00  0.00     0.105 A 
HETATM   31  C   UNL     1      42.829  -7.945  13.783  1.00  0.00     0.105 A 
HETATM   32  O   UNL     1      41.205  -7.787  15.359  1.00  0.00    -0.323 OA
HETATM   33  C   UNL     1      43.444  -8.457  12.660  1.00  0.00     0.048 A 
HETATM   34  O   UNL     1      43.305  -6.929  14.549  1.00  0.00    -0.323 OA
HETATM   35  C   UNL     1      42.239  -6.791  15.519  1.00  0.00     0.352 A 
ENDBRANCH  26  27
ENDBRANCH   1  26
TORSDOF 6
ENDMDL
MODEL 8
REMARK VINA RESULT:      -8.8      2.604      8.600
REMARK  6 active torsions:
REMARK  status: ('A' for Active; 'I' for Inactive)
REMARK    1  A    between atoms: C_2  and  C_3 
REMARK    2  A    between atoms: C_3  and  N_4 
REMARK    3  A    between atoms: N_8  and  C_10 
REMARK    4  A    between atoms: C_10  and  C_11 
REMARK    5  A    between atoms: C_11  and  C_12 
REMARK    6  A    between atoms: C_20  and  N_21 
ROOT
HETATM    1  N   UNL     1      41.943 -15.456   5.268  1.00  0.00    -0.064 N 
HETATM    2  H   UNL     1      42.213 -15.946   6.137  1.00  0.00     0.280 HD
HETATM    3  C   UNL     1      40.677 -16.127   4.757  1.00  0.00     0.263 C 
HETATM    4  C   UNL     1      40.039 -15.346   3.575  1.00  0.00     0.262 C 
HETATM    5  N   UNL     1      39.855 -13.854   3.879  1.00  0.00    -0.068 N 
HETATM    6  H   UNL     1      39.077 -13.755   4.552  1.00  0.00     0.280 HD
HETATM    7  C   UNL     1      41.094 -13.192   4.507  1.00  0.00     0.262 C 
HETATM    8  C   UNL     1      41.663 -14.017   5.679  1.00  0.00     0.263 C 
ENDROOT
BRANCH   5   9
HETATM    9  C   UNL     1      39.434 -13.040   2.644  1.00  0.00     0.238 C 
BRANCH   9  10
HETATM   10  C   UNL     1      40.410 -11.906   2.359  1.00  0.00     0.070 C 
BRANCH  10  11
HETATM   11  C   UNL     1      40.936 -11.987   0.913  1.00  0.00     0.222 C 
HETATM   12  O   UNL     1      39.971 -11.362   0.082  1.00  0.00    -0.334 OA
HETATM   13  C   UNL     1      39.305 -12.187  -0.779  1.00  0.00     0.099 A 
HETATM   14  C   UNL     1      39.636 -13.527  -0.995  1.00  0.00     0.068 A 
HETATM   15  C   UNL     1      38.238 -11.610  -1.465  1.00  0.00     0.075 A 
HETATM   16  N   UNL     1      40.692 -14.110  -0.296  1.00  0.00    -0.323 N 
HETATM   17  C   UNL     1      38.905 -14.297  -1.902  1.00  0.00     0.035 A 
HETATM   18  C   UNL     1      41.390 -13.430   0.655  1.00  0.00     0.251 C 
HETATM   19  H   UNL     1      40.963 -15.072  -0.471  1.00  0.00     0.169 HD
HETATM   20  O   UNL     1      42.277 -13.952   1.325  1.00  0.00    -0.270 OA
HETATM   21  C   UNL     1      37.822 -13.730  -2.583  1.00  0.00     0.038 A 
HETATM   22  C   UNL     1      37.490 -12.388  -2.357  1.00  0.00     0.105 A 
BRANCH  22  23
HETATM   23  N   UNL     1      36.332 -11.793  -3.031  1.00  0.00    -0.116 N 
HETATM   24  O   UNL     1      36.205 -10.561  -2.954  1.00  0.00    -0.532 OA
HETATM   25  O   UNL     1      35.546 -12.554  -3.605  1.00  0.00    -0.532 OA
ENDBRANCH  22  23
ENDBRANCH  10  11
ENDBRANCH   9  10
ENDBRANCH   5   9
BRANCH   1  26
HETATM   26  C   UNL     1      43.139 -15.674   4.342  1.00  0.00     0.273 C 
BRANCH  26  27
HETATM   27  C   UNL     1      43.322 -17.096   3.896  1.00  0.00    -0.030 A 
HETATM   28  C   UNL     1      43.042 -17.463   2.557  1.00  0.00     0.012 A 
HETATM   29  C   UNL     1      43.227 -18.778   2.116  1.00  0.00     0.040 A 
HETATM   30  C   UNL     1      43.683 -19.702   3.028  1.00  0.00     0.105 A 
HETATM   31  C   UNL     1      43.948 -19.359   4.330  1.00  0.00     0.105 A 
HETATM   32  O   UNL     1      43.915 -21.015   2.780  1.00  0.00    -0.323 OA
HETATM   33  C   UNL     1      43.779 -18.072   4.798  1.00  0.00     0.048 A 
HETATM   34  O   UNL     1      44.381 -20.415   5.066  1.00  0.00    -0.323 OA
HETATM   35  C   UNL     1      44.303 -21.482   4.091  1.00  0.00     0.352 A 
ENDBRANCH  26  27
ENDBRANCH   1  26
TORSDOF 6
ENDMDL
MODEL 9
REMARK VINA RESULT:      -8.7      4.362      8.299
REMARK  6 active torsions:
REMARK  status: ('A' for Active; 'I' for Inactive)
REMARK    1  A    between atoms: C_2  and  C_3 
REMARK    2  A    between atoms: C_3  and  N_4 
REMARK    3  A    between atoms: N_8  and  C_10 
REMARK    4  A    between atoms: C_10  and  C_11 
REMARK    5  A    between atoms: C_11  and  C_12 
REMARK    6  A    between atoms: C_20  and  N_21 
ROOT
HETATM    1  N   UNL     1      42.073 -14.448   5.887  1.00  0.00    -0.064 N 
HETATM    2  H   UNL     1      42.465 -15.320   6.279  1.00  0.00     0.280 HD
HETATM    3  C   UNL     1      40.631 -14.357   6.365  1.00  0.00     0.263 C 
HETATM    4  C   UNL     1      39.991 -12.982   6.030  1.00  0.00     0.262 C 
HETATM    5  N   UNL     1      40.855 -11.798   6.480  1.00  0.00    -0.068 N 
HETATM    6  H   UNL     1      40.802 -11.733   7.511  1.00  0.00     0.280 HD
HETATM    7  C   UNL     1      42.341 -11.936   6.103  1.00  0.00     0.262 C 
HETATM    8  C   UNL     1      42.910 -13.321   6.477  1.00  0.00     0.263 C 
ENDROOT
BRANCH   5   9
HETATM    9  C   UNL     1      40.339 -10.447   5.958  1.00  0.00     0.238 C 
BRANCH   9  10
HETATM   10  C   UNL     1      39.310  -9.836   6.900  1.00  0.00     0.070 C 
BRANCH  10  11
HETATM   11  C   UNL     1      39.958  -8.765   7.799  1.00  0.00     0.222 C 
HETATM   12  O   UNL     1      41.301  -8.614   7.367  1.00  0.00    -0.334 OA
HETATM   13  C   UNL     1      42.258  -9.034   8.245  1.00  0.00     0.099 A 
HETATM   14  C   UNL     1      41.998  -9.425   9.561  1.00  0.00     0.068 A 
HETATM   15  C   UNL     1      43.562  -9.052   7.754  1.00  0.00     0.075 A 
HETATM   16  N   UNL     1      40.691  -9.423  10.047  1.00  0.00    -0.323 N 
HETATM   17  C   UNL     1      43.040  -9.833  10.395  1.00  0.00     0.035 A 
HETATM   18  C   UNL     1      39.627  -9.109   9.257  1.00  0.00     0.251 C 
HETATM   19  H   UNL     1      40.496  -9.672  11.012  1.00  0.00     0.169 HD
HETATM   20  O   UNL     1      38.467  -9.170   9.655  1.00  0.00    -0.270 OA
HETATM   21  C   UNL     1      44.351  -9.870   9.905  1.00  0.00     0.038 A 
HETATM   22  C   UNL     1      44.605  -9.483   8.583  1.00  0.00     0.105 A 
BRANCH  22  23
HETATM   23  N   UNL     1      45.966  -9.559   8.043  1.00  0.00    -0.116 N 
HETATM   24  O   UNL     1      46.493  -8.492   7.690  1.00  0.00    -0.532 OA
HETATM   25  O   UNL     1      46.488 -10.675   7.949  1.00  0.00    -0.532 OA
ENDBRANCH  22  23
ENDBRANCH  10  11
ENDBRANCH   9  10
ENDBRANCH   5   9
BRANCH   1  26
HETATM   26  C   UNL     1      42.179 -14.649   4.376  1.00  0.00     0.273 C 
BRANCH  26  27
HETATM   27  C   UNL     1      42.662 -16.011   3.968  1.00  0.00    -0.030 A 
HETATM   28  C   UNL     1      42.677 -16.380   2.600  1.00  0.00     0.012 A 
HETATM   29  C   UNL     1      43.143 -17.636   2.198  1.00  0.00     0.040 A 
HETATM   30  C   UNL     1      43.578 -18.503   3.174  1.00  0.00     0.105 A 
HETATM   31  C   UNL     1      43.558 -18.159   4.503  1.00  0.00     0.105 A 
HETATM   32  O   UNL     1      44.055 -19.755   2.969  1.00  0.00    -0.323 OA
HETATM   33  C   UNL     1      43.107 -16.929   4.935  1.00  0.00     0.048 A 
HETATM   34  O   UNL     1      44.021 -19.154   5.302  1.00  0.00    -0.323 OA
HETATM   35  C   UNL     1      44.283 -20.192   4.328  1.00  0.00     0.352 A 
ENDBRANCH  26  27
ENDBRANCH   1  26
TORSDOF 6
ENDMDL
MODEL 10
REMARK VINA RESULT:      -8.5      4.629      8.013
REMARK  6 active torsions:
REMARK  status: ('A' for Active; 'I' for Inactive)
REMARK    1  A    between atoms: C_2  and  C_3 
REMARK    2  A    between atoms: C_3  and  N_4 
REMARK    3  A    between atoms: N_8  and  C_10 
REMARK    4  A    between atoms: C_10  and  C_11 
REMARK    5  A    between atoms: C_11  and  C_12 
REMARK    6  A    between atoms: C_20  and  N_21 
ROOT
HETATM    1  N   UNL     1      41.781 -13.868   4.754  1.00  0.00    -0.064 N 
HETATM    2  H   UNL     1      41.235 -14.719   4.538  1.00  0.00     0.280 HD
HETATM    3  C   UNL     1      40.809 -12.856   5.342  1.00  0.00     0.263 C 
HETATM    4  C   UNL     1      41.538 -11.611   5.915  1.00  0.00     0.262 C 
HETATM    5  N   UNL     1      42.682 -11.978   6.868  1.00  0.00    -0.068 N 
HETATM    6  H   UNL     1      42.268 -12.321   7.752  1.00  0.00     0.280 HD
HETATM    7  C   UNL     1      43.605 -13.087   6.332  1.00  0.00     0.262 C 
HETATM    8  C   UNL     1      42.810 -14.294   5.792  1.00  0.00     0.263 C 
ENDROOT
BRANCH   5   9
HETATM    9  C   UNL     1      43.545 -10.768   7.263  1.00  0.00     0.238 C 
BRANCH   9  10
HETATM   10  C   UNL     1      44.935 -11.193   7.718  1.00  0.00     0.070 C 
BRANCH  10  11
HETATM   11  C   UNL     1      45.376 -10.386   8.955  1.00  0.00     0.222 C 
HETATM   12  O   UNL     1      44.505 -10.738  10.017  1.00  0.00    -0.334 OA
HETATM   13  C   UNL     1      43.665  -9.752  10.449  1.00  0.00     0.099 A 
HETATM   14  C   UNL     1      43.741  -8.420  10.035  1.00  0.00     0.068 A 
HETATM   15  C   UNL     1      42.692 -10.146  11.365  1.00  0.00     0.075 A 
HETATM   16  N   UNL     1      44.705  -8.029   9.106  1.00  0.00    -0.323 N 
HETATM   17  C   UNL     1      42.846  -7.473  10.536  1.00  0.00     0.035 A 
HETATM   18  C   UNL     1      45.553  -8.923   8.526  1.00  0.00     0.251 C 
HETATM   19  H   UNL     1      44.791  -7.057   8.825  1.00  0.00     0.169 HD
HETATM   20  O   UNL     1      46.360  -8.602   7.657  1.00  0.00    -0.270 OA
HETATM   21  C   UNL     1      41.855  -7.863  11.443  1.00  0.00     0.038 A 
HETATM   22  C   UNL     1      41.779  -9.201  11.850  1.00  0.00     0.105 A 
BRANCH  22  23
HETATM   23  N   UNL     1      40.719  -9.633  12.766  1.00  0.00    -0.116 N 
HETATM   24  O   UNL     1      40.901  -9.430  13.977  1.00  0.00    -0.532 OA
HETATM   25  O   UNL     1      39.730 -10.192  12.280  1.00  0.00    -0.532 OA
ENDBRANCH  22  23
ENDBRANCH  10  11
ENDBRANCH   9  10
ENDBRANCH   5   9
BRANCH   1  26
HETATM   26  C   UNL     1      42.330 -13.436   3.396  1.00  0.00     0.273 C 
BRANCH  26  27
HETATM   27  C   UNL     1      41.519 -13.907   2.224  1.00  0.00    -0.030 A 
HETATM   28  C   UNL     1      40.833 -15.145   2.286  1.00  0.00     0.012 A 
HETATM   29  C   UNL     1      40.054 -15.592   1.213  1.00  0.00     0.040 A 
HETATM   30  C   UNL     1      39.984 -14.794   0.094  1.00  0.00     0.105 A 
HETATM   31  C   UNL     1      40.653 -13.598   0.020  1.00  0.00     0.105 A 
HETATM   32  O   UNL     1      39.285 -15.068  -1.036  1.00  0.00    -0.323 OA
HETATM   33  C   UNL     1      41.428 -13.126   1.059  1.00  0.00     0.048 A 
HETATM   34  O   UNL     1      40.459 -12.968  -1.168  1.00  0.00    -0.323 OA
HETATM   35  C   UNL     1      39.634 -13.935  -1.861  1.00  0.00     0.352 A 
ENDBRANCH  26  27
ENDBRANCH   1  26
TORSDOF 6
ENDMDL
