MODEL 1
REMARK VINA RESULT:      -7.4      0.000      0.000
REMARK  4 active torsions:
REMARK  status: ('A' for Active; 'I' for Inactive)
REMARK    1  A    between atoms: O_2  and  C_3 
REMARK    2  A    between atoms: C_5  and  N_6 
REMARK    3  A    between atoms: N_6  and  C_7 
REMARK    4  A    between atoms: C_7  and  C_8 
ROOT
HETATM    1  N   UNL     1      41.527 -15.448   1.566  1.00  0.00    -0.372 N 
HETATM    2  H   UNL     1      40.948 -16.100   2.079  1.00  0.00     0.161 HD
ENDROOT
BRANCH   1   3
HETATM    3  C   UNL     1      40.949 -14.565   0.686  1.00  0.00     0.103 A 
HETATM    4  C   UNL     1      39.896 -14.868  -0.189  1.00  0.00     0.085 A 
HETATM    5  C   UNL     1      39.396 -13.893  -1.051  1.00  0.00     0.073 A 
HETATM    6  C   UNL     1      39.972 -12.630  -1.056  1.00  0.00     0.053 A 
HETATM    7  C   UNL     1      41.022 -12.370  -0.195  1.00  0.00     0.092 A 
HETATM    8  N   UNL     1      41.467 -13.326   0.628  1.00  0.00    -0.352 N 
HETATM    9  H   UNL     1      42.246 -13.115   1.243  1.00  0.00     0.166 HD
BRANCH   5  10
HETATM   10  O   UNL     1      38.372 -14.051  -1.937  1.00  0.00    -0.356 OA
HETATM   11  C   UNL     1      38.570 -14.947  -3.028  1.00  0.00     0.210 C 
ENDBRANCH   5  10
ENDBRANCH   1   3
BRANCH   1  12
HETATM   12  C   UNL     1      42.917 -15.888   1.462  1.00  0.00     0.160 C 
BRANCH  12  13
HETATM   13  C   UNL     1      43.258 -16.867   2.560  1.00  0.00    -0.036 A 
HETATM   14  C   UNL     1      43.519 -16.409   3.875  1.00  0.00     0.031 A 
HETATM   15  C   UNL     1      43.826 -17.309   4.901  1.00  0.00     0.047 A 
HETATM   16 BR   UNL     1      44.153 -16.667   6.645  1.00  0.00    -0.048 Br
HETATM   17  C   UNL     1      43.879 -18.654   4.603  1.00  0.00     0.122 A 
HETATM   18  C   UNL     1      43.636 -19.102   3.326  1.00  0.00     0.107 A 
HETATM   19  O   UNL     1      44.157 -19.678   5.455  1.00  0.00    -0.322 OA
HETATM   20  O   UNL     1      43.733 -20.454   3.218  1.00  0.00    -0.323 OA
HETATM   21  C   UNL     1      43.327 -18.243   2.289  1.00  0.00     0.048 A 
HETATM   22  C   UNL     1      44.105 -20.812   4.566  1.00  0.00     0.352 A 
ENDBRANCH  12  13
ENDBRANCH   1  12
TORSDOF 4
ENDMDL
MODEL 2
REMARK VINA RESULT:      -7.3      1.731      2.305
REMARK  4 active torsions:
REMARK  status: ('A' for Active; 'I' for Inactive)
REMARK    1  A    between atoms: O_2  and  C_3 
REMARK    2  A    between atoms: C_5  and  N_6 
REMARK    3  A    between atoms: N_6  and  C_7 
REMARK    4  A    between atoms: C_7  and  C_8 
ROOT
HETATM    1  N   UNL     1      41.437 -14.220   1.693  1.00  0.00    -0.372 N 
HETATM    2  H   UNL     1      40.867 -14.588   2.444  1.00  0.00     0.161 HD
ENDROOT
BRANCH   1   3
HETATM    3  C   UNL     1      40.869 -13.952   0.471  1.00  0.00     0.103 A 
HETATM    4  C   UNL     1      40.040 -14.827  -0.245  1.00  0.00     0.085 A 
HETATM    5  C   UNL     1      39.529 -14.453  -1.488  1.00  0.00     0.073 A 
HETATM    6  C   UNL     1      39.877 -13.220  -2.022  1.00  0.00     0.053 A 
HETATM    7  C   UNL     1      40.713 -12.389  -1.300  1.00  0.00     0.092 A 
HETATM    8  N   UNL     1      41.174 -12.775  -0.104  1.00  0.00    -0.352 N 
HETATM    9  H   UNL     1      41.795 -12.153   0.403  1.00  0.00     0.166 HD
BRANCH   5  10
HETATM   10  O   UNL     1      38.705 -15.199  -2.277  1.00  0.00    -0.356 OA
HETATM   11  C   UNL     1      38.180 -14.589  -3.452  1.00  0.00     0.210 C 
ENDBRANCH   5  10
ENDBRANCH   1   3
BRANCH   1  12
HETATM   12  C   UNL     1      42.859 -14.509   1.870  1.00  0.00     0.160 C 
BRANCH  12  13
HETATM   13  C   UNL     1      43.060 -15.693   2.785  1.00  0.00    -0.036 A 
HETATM   14  C   UNL     1      43.226 -16.995   2.252  1.00  0.00     0.031 A 
HETATM   15  C   UNL     1      43.422 -18.096   3.093  1.00  0.00     0.047 A 
HETATM   16 BR   UNL     1      43.656 -19.814   2.349  1.00  0.00    -0.048 Br
HETATM   17  C   UNL     1      43.440 -17.888   4.456  1.00  0.00     0.122 A 
HETATM   18  C   UNL     1      43.269 -16.627   4.978  1.00  0.00     0.107 A 
HETATM   19  O   UNL     1      43.616 -18.822   5.430  1.00  0.00    -0.322 OA
HETATM   20  O   UNL     1      43.314 -16.613   6.337  1.00  0.00    -0.323 OA
HETATM   21  C   UNL     1      43.076 -15.518   4.179  1.00  0.00     0.048 A 
HETATM   22  C   UNL     1      43.495 -18.017   6.621  1.00  0.00     0.352 A 
ENDBRANCH  12  13
ENDBRANCH   1  12
TORSDOF 4
ENDMDL
MODEL 3
REMARK VINA RESULT:      -7.1      2.016      2.575
REMARK  4 active torsions:
REMARK  status: ('A' for Active; 'I' for Inactive)
REMARK    1  A    between atoms: O_2  and  C_3 
REMARK    2  A    between atoms: C_5  and  N_6 
REMARK    3  A    between atoms: N_6  and  C_7 
REMARK    4  A    between atoms: C_7  and  C_8 
ROOT
HETATM    1  N   UNL     1      39.717 -15.475   0.966  1.00  0.00    -0.372 N 
HETATM    2  H   UNL     1      39.873 -16.475   0.945  1.00  0.00     0.161 HD
ENDROOT
BRANCH   1   3
HETATM    3  C   UNL     1      39.782 -14.748  -0.198  1.00  0.00     0.103 A 
HETATM    4  C   UNL     1      40.533 -13.578  -0.381  1.00  0.00     0.085 A 
HETATM    5  C   UNL     1      40.512 -12.912  -1.605  1.00  0.00     0.073 A 
HETATM    6  C   UNL     1      39.715 -13.403  -2.631  1.00  0.00     0.053 A 
HETATM    7  C   UNL     1      38.970 -14.546  -2.413  1.00  0.00     0.092 A 
HETATM    8  N   UNL     1      39.026 -15.167  -1.228  1.00  0.00    -0.352 N 
HETATM    9  H   UNL     1      38.462 -15.999  -1.087  1.00  0.00     0.166 HD
BRANCH   5  10
HETATM   10  O   UNL     1      41.203 -11.779  -1.918  1.00  0.00    -0.356 OA
HETATM   11  C   UNL     1      40.771 -11.030  -3.051  1.00  0.00     0.210 C 
ENDBRANCH   5  10
ENDBRANCH   1   3
BRANCH   1  12
HETATM   12  C   UNL     1      39.951 -14.895   2.287  1.00  0.00     0.160 C 
BRANCH  12  13
HETATM   13  C   UNL     1      40.974 -15.696   3.056  1.00  0.00    -0.036 A 
HETATM   14  C   UNL     1      41.111 -15.533   4.456  1.00  0.00     0.031 A 
HETATM   15  C   UNL     1      42.051 -16.278   5.177  1.00  0.00     0.047 A 
HETATM   16 BR   UNL     1      42.197 -16.048   7.044  1.00  0.00    -0.048 Br
HETATM   17  C   UNL     1      42.849 -17.170   4.492  1.00  0.00     0.122 A 
HETATM   18  C   UNL     1      42.725 -17.324   3.132  1.00  0.00     0.107 A 
HETATM   19  O   UNL     1      43.812 -17.980   5.010  1.00  0.00    -0.322 OA
HETATM   20  O   UNL     1      43.592 -18.244   2.629  1.00  0.00    -0.323 OA
HETATM   21  C   UNL     1      41.808 -16.609   2.389  1.00  0.00     0.048 A 
HETATM   22  C   UNL     1      44.309 -18.628   3.821  1.00  0.00     0.352 A 
ENDBRANCH  12  13
ENDBRANCH   1  12
TORSDOF 4
ENDMDL
MODEL 4
REMARK VINA RESULT:      -7.0      2.940      7.711
REMARK  4 active torsions:
REMARK  status: ('A' for Active; 'I' for Inactive)
REMARK    1  A    between atoms: O_2  and  C_3 
REMARK    2  A    between atoms: C_5  and  N_6 
REMARK    3  A    between atoms: N_6  and  C_7 
REMARK    4  A    between atoms: C_7  and  C_8 
ROOT
HETATM    1  N   UNL     1      42.599 -14.535   1.485  1.00  0.00    -0.372 N 
HETATM    2  H   UNL     1      43.000 -14.547   0.556  1.00  0.00     0.161 HD
ENDROOT
BRANCH   1   3
HETATM    3  C   UNL     1      42.970 -15.487   2.404  1.00  0.00     0.103 A 
HETATM    4  C   UNL     1      43.237 -16.832   2.112  1.00  0.00     0.085 A 
HETATM    5  C   UNL     1      43.592 -17.715   3.130  1.00  0.00     0.073 A 
HETATM    6  C   UNL     1      43.647 -17.256   4.439  1.00  0.00     0.053 A 
HETATM    7  C   UNL     1      43.358 -15.929   4.696  1.00  0.00     0.092 A 
HETATM    8  N   UNL     1      43.033 -15.106   3.691  1.00  0.00    -0.352 N 
HETATM    9  H   UNL     1      42.814 -14.139   3.906  1.00  0.00     0.166 HD
BRANCH   5  10
HETATM   10  O   UNL     1      43.890 -19.037   2.981  1.00  0.00    -0.356 OA
HETATM   11  C   UNL     1      43.132 -19.786   2.035  1.00  0.00     0.210 C 
ENDBRANCH   5  10
ENDBRANCH   1   3
BRANCH   1  12
HETATM   12  C   UNL     1      41.323 -13.822   1.539  1.00  0.00     0.160 C 
BRANCH  12  13
HETATM   13  C   UNL     1      40.710 -13.708   0.164  1.00  0.00    -0.036 A 
HETATM   14  C   UNL     1      40.918 -12.548  -0.621  1.00  0.00     0.031 A 
HETATM   15  C   UNL     1      40.362 -12.437  -1.900  1.00  0.00     0.047 A 
HETATM   16 BR   UNL     1      40.672 -10.884  -2.927  1.00  0.00    -0.048 Br
HETATM   17  C   UNL     1      39.596 -13.480  -2.378  1.00  0.00     0.122 A 
HETATM   18  C   UNL     1      39.384 -14.603  -1.614  1.00  0.00     0.107 A 
HETATM   19  O   UNL     1      38.975 -13.561  -3.586  1.00  0.00    -0.322 OA
HETATM   20  O   UNL     1      38.606 -15.524  -2.244  1.00  0.00    -0.323 OA
HETATM   21  C   UNL     1      39.919 -14.748  -0.350  1.00  0.00     0.048 A 
HETATM   22  C   UNL     1      38.315 -14.839  -3.481  1.00  0.00     0.352 A 
ENDBRANCH  12  13
ENDBRANCH   1  12
TORSDOF 4
ENDMDL
MODEL 5
REMARK VINA RESULT:      -7.0      2.516      3.530
REMARK  4 active torsions:
REMARK  status: ('A' for Active; 'I' for Inactive)
REMARK    1  A    between atoms: O_2  and  C_3 
REMARK    2  A    between atoms: C_5  and  N_6 
REMARK    3  A    between atoms: N_6  and  C_7 
REMARK    4  A    between atoms: C_7  and  C_8 
ROOT
HETATM    1  N   UNL     1      39.864 -14.448   1.052  1.00  0.00    -0.372 N 
HETATM    2  H   UNL     1      39.542 -13.736   1.695  1.00  0.00     0.161 HD
ENDROOT
BRANCH   1   3
HETATM    3  C   UNL     1      39.843 -14.208  -0.301  1.00  0.00     0.103 A 
HETATM    4  C   UNL     1      40.546 -13.184  -0.952  1.00  0.00     0.085 A 
HETATM    5  C   UNL     1      40.438 -13.025  -2.333  1.00  0.00     0.073 A 
HETATM    6  C   UNL     1      39.603 -13.871  -3.051  1.00  0.00     0.053 A 
HETATM    7  C   UNL     1      38.907 -14.856  -2.376  1.00  0.00     0.092 A 
HETATM    8  N   UNL     1      39.046 -14.988  -1.051  1.00  0.00    -0.352 N 
HETATM    9  H   UNL     1      38.517 -15.712  -0.576  1.00  0.00     0.166 HD
BRANCH   5  10
HETATM   10  O   UNL     1      41.075 -12.085  -3.087  1.00  0.00    -0.356 OA
HETATM   11  C   UNL     1      40.801 -10.715  -2.811  1.00  0.00     0.210 C 
ENDBRANCH   5  10
ENDBRANCH   1   3
BRANCH   1  12
HETATM   12  C   UNL     1      39.823 -15.790   1.629  1.00  0.00     0.160 C 
BRANCH  12  13
HETATM   13  C   UNL     1      40.957 -15.995   2.604  1.00  0.00    -0.036 A 
HETATM   14  C   UNL     1      41.850 -17.084   2.451  1.00  0.00     0.031 A 
HETATM   15  C   UNL     1      42.909 -17.275   3.344  1.00  0.00     0.047 A 
HETATM   16 BR   UNL     1      44.089 -18.727   3.102  1.00  0.00    -0.048 Br
HETATM   17  C   UNL     1      43.061 -16.384   4.385  1.00  0.00     0.122 A 
HETATM   18  C   UNL     1      42.192 -15.331   4.543  1.00  0.00     0.107 A 
HETATM   19  O   UNL     1      44.021 -16.399   5.350  1.00  0.00    -0.322 OA
HETATM   20  O   UNL     1      42.494 -14.560   5.621  1.00  0.00    -0.323 OA
HETATM   21  C   UNL     1      41.137 -15.110   3.680  1.00  0.00     0.048 A 
HETATM   22  C   UNL     1      43.634 -15.267   6.155  1.00  0.00     0.352 A 
ENDBRANCH  12  13
ENDBRANCH   1  12
TORSDOF 4
ENDMDL
MODEL 6
REMARK VINA RESULT:      -6.8      3.113      7.809
REMARK  4 active torsions:
REMARK  status: ('A' for Active; 'I' for Inactive)
REMARK    1  A    between atoms: O_2  and  C_3 
REMARK    2  A    between atoms: C_5  and  N_6 
REMARK    3  A    between atoms: N_6  and  C_7 
REMARK    4  A    between atoms: C_7  and  C_8 
ROOT
HETATM    1  N   UNL     1      40.978 -15.592   2.765  1.00  0.00    -0.372 N 
HETATM    2  H   UNL     1      40.952 -14.599   2.957  1.00  0.00     0.161 HD
ENDROOT
BRANCH   1   3
HETATM    3  C   UNL     1      42.022 -16.353   3.234  1.00  0.00     0.103 A 
HETATM    4  C   UNL     1      42.538 -17.495   2.604  1.00  0.00     0.085 A 
HETATM    5  C   UNL     1      43.594 -18.199   3.180  1.00  0.00     0.073 A 
HETATM    6  C   UNL     1      44.106 -17.777   4.400  1.00  0.00     0.053 A 
HETATM    7  C   UNL     1      43.562 -16.661   5.005  1.00  0.00     0.092 A 
HETATM    8  N   UNL     1      42.557 -16.001   4.416  1.00  0.00    -0.352 N 
HETATM    9  H   UNL     1      42.166 -15.190   4.884  1.00  0.00     0.166 HD
BRANCH   5  10
HETATM   10  O   UNL     1      44.195 -19.311   2.668  1.00  0.00    -0.356 OA
HETATM   11  C   UNL     1      43.369 -20.270   2.014  1.00  0.00     0.210 C 
ENDBRANCH   5  10
ENDBRANCH   1   3
BRANCH   1  12
HETATM   12  C   UNL     1      40.175 -15.963   1.601  1.00  0.00     0.160 C 
BRANCH  12  13
HETATM   13  C   UNL     1      40.158 -14.851   0.580  1.00  0.00    -0.036 A 
HETATM   14  C   UNL     1      39.511 -15.030  -0.667  1.00  0.00     0.031 A 
HETATM   15  C   UNL     1      39.483 -14.001  -1.615  1.00  0.00     0.047 A 
HETATM   16 BR   UNL     1      38.597 -14.266  -3.260  1.00  0.00    -0.048 Br
HETATM   17  C   UNL     1      40.108 -12.810  -1.313  1.00  0.00     0.122 A 
HETATM   18  C   UNL     1      40.746 -12.636  -0.108  1.00  0.00     0.107 A 
HETATM   19  O   UNL     1      40.190 -11.700  -2.095  1.00  0.00    -0.322 OA
HETATM   20  O   UNL     1      41.306 -11.403   0.015  1.00  0.00    -0.323 OA
HETATM   21  C   UNL     1      40.792 -13.628   0.852  1.00  0.00     0.048 A 
HETATM   22  C   UNL     1      40.984 -10.826  -1.268  1.00  0.00     0.352 A 
ENDBRANCH  12  13
ENDBRANCH   1  12
TORSDOF 4
ENDMDL
MODEL 7
REMARK VINA RESULT:      -6.6      2.685      3.461
REMARK  4 active torsions:
REMARK  status: ('A' for Active; 'I' for Inactive)
REMARK    1  A    between atoms: O_2  and  C_3 
REMARK    2  A    between atoms: C_5  and  N_6 
REMARK    3  A    between atoms: N_6  and  C_7 
REMARK    4  A    between atoms: C_7  and  C_8 
ROOT
HETATM    1  N   UNL     1      43.290 -14.713   1.971  1.00  0.00    -0.372 N 
HETATM    2  H   UNL     1      44.232 -14.486   2.264  1.00  0.00     0.161 HD
ENDROOT
BRANCH   1   3
HETATM    3  C   UNL     1      42.233 -13.956   2.416  1.00  0.00     0.103 A 
HETATM    4  C   UNL     1      42.332 -12.864   3.290  1.00  0.00     0.085 A 
HETATM    5  C   UNL     1      41.187 -12.175   3.687  1.00  0.00     0.073 A 
HETATM    6  C   UNL     1      39.946 -12.602   3.234  1.00  0.00     0.053 A 
HETATM    7  C   UNL     1      39.881 -13.695   2.390  1.00  0.00     0.092 A 
HETATM    8  N   UNL     1      41.003 -14.324   2.019  1.00  0.00    -0.352 N 
HETATM    9  H   UNL     1      40.930 -15.130   1.407  1.00  0.00     0.166 HD
BRANCH   5  10
HETATM   10  O   UNL     1      41.145 -11.094   4.516  1.00  0.00    -0.356 OA
HETATM   11  C   UNL     1      42.083 -10.045   4.288  1.00  0.00     0.210 C 
ENDBRANCH   5  10
ENDBRANCH   1   3
BRANCH   1  12
HETATM   12  C   UNL     1      43.153 -16.102   1.536  1.00  0.00     0.160 C 
BRANCH  12  13
HETATM   13  C   UNL     1      43.406 -17.054   2.681  1.00  0.00    -0.036 A 
HETATM   14  C   UNL     1      43.575 -16.564   3.999  1.00  0.00     0.031 A 
HETATM   15  C   UNL     1      43.800 -17.440   5.067  1.00  0.00     0.047 A 
HETATM   16 BR   UNL     1      44.005 -16.755   6.813  1.00  0.00    -0.048 Br
HETATM   17  C   UNL     1      43.864 -18.792   4.807  1.00  0.00     0.122 A 
HETATM   18  C   UNL     1      43.711 -19.271   3.528  1.00  0.00     0.107 A 
HETATM   19  O   UNL     1      44.073 -19.795   5.703  1.00  0.00    -0.322 OA
HETATM   20  O   UNL     1      43.805 -20.626   3.461  1.00  0.00    -0.323 OA
HETATM   21  C   UNL     1      43.485 -18.437   2.450  1.00  0.00     0.048 A 
HETATM   22  C   UNL     1      44.076 -20.951   4.841  1.00  0.00     0.352 A 
ENDBRANCH  12  13
ENDBRANCH   1  12
TORSDOF 4
ENDMDL
MODEL 8
REMARK VINA RESULT:      -6.6     13.441     15.293
REMARK  4 active torsions:
REMARK  status: ('A' for Active; 'I' for Inactive)
REMARK    1  A    between atoms: O_2  and  C_3 
REMARK    2  A    between atoms: C_5  and  N_6 
REMARK    3  A    between atoms: N_6  and  C_7 
REMARK    4  A    between atoms: C_7  and  C_8 
ROOT
HETATM    1  N   UNL     1      44.259 -28.863  -3.213  1.00  0.00    -0.372 N 
HETATM    2  H   UNL     1      43.633 -28.714  -2.431  1.00  0.00     0.161 HD
ENDROOT
BRANCH   1   3
HETATM    3  C   UNL     1      44.219 -30.049  -3.905  1.00  0.00     0.103 A 
HETATM    4  C   UNL     1      43.928 -30.180  -5.270  1.00  0.00     0.085 A 
HETATM    5  C   UNL     1      43.902 -31.441  -5.866  1.00  0.00     0.073 A 
HETATM    6  C   UNL     1      44.135 -32.565  -5.086  1.00  0.00     0.053 A 
HETATM    7  C   UNL     1      44.399 -32.404  -3.739  1.00  0.00     0.092 A 
HETATM    8  N   UNL     1      44.429 -31.177  -3.204  1.00  0.00    -0.352 N 
HETATM    9  H   UNL     1      44.614 -31.084  -2.210  1.00  0.00     0.166 HD
BRANCH   5  10
HETATM   10  O   UNL     1      43.648 -31.706  -7.179  1.00  0.00    -0.356 OA
HETATM   11  C   UNL     1      44.758 -31.778  -8.068  1.00  0.00     0.210 C 
ENDBRANCH   5  10
ENDBRANCH   1   3
BRANCH   1  12
HETATM   12  C   UNL     1      45.440 -28.004  -3.162  1.00  0.00     0.160 C 
BRANCH  12  13
HETATM   13  C   UNL     1      46.303 -28.342  -1.969  1.00  0.00    -0.036 A 
HETATM   14  C   UNL     1      47.529 -29.029  -2.141  1.00  0.00     0.031 A 
HETATM   15  C   UNL     1      48.339 -29.338  -1.042  1.00  0.00     0.047 A 
HETATM   16 BR   UNL     1      49.975 -30.239  -1.308  1.00  0.00    -0.048 Br
HETATM   17  C   UNL     1      47.912 -28.968   0.215  1.00  0.00     0.122 A 
HETATM   18  C   UNL     1      46.717 -28.310   0.387  1.00  0.00     0.107 A 
HETATM   19  O   UNL     1      48.552 -29.175   1.398  1.00  0.00    -0.322 OA
HETATM   20  O   UNL     1      46.458 -28.026   1.691  1.00  0.00    -0.323 OA
HETATM   21  C   UNL     1      45.894 -27.986  -0.674  1.00  0.00     0.048 A 
HETATM   22  C   UNL     1      47.609 -28.615   2.334  1.00  0.00     0.352 A 
ENDBRANCH  12  13
ENDBRANCH   1  12
TORSDOF 4
ENDMDL
MODEL 9
REMARK VINA RESULT:      -6.4      2.257      2.845
REMARK  4 active torsions:
REMARK  status: ('A' for Active; 'I' for Inactive)
REMARK    1  A    between atoms: O_2  and  C_3 
REMARK    2  A    between atoms: C_5  and  N_6 
REMARK    3  A    between atoms: N_6  and  C_7 
REMARK    4  A    between atoms: C_7  and  C_8 
ROOT
HETATM    1  N   UNL     1      42.434 -13.694   2.491  1.00  0.00    -0.372 N 
HETATM    2  H   UNL     1      42.739 -13.614   3.453  1.00  0.00     0.161 HD
ENDROOT
BRANCH   1   3
HETATM    3  C   UNL     1      41.232 -13.149   2.108  1.00  0.00     0.103 A 
HETATM    4  C   UNL     1      40.918 -12.713   0.813  1.00  0.00     0.085 A 
HETATM    5  C   UNL     1      39.667 -12.160   0.540  1.00  0.00     0.073 A 
HETATM    6  C   UNL     1      38.749 -12.018   1.572  1.00  0.00     0.053 A 
HETATM    7  C   UNL     1      39.096 -12.438   2.841  1.00  0.00     0.092 A 
HETATM    8  N   UNL     1      40.302 -12.976   3.063  1.00  0.00    -0.352 N 
HETATM    9  H   UNL     1      40.539 -13.268   4.006  1.00  0.00     0.166 HD
BRANCH   5  10
HETATM   10  O   UNL     1      39.231 -11.712  -0.671  1.00  0.00    -0.356 OA
HETATM   11  C   UNL     1      37.908 -12.059  -1.070  1.00  0.00     0.210 C 
ENDBRANCH   5  10
ENDBRANCH   1   3
BRANCH   1  12
HETATM   12  C   UNL     1      43.071 -14.804   1.786  1.00  0.00     0.160 C 
BRANCH  12  13
HETATM   13  C   UNL     1      43.221 -16.004   2.691  1.00  0.00    -0.036 A 
HETATM   14  C   UNL     1      43.335 -17.305   2.145  1.00  0.00     0.031 A 
HETATM   15  C   UNL     1      43.483 -18.422   2.976  1.00  0.00     0.047 A 
HETATM   16 BR   UNL     1      43.648 -20.141   2.216  1.00  0.00    -0.048 Br
HETATM   17  C   UNL     1      43.506 -18.228   4.341  1.00  0.00     0.122 A 
HETATM   18  C   UNL     1      43.386 -16.967   4.874  1.00  0.00     0.107 A 
HETATM   19  O   UNL     1      43.642 -19.178   5.306  1.00  0.00    -0.322 OA
HETATM   20  O   UNL     1      43.429 -16.968   6.234  1.00  0.00    -0.323 OA
HETATM   21  C   UNL     1      43.241 -15.843   4.086  1.00  0.00     0.048 A 
HETATM   22  C   UNL     1      43.551 -18.380   6.504  1.00  0.00     0.352 A 
ENDBRANCH  12  13
ENDBRANCH   1  12
TORSDOF 4
ENDMDL
MODEL 10
REMARK VINA RESULT:      -6.3      2.339      3.117
REMARK  4 active torsions:
REMARK  status: ('A' for Active; 'I' for Inactive)
REMARK    1  A    between atoms: O_2  and  C_3 
REMARK    2  A    between atoms: C_5  and  N_6 
REMARK    3  A    between atoms: N_6  and  C_7 
REMARK    4  A    between atoms: C_7  and  C_8 
ROOT
HETATM    1  N   UNL     1      39.525 -14.407   2.501  1.00  0.00    -0.372 N 
HETATM    2  H   UNL     1      39.443 -15.414   2.549  1.00  0.00     0.161 HD
ENDROOT
BRANCH   1   3
HETATM    3  C   UNL     1      39.361 -13.763   1.298  1.00  0.00     0.103 A 
HETATM    4  C   UNL     1      39.696 -14.294   0.045  1.00  0.00     0.085 A 
HETATM    5  C   UNL     1      39.498 -13.543  -1.113  1.00  0.00     0.073 A 
HETATM    6  C   UNL     1      38.997 -12.252  -1.008  1.00  0.00     0.053 A 
HETATM    7  C   UNL     1      38.696 -11.751   0.244  1.00  0.00     0.092 A 
HETATM    8  N   UNL     1      38.886 -12.506   1.333  1.00  0.00    -0.352 N 
HETATM    9  H   UNL     1      38.668 -12.112   2.243  1.00  0.00     0.166 HD
BRANCH   5  10
HETATM   10  O   UNL     1      39.767 -13.943  -2.388  1.00  0.00    -0.356 OA
HETATM   11  C   UNL     1      38.976 -14.995  -2.935  1.00  0.00     0.210 C 
ENDBRANCH   5  10
ENDBRANCH   1   3
BRANCH   1  12
HETATM   12  C   UNL     1      40.298 -13.849   3.609  1.00  0.00     0.160 C 
BRANCH  12  13
HETATM   13  C   UNL     1      41.415 -14.782   4.011  1.00  0.00    -0.036 A 
HETATM   14  C   UNL     1      41.728 -15.913   3.218  1.00  0.00     0.031 A 
HETATM   15  C   UNL     1      42.767 -16.777   3.579  1.00  0.00     0.047 A 
HETATM   16 BR   UNL     1      43.168 -18.266   2.491  1.00  0.00    -0.048 Br
HETATM   17  C   UNL     1      43.477 -16.510   4.730  1.00  0.00     0.122 A 
HETATM   18  C   UNL     1      43.170 -15.418   5.508  1.00  0.00     0.107 A 
HETATM   19  O   UNL     1      44.515 -17.224   5.244  1.00  0.00    -0.322 OA
HETATM   20  O   UNL     1      43.971 -15.313   6.602  1.00  0.00    -0.323 OA
HETATM   21  C   UNL     1      42.153 -14.543   5.182  1.00  0.00     0.048 A 
HETATM   22  C   UNL     1      44.798 -16.487   6.451  1.00  0.00     0.352 A 
ENDBRANCH  12  13
ENDBRANCH   1  12
TORSDOF 4
ENDMDL
