MODEL 1
REMARK VINA RESULT:      -8.5      0.000      0.000
REMARK  6 active torsions:
REMARK  status: ('A' for Active; 'I' for Inactive)
REMARK    1  A    between atoms: C_3  and  C_4 
REMARK    2  A    between atoms: C_4  and  N_5 
REMARK    3  A    between atoms: N_5  and  C_8 
REMARK    4  A    between atoms: C_8  and  C_9 
REMARK    5  A    between atoms: N_12  and  C_13 
REMARK    6  A    between atoms: C_28  and  O_29 
ROOT
HETATM    1  N   UNL     1      41.749 -13.031   4.995  1.00  0.00    -0.062 N 
HETATM    2  H   UNL     1      41.910 -13.612   5.826  1.00  0.00     0.278 HD
HETATM    3  H   UNL     1      41.875 -12.066   5.318  1.00  0.00     0.278 HD
ENDROOT
BRANCH   1   4
HETATM    4  C   UNL     1      42.837 -13.335   4.030  1.00  0.00     0.290 C 
BRANCH   4   5
HETATM    5  C   UNL     1      43.119 -14.789   4.039  1.00  0.00     0.042 A 
HETATM    6  C   UNL     1      43.272 -15.698   2.999  1.00  0.00    -0.025 A 
HETATM    7  C   UNL     1      43.193 -15.445   1.531  1.00  0.00     0.051 C 
HETATM    8  C   UNL     1      43.497 -16.982   3.593  1.00  0.00     0.001 A 
HETATM    9  C   UNL     1      43.466 -16.819   4.973  1.00  0.00     0.043 A 
HETATM   10  C   UNL     1      43.706 -18.277   3.076  1.00  0.00     0.051 A 
HETATM   11  N   UNL     1      43.231 -15.490   5.221  1.00  0.00    -0.357 N 
HETATM   12  C   UNL     1      43.638 -17.885   5.864  1.00  0.00     0.033 A 
HETATM   13  H   UNL     1      43.130 -15.113   6.156  1.00  0.00     0.166 HD
HETATM   14  C   UNL     1      43.835 -19.162   5.324  1.00  0.00     0.039 A 
HETATM   15  C   UNL     1      43.862 -19.365   3.946  1.00  0.00     0.069 A 
BRANCH  15  16
HETATM   16  O   UNL     1      44.038 -20.567   3.316  1.00  0.00    -0.356 OA
HETATM   17  C   UNL     1      43.759 -20.610   1.921  1.00  0.00     0.210 C 
ENDBRANCH  15  16
ENDBRANCH   4   5
ENDBRANCH   1   4
BRANCH   1  18
HETATM   18  C   UNL     1      40.332 -13.234   4.553  1.00  0.00     0.218 C 
HETATM   19  C   UNL     1      39.369 -12.558   5.523  1.00  0.00     0.045 C 
BRANCH  18  20
HETATM   20  C   UNL     1      40.147 -12.861   3.118  1.00  0.00     0.015 C 
HETATM   21  C   UNL     1      39.860 -13.696   2.038  1.00  0.00     0.042 C 
HETATM   22  C   UNL     1      39.694 -15.176   2.024  1.00  0.00     0.071 C 
HETATM   23  N   UNL     1      39.794 -12.878   0.902  1.00  0.00    -0.238 N 
HETATM   24  N   UNL     1      40.194 -11.617   1.218  1.00  0.00    -0.179 NA
HETATM   25  C   UNL     1      40.283 -11.587   2.538  1.00  0.00     0.150 C 
BRANCH  23  26
HETATM   26  C   UNL     1      39.427 -13.168  -0.446  1.00  0.00     0.058 A 
HETATM   27  C   UNL     1      40.224 -13.947  -1.294  1.00  0.00     0.031 A 
HETATM   28  C   UNL     1      39.817 -14.200  -2.609  1.00  0.00     0.002 A 
HETATM   29  C   UNL     1      38.614 -13.687  -3.086  1.00  0.00     0.000 A 
HETATM   30  C   UNL     1      37.802 -12.932  -2.247  1.00  0.00     0.002 A 
HETATM   31  C   UNL     1      38.199 -12.682  -0.931  1.00  0.00     0.031 A 
ENDBRANCH  23  26
ENDBRANCH  18  20
ENDBRANCH   1  18
TORSDOF 6
ENDMDL
MODEL 2
REMARK VINA RESULT:      -8.5      2.303      7.157
REMARK  6 active torsions:
REMARK  status: ('A' for Active; 'I' for Inactive)
REMARK    1  A    between atoms: C_3  and  C_4 
REMARK    2  A    between atoms: C_4  and  N_5 
REMARK    3  A    between atoms: N_5  and  C_8 
REMARK    4  A    between atoms: C_8  and  C_9 
REMARK    5  A    between atoms: N_12  and  C_13 
REMARK    6  A    between atoms: C_28  and  O_29 
ROOT
HETATM    1  N   UNL     1      42.514 -12.081   3.434  1.00  0.00    -0.062 N 
HETATM    2  H   UNL     1      43.016 -12.396   2.595  1.00  0.00     0.278 HD
HETATM    3  H   UNL     1      43.074 -11.306   3.803  1.00  0.00     0.278 HD
ENDROOT
BRANCH   1   4
HETATM    4  C   UNL     1      41.211 -11.528   2.983  1.00  0.00     0.290 C 
BRANCH   4   5
HETATM    5  C   UNL     1      40.883 -12.058   1.639  1.00  0.00     0.042 A 
HETATM    6  C   UNL     1      40.187 -13.197   1.249  1.00  0.00    -0.025 A 
HETATM    7  C   UNL     1      39.555 -14.234   2.114  1.00  0.00     0.051 C 
HETATM    8  C   UNL     1      40.204 -13.230  -0.182  1.00  0.00     0.001 A 
HETATM    9  C   UNL     1      40.915 -12.118  -0.621  1.00  0.00     0.043 A 
HETATM   10  C   UNL     1      39.693 -14.121  -1.148  1.00  0.00     0.051 A 
HETATM   11  N   UNL     1      41.320 -11.428   0.493  1.00  0.00    -0.357 N 
HETATM   12  C   UNL     1      41.137 -11.850  -1.977  1.00  0.00     0.033 A 
HETATM   13  H   UNL     1      41.887 -10.590   0.447  1.00  0.00     0.166 HD
HETATM   14  C   UNL     1      40.624 -12.756  -2.915  1.00  0.00     0.039 A 
HETATM   15  C   UNL     1      39.916 -13.887  -2.511  1.00  0.00     0.069 A 
BRANCH  15  16
HETATM   16  O   UNL     1      39.384 -14.837  -3.340  1.00  0.00    -0.356 OA
HETATM   17  C   UNL     1      38.007 -14.701  -3.673  1.00  0.00     0.210 C 
ENDBRANCH  15  16
ENDBRANCH   4   5
ENDBRANCH   1   4
BRANCH   1  18
HETATM   18  C   UNL     1      42.501 -13.210   4.419  1.00  0.00     0.218 C 
HETATM   19  C   UNL     1      41.194 -13.218   5.205  1.00  0.00     0.045 C 
BRANCH  18  20
HETATM   20  C   UNL     1      42.854 -14.508   3.769  1.00  0.00     0.015 C 
HETATM   21  C   UNL     1      43.019 -15.758   4.366  1.00  0.00     0.042 C 
HETATM   22  C   UNL     1      42.918 -16.121   5.807  1.00  0.00     0.071 C 
HETATM   23  N   UNL     1      43.357 -16.653   3.342  1.00  0.00    -0.238 N 
HETATM   24  N   UNL     1      43.568 -15.971   2.184  1.00  0.00    -0.179 NA
HETATM   25  C   UNL     1      43.157 -14.735   2.414  1.00  0.00     0.150 C 
BRANCH  23  26
HETATM   26  C   UNL     1      43.530 -18.070   3.350  1.00  0.00     0.058 A 
HETATM   27  C   UNL     1      44.054 -18.759   4.450  1.00  0.00     0.031 A 
HETATM   28  C   UNL     1      44.204 -20.150   4.405  1.00  0.00     0.002 A 
HETATM   29  C   UNL     1      43.827 -20.864   3.271  1.00  0.00     0.000 A 
HETATM   30  C   UNL     1      43.283 -20.193   2.181  1.00  0.00     0.002 A 
HETATM   31  C   UNL     1      43.124 -18.806   2.223  1.00  0.00     0.031 A 
ENDBRANCH  23  26
ENDBRANCH  18  20
ENDBRANCH   1  18
TORSDOF 6
ENDMDL
MODEL 3
REMARK VINA RESULT:      -8.2      2.596      7.236
REMARK  6 active torsions:
REMARK  status: ('A' for Active; 'I' for Inactive)
REMARK    1  A    between atoms: C_3  and  C_4 
REMARK    2  A    between atoms: C_4  and  N_5 
REMARK    3  A    between atoms: N_5  and  C_8 
REMARK    4  A    between atoms: C_8  and  C_9 
REMARK    5  A    between atoms: N_12  and  C_13 
REMARK    6  A    between atoms: C_28  and  O_29 
ROOT
HETATM    1  N   UNL     1      40.194 -13.630   4.532  1.00  0.00    -0.062 N 
HETATM    2  H   UNL     1      39.944 -13.548   5.525  1.00  0.00     0.278 HD
HETATM    3  H   UNL     1      39.931 -14.586   4.271  1.00  0.00     0.278 HD
ENDROOT
BRANCH   1   4
HETATM    4  C   UNL     1      39.320 -12.694   3.780  1.00  0.00     0.290 C 
BRANCH   4   5
HETATM    5  C   UNL     1      39.686 -12.714   2.345  1.00  0.00     0.042 A 
HETATM    6  C   UNL     1      40.357 -11.785   1.558  1.00  0.00    -0.025 A 
HETATM    7  C   UNL     1      40.914 -10.462   1.964  1.00  0.00     0.051 C 
HETATM    8  C   UNL     1      40.400 -12.312   0.228  1.00  0.00     0.001 A 
HETATM    9  C   UNL     1      39.748 -13.541   0.241  1.00  0.00     0.043 A 
HETATM   10  C   UNL     1      40.921 -11.844  -0.995  1.00  0.00     0.051 A 
HETATM   11  N   UNL     1      39.320 -13.761   1.526  1.00  0.00    -0.357 N 
HETATM   12  C   UNL     1      39.594 -14.327  -0.907  1.00  0.00     0.033 A 
HETATM   13  H   UNL     1      38.786 -14.578   1.797  1.00  0.00     0.166 HD
HETATM   14  C   UNL     1      40.114 -13.834  -2.111  1.00  0.00     0.039 A 
HETATM   15  C   UNL     1      40.764 -12.602  -2.164  1.00  0.00     0.069 A 
BRANCH  15  16
HETATM   16  O   UNL     1      41.298 -12.025  -3.284  1.00  0.00    -0.356 OA
HETATM   17  C   UNL     1      40.837 -10.721  -3.617  1.00  0.00     0.210 C 
ENDBRANCH  15  16
ENDBRANCH   4   5
ENDBRANCH   1   4
BRANCH   1  18
HETATM   18  C   UNL     1      41.679 -13.465   4.411  1.00  0.00     0.218 C 
HETATM   19  C   UNL     1      42.275 -13.012   5.740  1.00  0.00     0.045 C 
BRANCH  18  20
HETATM   20  C   UNL     1      42.318 -14.676   3.813  1.00  0.00     0.015 C 
HETATM   21  C   UNL     1      42.404 -15.962   4.347  1.00  0.00     0.042 C 
HETATM   22  C   UNL     1      41.912 -16.457   5.663  1.00  0.00     0.071 C 
HETATM   23  N   UNL     1      43.104 -16.740   3.416  1.00  0.00    -0.238 N 
HETATM   24  N   UNL     1      43.590 -15.946   2.424  1.00  0.00    -0.179 NA
HETATM   25  C   UNL     1      43.026 -14.762   2.601  1.00  0.00     0.150 C 
BRANCH  23  26
HETATM   26  C   UNL     1      43.387 -18.138   3.382  1.00  0.00     0.058 A 
HETATM   27  C   UNL     1      43.932 -18.824   4.473  1.00  0.00     0.031 A 
HETATM   28  C   UNL     1      44.192 -20.197   4.386  1.00  0.00     0.002 A 
HETATM   29  C   UNL     1      43.904 -20.896   3.217  1.00  0.00     0.000 A 
HETATM   30  C   UNL     1      43.341 -20.230   2.133  1.00  0.00     0.002 A 
HETATM   31  C   UNL     1      43.073 -18.862   2.217  1.00  0.00     0.031 A 
ENDBRANCH  23  26
ENDBRANCH  18  20
ENDBRANCH   1  18
TORSDOF 6
ENDMDL
MODEL 4
REMARK VINA RESULT:      -8.2      4.023      7.526
REMARK  6 active torsions:
REMARK  status: ('A' for Active; 'I' for Inactive)
REMARK    1  A    between atoms: C_3  and  C_4 
REMARK    2  A    between atoms: C_4  and  N_5 
REMARK    3  A    between atoms: N_5  and  C_8 
REMARK    4  A    between atoms: C_8  and  C_9 
REMARK    5  A    between atoms: N_12  and  C_13 
REMARK    6  A    between atoms: C_28  and  O_29 
ROOT
HETATM    1  N   UNL     1      41.537 -12.408   4.730  1.00  0.00    -0.062 N 
HETATM    2  H   UNL     1      41.266 -12.456   3.740  1.00  0.00     0.278 HD
HETATM    3  H   UNL     1      41.109 -11.545   5.080  1.00  0.00     0.278 HD
ENDROOT
BRANCH   1   4
HETATM    4  C   UNL     1      40.885 -13.552   5.419  1.00  0.00     0.290 C 
BRANCH   4   5
HETATM    5  C   UNL     1      41.585 -14.809   5.068  1.00  0.00     0.042 A 
HETATM    6  C   UNL     1      42.262 -15.732   5.858  1.00  0.00    -0.025 A 
HETATM    7  C   UNL     1      42.473 -15.704   7.334  1.00  0.00     0.051 C 
HETATM    8  C   UNL     1      42.774 -16.741   4.981  1.00  0.00     0.001 A 
HETATM    9  C   UNL     1      42.403 -16.401   3.685  1.00  0.00     0.043 A 
HETATM   10  C   UNL     1      43.540 -17.909   5.173  1.00  0.00     0.051 A 
HETATM   11  N   UNL     1      41.692 -15.229   3.759  1.00  0.00    -0.357 N 
HETATM   12  C   UNL     1      42.756 -17.172   2.571  1.00  0.00     0.033 A 
HETATM   13  H   UNL     1      41.333 -14.750   2.942  1.00  0.00     0.166 HD
HETATM   14  C   UNL     1      43.524 -18.322   2.789  1.00  0.00     0.039 A 
HETATM   15  C   UNL     1      43.923 -18.689   4.073  1.00  0.00     0.069 A 
BRANCH  15  16
HETATM   16  O   UNL     1      44.680 -19.782   4.395  1.00  0.00    -0.356 OA
HETATM   17  C   UNL     1      44.127 -20.691   5.341  1.00  0.00     0.210 C 
ENDBRANCH  15  16
ENDBRANCH   4   5
ENDBRANCH   1   4
BRANCH   1  18
HETATM   18  C   UNL     1      43.029 -12.297   4.798  1.00  0.00     0.218 C 
HETATM   19  C   UNL     1      43.559 -11.498   3.612  1.00  0.00     0.045 C 
BRANCH  18  20
HETATM   20  C   UNL     1      43.482 -11.813   6.137  1.00  0.00     0.015 C 
HETATM   21  C   UNL     1      43.002 -10.730   6.873  1.00  0.00     0.042 C 
HETATM   22  C   UNL     1      41.937  -9.755   6.506  1.00  0.00     0.071 C 
HETATM   23  N   UNL     1      43.754 -10.680   8.054  1.00  0.00    -0.238 N 
HETATM   24  N   UNL     1      44.774 -11.576   7.990  1.00  0.00    -0.179 NA
HETATM   25  C   UNL     1      44.538 -12.316   6.919  1.00  0.00     0.150 C 
BRANCH  23  26
HETATM   26  C   UNL     1      43.629  -9.859   9.215  1.00  0.00     0.058 A 
HETATM   27  C   UNL     1      43.474  -8.469   9.143  1.00  0.00     0.031 A 
HETATM   28  C   UNL     1      43.357  -7.711  10.313  1.00  0.00     0.002 A 
HETATM   29  C   UNL     1      43.385  -8.329  11.560  1.00  0.00     0.000 A 
HETATM   30  C   UNL     1      43.514  -9.711  11.645  1.00  0.00     0.002 A 
HETATM   31  C   UNL     1      43.624 -10.474  10.480  1.00  0.00     0.031 A 
ENDBRANCH  23  26
ENDBRANCH  18  20
ENDBRANCH   1  18
TORSDOF 6
ENDMDL
MODEL 5
REMARK VINA RESULT:      -8.1      1.216      2.021
REMARK  6 active torsions:
REMARK  status: ('A' for Active; 'I' for Inactive)
REMARK    1  A    between atoms: C_3  and  C_4 
REMARK    2  A    between atoms: C_4  and  N_5 
REMARK    3  A    between atoms: N_5  and  C_8 
REMARK    4  A    between atoms: C_8  and  C_9 
REMARK    5  A    between atoms: N_12  and  C_13 
REMARK    6  A    between atoms: C_28  and  O_29 
ROOT
HETATM    1  N   UNL     1      42.825 -12.562   4.226  1.00  0.00    -0.062 N 
HETATM    2  H   UNL     1      43.595 -11.888   4.319  1.00  0.00     0.278 HD
HETATM    3  H   UNL     1      43.064 -13.124   3.401  1.00  0.00     0.278 HD
ENDROOT
BRANCH   1   4
HETATM    4  C   UNL     1      42.875 -13.452   5.414  1.00  0.00     0.290 C 
BRANCH   4   5
HETATM    5  C   UNL     1      43.061 -14.855   4.979  1.00  0.00     0.042 A 
HETATM    6  C   UNL     1      43.454 -15.988   5.683  1.00  0.00    -0.025 A 
HETATM    7  C   UNL     1      43.808 -16.101   7.127  1.00  0.00     0.051 C 
HETATM    8  C   UNL     1      43.498 -17.070   4.747  1.00  0.00     0.001 A 
HETATM    9  C   UNL     1      43.139 -16.566   3.502  1.00  0.00     0.043 A 
HETATM   10  C   UNL     1      43.830 -18.437   4.844  1.00  0.00     0.051 A 
HETATM   11  N   UNL     1      42.885 -15.227   3.663  1.00  0.00    -0.357 N 
HETATM   12  C   UNL     1      43.092 -17.359   2.350  1.00  0.00     0.033 A 
HETATM   13  H   UNL     1      42.633 -14.617   2.894  1.00  0.00     0.166 HD
HETATM   14  C   UNL     1      43.435 -18.712   2.473  1.00  0.00     0.039 A 
HETATM   15  C   UNL     1      43.810 -19.250   3.703  1.00  0.00     0.069 A 
BRANCH  15  16
HETATM   16  O   UNL     1      44.172 -20.550   3.931  1.00  0.00    -0.356 OA
HETATM   17  C   UNL     1      44.284 -20.957   5.291  1.00  0.00     0.210 C 
ENDBRANCH  15  16
ENDBRANCH   4   5
ENDBRANCH   1   4
BRANCH   1  18
HETATM   18  C   UNL     1      41.565 -11.796   3.966  1.00  0.00     0.218 C 
HETATM   19  C   UNL     1      41.664 -10.391   4.553  1.00  0.00     0.045 C 
BRANCH  18  20
HETATM   20  C   UNL     1      41.177 -11.850   2.524  1.00  0.00     0.015 C 
HETATM   21  C   UNL     1      40.394 -12.805   1.875  1.00  0.00     0.042 C 
HETATM   22  C   UNL     1      39.766 -14.032   2.438  1.00  0.00     0.071 C 
HETATM   23  N   UNL     1      40.328 -12.424   0.528  1.00  0.00    -0.238 N 
HETATM   24  N   UNL     1      41.172 -11.382   0.301  1.00  0.00    -0.179 NA
HETATM   25  C   UNL     1      41.573 -10.977   1.496  1.00  0.00     0.150 C 
BRANCH  23  26
HETATM   26  C   UNL     1      39.582 -12.958  -0.566  1.00  0.00     0.058 A 
HETATM   27  C   UNL     1      39.977 -14.110  -1.257  1.00  0.00     0.031 A 
HETATM   28  C   UNL     1      39.209 -14.591  -2.323  1.00  0.00     0.002 A 
HETATM   29  C   UNL     1      38.041 -13.934  -2.704  1.00  0.00     0.000 A 
HETATM   30  C   UNL     1      37.626 -12.803  -2.010  1.00  0.00     0.002 A 
HETATM   31  C   UNL     1      38.384 -12.323  -0.940  1.00  0.00     0.031 A 
ENDBRANCH  23  26
ENDBRANCH  18  20
ENDBRANCH   1  18
TORSDOF 6
ENDMDL
MODEL 6
REMARK VINA RESULT:      -8.0      3.621      6.814
REMARK  6 active torsions:
REMARK  status: ('A' for Active; 'I' for Inactive)
REMARK    1  A    between atoms: C_3  and  C_4 
REMARK    2  A    between atoms: C_4  and  N_5 
REMARK    3  A    between atoms: N_5  and  C_8 
REMARK    4  A    between atoms: C_8  and  C_9 
REMARK    5  A    between atoms: N_12  and  C_13 
REMARK    6  A    between atoms: C_28  and  O_29 
ROOT
HETATM    1  N   UNL     1      40.826 -12.751   3.989  1.00  0.00    -0.062 N 
HETATM    2  H   UNL     1      40.635 -13.071   3.032  1.00  0.00     0.278 HD
HETATM    3  H   UNL     1      40.120 -12.032   4.174  1.00  0.00     0.278 HD
ENDROOT
BRANCH   1   4
HETATM    4  C   UNL     1      40.560 -13.897   4.897  1.00  0.00     0.290 C 
BRANCH   4   5
HETATM    5  C   UNL     1      41.409 -15.047   4.510  1.00  0.00     0.042 A 
HETATM    6  C   UNL     1      41.402 -15.850   3.375  1.00  0.00    -0.025 A 
HETATM    7  C   UNL     1      40.499 -15.766   2.191  1.00  0.00     0.051 C 
HETATM    8  C   UNL     1      42.425 -16.835   3.550  1.00  0.00     0.001 A 
HETATM    9  C   UNL     1      43.020 -16.609   4.787  1.00  0.00     0.043 A 
HETATM   10  C   UNL     1      42.889 -17.916   2.772  1.00  0.00     0.051 A 
HETATM   11  N   UNL     1      42.389 -15.530   5.352  1.00  0.00    -0.357 N 
HETATM   12  C   UNL     1      44.058 -17.408   5.283  1.00  0.00     0.033 A 
HETATM   13  H   UNL     1      42.615 -15.180   6.275  1.00  0.00     0.166 HD
HETATM   14  C   UNL     1      44.493 -18.479   4.493  1.00  0.00     0.039 A 
HETATM   15  C   UNL     1      43.914 -18.742   3.253  1.00  0.00     0.069 A 
BRANCH  15  16
HETATM   16  O   UNL     1      44.255 -19.764   2.410  1.00  0.00    -0.356 OA
HETATM   17  C   UNL     1      43.202 -20.355   1.657  1.00  0.00     0.210 C 
ENDBRANCH  15  16
ENDBRANCH   4   5
ENDBRANCH   1   4
BRANCH   1  18
HETATM   18  C   UNL     1      42.192 -12.134   4.009  1.00  0.00     0.218 C 
HETATM   19  C   UNL     1      42.514 -11.510   2.655  1.00  0.00     0.045 C 
BRANCH  18  20
HETATM   20  C   UNL     1      42.365 -11.224   5.181  1.00  0.00     0.015 C 
HETATM   21  C   UNL     1      43.038 -11.473   6.377  1.00  0.00     0.042 C 
HETATM   22  C   UNL     1      43.732 -12.717   6.813  1.00  0.00     0.071 C 
HETATM   23  N   UNL     1      42.910 -10.318   7.160  1.00  0.00    -0.238 N 
HETATM   24  N   UNL     1      42.051  -9.449   6.562  1.00  0.00    -0.179 NA
HETATM   25  C   UNL     1      41.831  -9.934   5.351  1.00  0.00     0.150 C 
BRANCH  23  26
HETATM   26  C   UNL     1      43.485  -9.965   8.417  1.00  0.00     0.058 A 
HETATM   27  C   UNL     1      44.868  -9.949   8.636  1.00  0.00     0.031 A 
HETATM   28  C   UNL     1      45.380  -9.597   9.890  1.00  0.00     0.002 A 
HETATM   29  C   UNL     1      44.522  -9.251  10.930  1.00  0.00     0.000 A 
HETATM   30  C   UNL     1      43.147  -9.239  10.719  1.00  0.00     0.002 A 
HETATM   31  C   UNL     1      42.631  -9.583   9.467  1.00  0.00     0.031 A 
ENDBRANCH  23  26
ENDBRANCH  18  20
ENDBRANCH   1  18
TORSDOF 6
ENDMDL
MODEL 7
REMARK VINA RESULT:      -8.0      5.182      8.587
REMARK  6 active torsions:
REMARK  status: ('A' for Active; 'I' for Inactive)
REMARK    1  A    between atoms: C_3  and  C_4 
REMARK    2  A    between atoms: C_4  and  N_5 
REMARK    3  A    between atoms: N_5  and  C_8 
REMARK    4  A    between atoms: C_8  and  C_9 
REMARK    5  A    between atoms: N_12  and  C_13 
REMARK    6  A    between atoms: C_28  and  O_29 
ROOT
HETATM    1  N   UNL     1      43.878 -12.533   6.464  1.00  0.00    -0.062 N 
HETATM    2  H   UNL     1      44.453 -12.887   5.689  1.00  0.00     0.278 HD
HETATM    3  H   UNL     1      43.158 -11.956   6.017  1.00  0.00     0.278 HD
ENDROOT
BRANCH   1   4
HETATM    4  C   UNL     1      43.205 -13.705   7.081  1.00  0.00     0.290 C 
BRANCH   4   5
HETATM    5  C   UNL     1      43.287 -14.866   6.165  1.00  0.00     0.042 A 
HETATM    6  C   UNL     1      43.620 -16.195   6.399  1.00  0.00    -0.025 A 
HETATM    7  C   UNL     1      43.999 -16.839   7.690  1.00  0.00     0.051 C 
HETATM    8  C   UNL     1      43.569 -16.870   5.137  1.00  0.00     0.001 A 
HETATM    9  C   UNL     1      43.216 -15.933   4.173  1.00  0.00     0.043 A 
HETATM   10  C   UNL     1      43.812 -18.196   4.725  1.00  0.00     0.051 A 
HETATM   11  N   UNL     1      43.056 -14.730   4.812  1.00  0.00    -0.357 N 
HETATM   12  C   UNL     1      43.089 -16.256   2.816  1.00  0.00     0.033 A 
HETATM   13  H   UNL     1      42.828 -13.872   4.325  1.00  0.00     0.166 HD
HETATM   14  C   UNL     1      43.344 -17.579   2.433  1.00  0.00     0.039 A 
HETATM   15  C   UNL     1      43.711 -18.542   3.370  1.00  0.00     0.069 A 
BRANCH  15  16
HETATM   16  O   UNL     1      43.991 -19.855   3.103  1.00  0.00    -0.356 OA
HETATM   17  C   UNL     1      43.621 -20.343   1.818  1.00  0.00     0.210 C 
ENDBRANCH  15  16
ENDBRANCH   4   5
ENDBRANCH   1   4
BRANCH   1  18
HETATM   18  C   UNL     1      44.746 -11.675   7.333  1.00  0.00     0.218 C 
HETATM   19  C   UNL     1      45.888 -11.076   6.519  1.00  0.00     0.045 C 
BRANCH  18  20
HETATM   20  C   UNL     1      43.938 -10.688   8.109  1.00  0.00     0.015 C 
HETATM   21  C   UNL     1      44.214 -10.139   9.362  1.00  0.00     0.042 C 
HETATM   22  C   UNL     1      45.366 -10.414  10.265  1.00  0.00     0.071 C 
HETATM   23  N   UNL     1      43.154  -9.275   9.666  1.00  0.00    -0.238 N 
HETATM   24  N   UNL     1      42.171  -9.405   8.735  1.00  0.00    -0.179 NA
HETATM   25  C   UNL     1      42.688 -10.143   7.766  1.00  0.00     0.150 C 
BRANCH  23  26
HETATM   26  C   UNL     1      42.959  -8.370  10.753  1.00  0.00     0.058 A 
HETATM   27  C   UNL     1      43.282  -8.699  12.075  1.00  0.00     0.031 A 
HETATM   28  C   UNL     1      43.070  -7.774  13.103  1.00  0.00     0.002 A 
HETATM   29  C   UNL     1      42.544  -6.515  12.823  1.00  0.00     0.000 A 
HETATM   30  C   UNL     1      42.242  -6.168  11.511  1.00  0.00     0.002 A 
HETATM   31  C   UNL     1      42.458  -7.084  10.479  1.00  0.00     0.031 A 
ENDBRANCH  23  26
ENDBRANCH  18  20
ENDBRANCH   1  18
TORSDOF 6
ENDMDL
MODEL 8
REMARK VINA RESULT:      -7.9      6.481      9.950
REMARK  6 active torsions:
REMARK  status: ('A' for Active; 'I' for Inactive)
REMARK    1  A    between atoms: C_3  and  C_4 
REMARK    2  A    between atoms: C_4  and  N_5 
REMARK    3  A    between atoms: N_5  and  C_8 
REMARK    4  A    between atoms: C_8  and  C_9 
REMARK    5  A    between atoms: N_12  and  C_13 
REMARK    6  A    between atoms: C_28  and  O_29 
ROOT
HETATM    1  N   UNL     1      43.776 -11.264   8.283  1.00  0.00    -0.062 N 
HETATM    2  H   UNL     1      42.870 -11.127   8.747  1.00  0.00     0.278 HD
HETATM    3  H   UNL     1      43.984 -12.262   8.397  1.00  0.00     0.278 HD
ENDROOT
BRANCH   1   4
HETATM    4  C   UNL     1      43.570 -11.003   6.835  1.00  0.00     0.290 C 
BRANCH   4   5
HETATM    5  C   UNL     1      43.210 -12.265   6.148  1.00  0.00     0.042 A 
HETATM    6  C   UNL     1      43.252 -12.620   4.804  1.00  0.00    -0.025 A 
HETATM    7  C   UNL     1      43.690 -11.792   3.644  1.00  0.00     0.051 C 
HETATM    8  C   UNL     1      42.753 -13.958   4.708  1.00  0.00     0.001 A 
HETATM    9  C   UNL     1      42.415 -14.376   5.990  1.00  0.00     0.043 A 
HETATM   10  C   UNL     1      42.539 -14.849   3.636  1.00  0.00     0.051 A 
HETATM   11  N   UNL     1      42.693 -13.338   6.843  1.00  0.00    -0.357 N 
HETATM   12  C   UNL     1      41.878 -15.641   6.256  1.00  0.00     0.033 A 
HETATM   13  H   UNL     1      42.505 -13.376   7.838  1.00  0.00     0.166 HD
HETATM   14  C   UNL     1      41.669 -16.503   5.172  1.00  0.00     0.039 A 
HETATM   15  C   UNL     1      41.986 -16.115   3.872  1.00  0.00     0.069 A 
BRANCH  15  16
HETATM   16  O   UNL     1      41.813 -16.872   2.745  1.00  0.00    -0.356 OA
HETATM   17  C   UNL     1      42.917 -17.669   2.330  1.00  0.00     0.210 C 
ENDBRANCH  15  16
ENDBRANCH   4   5
ENDBRANCH   1   4
BRANCH   1  18
HETATM   18  C   UNL     1      44.800 -10.448   9.012  1.00  0.00     0.218 C 
HETATM   19  C   UNL     1      45.758  -9.790   8.025  1.00  0.00     0.045 C 
BRANCH  18  20
HETATM   20  C   UNL     1      44.163  -9.516   9.990  1.00  0.00     0.015 C 
HETATM   21  C   UNL     1      43.709  -9.793  11.279  1.00  0.00     0.042 C 
HETATM   22  C   UNL     1      43.713 -11.092  12.008  1.00  0.00     0.071 C 
HETATM   23  N   UNL     1      43.183  -8.598  11.788  1.00  0.00    -0.238 N 
HETATM   24  N   UNL     1      43.144  -7.657  10.806  1.00  0.00    -0.179 NA
HETATM   25  C   UNL     1      43.827  -8.164   9.793  1.00  0.00     0.150 C 
BRANCH  23  26
HETATM   26  C   UNL     1      42.689  -8.263  13.084  1.00  0.00     0.058 A 
HETATM   27  C   UNL     1      43.259  -7.256  13.871  1.00  0.00     0.031 A 
HETATM   28  C   UNL     1      42.736  -6.968  15.137  1.00  0.00     0.002 A 
HETATM   29  C   UNL     1      41.639  -7.675  15.624  1.00  0.00     0.000 A 
HETATM   30  C   UNL     1      41.049  -8.662  14.842  1.00  0.00     0.002 A 
HETATM   31  C   UNL     1      41.563  -8.948  13.575  1.00  0.00     0.031 A 
ENDBRANCH  23  26
ENDBRANCH  18  20
ENDBRANCH   1  18
TORSDOF 6
ENDMDL
MODEL 9
REMARK VINA RESULT:      -7.9      5.481      9.230
REMARK  6 active torsions:
REMARK  status: ('A' for Active; 'I' for Inactive)
REMARK    1  A    between atoms: C_3  and  C_4 
REMARK    2  A    between atoms: C_4  and  N_5 
REMARK    3  A    between atoms: N_5  and  C_8 
REMARK    4  A    between atoms: C_8  and  C_9 
REMARK    5  A    between atoms: N_12  and  C_13 
REMARK    6  A    between atoms: C_28  and  O_29 
ROOT
HETATM    1  N   UNL     1      43.376 -12.983   7.164  1.00  0.00    -0.062 N 
HETATM    2  H   UNL     1      44.236 -13.508   7.366  1.00  0.00     0.278 HD
HETATM    3  H   UNL     1      42.878 -12.937   8.059  1.00  0.00     0.278 HD
ENDROOT
BRANCH   1   4
HETATM    4  C   UNL     1      43.782 -11.602   6.795  1.00  0.00     0.290 C 
BRANCH   4   5
HETATM    5  C   UNL     1      43.478 -10.678   7.912  1.00  0.00     0.042 A 
HETATM    6  C   UNL     1      42.733  -9.506   7.953  1.00  0.00    -0.025 A 
HETATM    7  C   UNL     1      42.007  -8.834   6.837  1.00  0.00     0.051 C 
HETATM    8  C   UNL     1      42.806  -9.008   9.293  1.00  0.00     0.001 A 
HETATM    9  C   UNL     1      43.597  -9.885  10.026  1.00  0.00     0.043 A 
HETATM   10  C   UNL     1      42.282  -7.874   9.947  1.00  0.00     0.051 A 
HETATM   11  N   UNL     1      43.997 -10.882   9.173  1.00  0.00    -0.357 N 
HETATM   12  C   UNL     1      43.889  -9.688  11.381  1.00  0.00     0.033 A 
HETATM   13  H   UNL     1      44.614 -11.635   9.455  1.00  0.00     0.166 HD
HETATM   14  C   UNL     1      43.362  -8.549  12.004  1.00  0.00     0.039 A 
HETATM   15  C   UNL     1      42.573  -7.642  11.298  1.00  0.00     0.069 A 
BRANCH  15  16
HETATM   16  O   UNL     1      42.019  -6.498  11.805  1.00  0.00    -0.356 OA
HETATM   17  C   UNL     1      40.774  -6.087  11.252  1.00  0.00     0.210 C 
ENDBRANCH  15  16
ENDBRANCH   4   5
ENDBRANCH   1   4
BRANCH   1  18
HETATM   18  C   UNL     1      42.570 -13.772   6.178  1.00  0.00     0.218 C 
HETATM   19  C   UNL     1      42.227 -12.917   4.963  1.00  0.00     0.045 C 
BRANCH  18  20
HETATM   20  C   UNL     1      43.218 -15.082   5.865  1.00  0.00     0.015 C 
HETATM   21  C   UNL     1      42.691 -16.158   5.151  1.00  0.00     0.042 C 
HETATM   22  C   UNL     1      41.339 -16.298   4.541  1.00  0.00     0.071 C 
HETATM   23  N   UNL     1      43.676 -17.155   5.139  1.00  0.00    -0.238 N 
HETATM   24  N   UNL     1      44.705 -16.797   5.953  1.00  0.00    -0.179 NA
HETATM   25  C   UNL     1      44.484 -15.534   6.279  1.00  0.00     0.150 C 
BRANCH  23  26
HETATM   26  C   UNL     1      43.732 -18.414   4.468  1.00  0.00     0.058 A 
HETATM   27  C   UNL     1      43.915 -19.623   5.149  1.00  0.00     0.031 A 
HETATM   28  C   UNL     1      43.964 -20.830   4.443  1.00  0.00     0.002 A 
HETATM   29  C   UNL     1      43.825 -20.843   3.057  1.00  0.00     0.000 A 
HETATM   30  C   UNL     1      43.620 -19.650   2.372  1.00  0.00     0.002 A 
HETATM   31  C   UNL     1      43.562 -18.444   3.072  1.00  0.00     0.031 A 
ENDBRANCH  23  26
ENDBRANCH  18  20
ENDBRANCH   1  18
TORSDOF 6
ENDMDL
MODEL 10
REMARK VINA RESULT:      -7.7      1.456      2.138
REMARK  6 active torsions:
REMARK  status: ('A' for Active; 'I' for Inactive)
REMARK    1  A    between atoms: C_3  and  C_4 
REMARK    2  A    between atoms: C_4  and  N_5 
REMARK    3  A    between atoms: N_5  and  C_8 
REMARK    4  A    between atoms: C_8  and  C_9 
REMARK    5  A    between atoms: N_12  and  C_13 
REMARK    6  A    between atoms: C_28  and  O_29 
ROOT
HETATM    1  N   UNL     1      40.633 -11.677   4.788  1.00  0.00    -0.062 N 
HETATM    2  H   UNL     1      40.390 -11.156   5.639  1.00  0.00     0.278 HD
HETATM    3  H   UNL     1      41.640 -11.856   4.866  1.00  0.00     0.278 HD
ENDROOT
BRANCH   1   4
HETATM    4  C   UNL     1      39.930 -12.984   4.857  1.00  0.00     0.290 C 
BRANCH   4   5
HETATM    5  C   UNL     1      40.917 -14.086   4.769  1.00  0.00     0.042 A 
HETATM    6  C   UNL     1      41.012 -15.160   3.892  1.00  0.00    -0.025 A 
HETATM    7  C   UNL     1      40.111 -15.509   2.756  1.00  0.00     0.051 C 
HETATM    8  C   UNL     1      42.149 -15.932   4.296  1.00  0.00     0.001 A 
HETATM    9  C   UNL     1      42.706 -15.311   5.407  1.00  0.00     0.043 A 
HETATM   10  C   UNL     1      42.745 -17.119   3.823  1.00  0.00     0.051 A 
HETATM   11  N   UNL     1      41.945 -14.202   5.680  1.00  0.00    -0.357 N 
HETATM   12  C   UNL     1      43.833 -15.814   6.069  1.00  0.00     0.033 A 
HETATM   13  H   UNL     1      42.123 -13.591   6.468  1.00  0.00     0.166 HD
HETATM   14  C   UNL     1      44.400 -17.000   5.584  1.00  0.00     0.039 A 
HETATM   15  C   UNL     1      43.862 -17.655   4.478  1.00  0.00     0.069 A 
BRANCH  15  16
HETATM   16  O   UNL     1      44.330 -18.819   3.931  1.00  0.00    -0.356 OA
HETATM   17  C   UNL     1      44.328 -19.970   4.767  1.00  0.00     0.210 C 
ENDBRANCH  15  16
ENDBRANCH   4   5
ENDBRANCH   1   4
BRANCH   1  18
HETATM   18  C   UNL     1      40.368 -10.791   3.610  1.00  0.00     0.218 C 
HETATM   19  C   UNL     1      41.225  -9.531   3.686  1.00  0.00     0.045 C 
BRANCH  18  20
HETATM   20  C   UNL     1      40.469 -11.545   2.324  1.00  0.00     0.015 C 
HETATM   21  C   UNL     1      39.438 -11.950   1.476  1.00  0.00     0.042 C 
HETATM   22  C   UNL     1      37.970 -11.766   1.642  1.00  0.00     0.071 C 
HETATM   23  N   UNL     1      40.038 -12.632   0.409  1.00  0.00    -0.238 N 
HETATM   24  N   UNL     1      41.364 -12.804   0.658  1.00  0.00    -0.179 NA
HETATM   25  C   UNL     1      41.630 -12.063   1.722  1.00  0.00     0.150 C 
BRANCH  23  26
HETATM   26  C   UNL     1      39.489 -13.161  -0.798  1.00  0.00     0.058 A 
HETATM   27  C   UNL     1      39.473 -14.532  -1.081  1.00  0.00     0.031 A 
HETATM   28  C   UNL     1      38.923 -14.999  -2.280  1.00  0.00     0.002 A 
HETATM   29  C   UNL     1      38.379 -14.107  -3.201  1.00  0.00     0.000 A 
HETATM   30  C   UNL     1      38.366 -12.745  -2.920  1.00  0.00     0.002 A 
HETATM   31  C   UNL     1      38.907 -12.274  -1.722  1.00  0.00     0.031 A 
ENDBRANCH  23  26
ENDBRANCH  18  20
ENDBRANCH   1  18
TORSDOF 6
ENDMDL
