MODEL 1
REMARK VINA RESULT:      -8.1      0.000      0.000
REMARK  3 active torsions:
REMARK  status: ('A' for Active; 'I' for Inactive)
REMARK    1  A    between atoms: C_6  and  N_7 
REMARK       I    between atoms: N_7  and  C_8 
REMARK    2  A    between atoms: C_8  and  C_9 
REMARK    3  A    between atoms: C_9  and  C_10 
ROOT
HETATM    1  C   UNL     1      40.365 -12.936   1.187  1.00  0.00     0.286 C 
HETATM    2  N   UNL     1      41.066 -13.266  -0.132  1.00  0.00    -0.056 N 
HETATM    3  H   UNL     1      41.790 -12.548  -0.265  1.00  0.00     0.278 HD
HETATM    4  H   UNL     1      41.629 -14.132   0.000  1.00  0.00     0.278 HD
HETATM    5  C   UNL     1      40.233 -13.314  -1.377  1.00  0.00     0.209 C 
HETATM    6  C   UNL     1      39.334 -12.059  -1.433  1.00  0.00     0.115 C 
HETATM    7  N   UNL     1      38.572 -11.883  -0.199  1.00  0.00    -0.353 N 
HETATM    8  C   UNL     1      39.065 -12.127   1.054  1.00  0.00     0.249 C 
HETATM    9  O   UNL     1      38.446 -11.737   2.039  1.00  0.00    -0.271 OA
HETATM   10  C   UNL     1      39.437 -14.617  -1.450  1.00  0.00     0.035 C 
HETATM   11  C   UNL     1      38.548 -14.635  -2.692  1.00  0.00     0.002 C 
HETATM   12  C   UNL     1      37.624 -13.420  -2.738  1.00  0.00     0.002 C 
HETATM   13  C   UNL     1      38.404 -12.108  -2.649  1.00  0.00     0.027 C 
HETATM   14  H   UNL     1      37.757 -11.273  -0.203  1.00  0.00     0.163 HD
ENDROOT
BRANCH   1  15
HETATM   15  C   UNL     1      40.113 -14.185   2.045  1.00  0.00     0.146 C 
BRANCH  15  16
HETATM   16  C   UNL     1      41.412 -14.917   2.277  1.00  0.00     0.224 C 
HETATM   17  N   UNL     1      41.260 -16.220   2.690  1.00  0.00    -0.327 N 
HETATM   18  H   UNL     1      40.317 -16.590   2.764  1.00  0.00     0.169 HD
HETATM   19  O   UNL     1      42.464 -14.315   2.058  1.00  0.00    -0.273 OA
BRANCH  17  20
HETATM   20  C   UNL     1      42.282 -17.127   3.054  1.00  0.00     0.036 A 
HETATM   21  C   UNL     1      42.620 -18.263   2.318  1.00  0.00     0.053 A 
HETATM   22  C   UNL     1      43.662 -19.091   2.744  1.00  0.00     0.036 A 
HETATM   23  C   UNL     1      44.376 -18.799   3.903  1.00  0.00     0.024 A 
HETATM   24 CL   UNL     1      44.072 -20.485   1.820  1.00  0.00    -0.084 Cl
HETATM   25  C   UNL     1      44.043 -17.670   4.646  1.00  0.00     0.004 A 
HETATM   26  C   UNL     1      43.001 -16.841   4.224  1.00  0.00     0.029 A 
ENDBRANCH  17  20
ENDBRANCH  15  16
ENDBRANCH   1  15
TORSDOF 3
ENDMDL
MODEL 2
REMARK VINA RESULT:      -8.1      1.465      1.788
REMARK  3 active torsions:
REMARK  status: ('A' for Active; 'I' for Inactive)
REMARK    1  A    between atoms: C_6  and  N_7 
REMARK       I    between atoms: N_7  and  C_8 
REMARK    2  A    between atoms: C_8  and  C_9 
REMARK    3  A    between atoms: C_9  and  C_10 
ROOT
HETATM    1  C   UNL     1      40.442 -13.480   0.510  1.00  0.00     0.286 C 
HETATM    2  N   UNL     1      40.894 -13.516  -0.950  1.00  0.00    -0.056 N 
HETATM    3  H   UNL     1      41.604 -12.779  -1.055  1.00  0.00     0.278 HD
HETATM    4  H   UNL     1      41.449 -14.386  -1.103  1.00  0.00     0.278 HD
HETATM    5  C   UNL     1      39.857 -13.311  -2.012  1.00  0.00     0.209 C 
HETATM    6  C   UNL     1      38.996 -12.082  -1.646  1.00  0.00     0.115 C 
HETATM    7  N   UNL     1      38.465 -12.178  -0.289  1.00  0.00    -0.353 N 
HETATM    8  C   UNL     1      39.160 -12.675   0.779  1.00  0.00     0.249 C 
HETATM    9  O   UNL     1      38.732 -12.508   1.917  1.00  0.00    -0.271 OA
HETATM   10  C   UNL     1      39.027 -14.578  -2.216  1.00  0.00     0.035 C 
HETATM   11  C   UNL     1      37.935 -14.344  -3.259  1.00  0.00     0.002 C 
HETATM   12  C   UNL     1      37.050 -13.156  -2.887  1.00  0.00     0.002 C 
HETATM   13  C   UNL     1      37.868 -11.884  -2.664  1.00  0.00     0.027 C 
HETATM   14  H   UNL     1      37.678 -11.589  -0.023  1.00  0.00     0.163 HD
ENDROOT
BRANCH   1  15
HETATM   15  C   UNL     1      40.309 -14.884   1.119  1.00  0.00     0.146 C 
BRANCH  15  16
HETATM   16  C   UNL     1      41.624 -15.303   1.729  1.00  0.00     0.224 C 
HETATM   17  N   UNL     1      41.570 -16.485   2.430  1.00  0.00    -0.327 N 
HETATM   18  H   UNL     1      40.688 -16.989   2.448  1.00  0.00     0.169 HD
HETATM   19  O   UNL     1      42.609 -14.590   1.532  1.00  0.00    -0.273 OA
BRANCH  17  20
HETATM   20  C   UNL     1      42.613 -17.091   3.168  1.00  0.00     0.036 A 
HETATM   21  C   UNL     1      43.128 -16.579   4.360  1.00  0.00     0.053 A 
HETATM   22  C   UNL     1      44.146 -17.261   5.034  1.00  0.00     0.036 A 
HETATM   23  C   UNL     1      44.660 -18.453   4.531  1.00  0.00     0.024 A 
HETATM   24 CL   UNL     1      44.765 -16.620   6.508  1.00  0.00    -0.084 Cl
HETATM   25  C   UNL     1      44.155 -18.968   3.341  1.00  0.00     0.004 A 
HETATM   26  C   UNL     1      43.139 -18.289   2.663  1.00  0.00     0.029 A 
ENDBRANCH  17  20
ENDBRANCH  15  16
ENDBRANCH   1  15
TORSDOF 3
ENDMDL
MODEL 3
REMARK VINA RESULT:      -7.9      3.212      3.898
REMARK  3 active torsions:
REMARK  status: ('A' for Active; 'I' for Inactive)
REMARK    1  A    between atoms: C_6  and  N_7 
REMARK       I    between atoms: N_7  and  C_8 
REMARK    2  A    between atoms: C_8  and  C_9 
REMARK    3  A    between atoms: C_9  and  C_10 
ROOT
HETATM    1  C   UNL     1      43.009 -13.149   3.055  1.00  0.00     0.286 C 
HETATM    2  N   UNL     1      41.926 -13.458   2.020  1.00  0.00    -0.056 N 
HETATM    3  H   UNL     1      42.414 -13.653   1.136  1.00  0.00     0.278 HD
HETATM    4  H   UNL     1      41.502 -14.381   2.251  1.00  0.00     0.278 HD
HETATM    5  C   UNL     1      40.891 -12.408   1.752  1.00  0.00     0.209 C 
HETATM    6  C   UNL     1      41.592 -11.047   1.548  1.00  0.00     0.115 C 
HETATM    7  N   UNL     1      42.501 -10.736   2.648  1.00  0.00    -0.353 N 
HETATM    8  C   UNL     1      43.299 -11.655   3.274  1.00  0.00     0.249 C 
HETATM    9  O   UNL     1      44.194 -11.276   4.023  1.00  0.00    -0.271 OA
HETATM   10  C   UNL     1      39.846 -12.376   2.867  1.00  0.00     0.035 C 
HETATM   11  C   UNL     1      38.826 -11.266   2.616  1.00  0.00     0.002 C 
HETATM   12  C   UNL     1      39.505  -9.907   2.454  1.00  0.00     0.002 C 
HETATM   13  C   UNL     1      40.564  -9.928   1.353  1.00  0.00     0.027 C 
HETATM   14  H   UNL     1      42.810  -9.775   2.778  1.00  0.00     0.163 HD
ENDROOT
BRANCH   1  15
HETATM   15  C   UNL     1      42.741 -13.828   4.406  1.00  0.00     0.146 C 
BRANCH  15  16
HETATM   16  C   UNL     1      42.447 -15.293   4.192  1.00  0.00     0.224 C 
HETATM   17  N   UNL     1      43.565 -16.072   4.011  1.00  0.00    -0.327 N 
HETATM   18  H   UNL     1      44.474 -15.623   4.073  1.00  0.00     0.169 HD
HETATM   19  O   UNL     1      41.272 -15.659   4.226  1.00  0.00    -0.273 OA
BRANCH  17  20
HETATM   20  C   UNL     1      43.606 -17.455   3.718  1.00  0.00     0.036 A 
HETATM   21  C   UNL     1      44.013 -18.435   4.624  1.00  0.00     0.053 A 
HETATM   22  C   UNL     1      43.999 -19.783   4.253  1.00  0.00     0.036 A 
HETATM   23  C   UNL     1      43.582 -20.168   2.981  1.00  0.00     0.024 A 
HETATM   24 CL   UNL     1      44.497 -20.981   5.385  1.00  0.00    -0.084 Cl
HETATM   25  C   UNL     1      43.178 -19.197   2.070  1.00  0.00     0.004 A 
HETATM   26  C   UNL     1      43.192 -17.848   2.436  1.00  0.00     0.029 A 
ENDBRANCH  17  20
ENDBRANCH  15  16
ENDBRANCH   1  15
TORSDOF 3
ENDMDL
MODEL 4
REMARK VINA RESULT:      -7.7      3.722      5.663
REMARK  3 active torsions:
REMARK  status: ('A' for Active; 'I' for Inactive)
REMARK    1  A    between atoms: C_6  and  N_7 
REMARK       I    between atoms: N_7  and  C_8 
REMARK    2  A    between atoms: C_8  and  C_9 
REMARK    3  A    between atoms: C_9  and  C_10 
ROOT
HETATM    1  C   UNL     1      41.289 -12.534   3.554  1.00  0.00     0.286 C 
HETATM    2  N   UNL     1      41.238 -13.144   4.956  1.00  0.00    -0.056 N 
HETATM    3  H   UNL     1      40.273 -13.023   5.292  1.00  0.00     0.278 HD
HETATM    4  H   UNL     1      41.317 -14.180   4.868  1.00  0.00     0.278 HD
HETATM    5  C   UNL     1      42.161 -12.589   5.997  1.00  0.00     0.209 C 
HETATM    6  C   UNL     1      42.080 -11.047   5.975  1.00  0.00     0.115 C 
HETATM    7  N   UNL     1      42.290 -10.514   4.632  1.00  0.00    -0.353 N 
HETATM    8  C   UNL     1      41.804 -11.087   3.488  1.00  0.00     0.249 C 
HETATM    9  O   UNL     1      41.826 -10.459   2.434  1.00  0.00    -0.271 OA
HETATM   10  C   UNL     1      43.583 -13.112   5.799  1.00  0.00     0.035 C 
HETATM   11  C   UNL     1      44.530 -12.499   6.829  1.00  0.00     0.002 C 
HETATM   12  C   UNL     1      44.491 -10.972   6.788  1.00  0.00     0.002 C 
HETATM   13  C   UNL     1      43.071 -10.435   6.970  1.00  0.00     0.027 C 
HETATM   14  H   UNL     1      42.533  -9.531   4.521  1.00  0.00     0.163 HD
ENDROOT
BRANCH   1  15
HETATM   15  C   UNL     1      42.071 -13.407   2.562  1.00  0.00     0.146 C 
BRANCH  15  16
HETATM   16  C   UNL     1      41.994 -14.854   2.984  1.00  0.00     0.224 C 
HETATM   17  N   UNL     1      43.216 -15.470   3.114  1.00  0.00    -0.327 N 
HETATM   18  H   UNL     1      44.051 -14.911   2.961  1.00  0.00     0.169 HD
HETATM   19  O   UNL     1      40.882 -15.338   3.197  1.00  0.00    -0.273 OA
BRANCH  17  20
HETATM   20  C   UNL     1      43.462 -16.828   3.422  1.00  0.00     0.036 A 
HETATM   21  C   UNL     1      43.415 -17.864   2.486  1.00  0.00     0.053 A 
HETATM   22  C   UNL     1      43.696 -19.176   2.878  1.00  0.00     0.036 A 
HETATM   23  C   UNL     1      44.025 -19.471   4.198  1.00  0.00     0.024 A 
HETATM   24 CL   UNL     1      43.642 -20.440   1.710  1.00  0.00    -0.084 Cl
HETATM   25  C   UNL     1      44.070 -18.446   5.139  1.00  0.00     0.004 A 
HETATM   26  C   UNL     1      43.788 -17.133   4.752  1.00  0.00     0.029 A 
ENDBRANCH  17  20
ENDBRANCH  15  16
ENDBRANCH   1  15
TORSDOF 3
ENDMDL
MODEL 5
REMARK VINA RESULT:      -7.7      5.460      7.568
REMARK  3 active torsions:
REMARK  status: ('A' for Active; 'I' for Inactive)
REMARK    1  A    between atoms: C_6  and  N_7 
REMARK       I    between atoms: N_7  and  C_8 
REMARK    2  A    between atoms: C_8  and  C_9 
REMARK    3  A    between atoms: C_9  and  C_10 
ROOT
HETATM    1  C   UNL     1      42.094 -11.400   6.330  1.00  0.00     0.286 C 
HETATM    2  N   UNL     1      42.973 -12.202   7.292  1.00  0.00    -0.056 N 
HETATM    3  H   UNL     1      42.364 -12.501   8.065  1.00  0.00     0.278 HD
HETATM    4  H   UNL     1      43.220 -13.106   6.837  1.00  0.00     0.278 HD
HETATM    5  C   UNL     1      44.167 -11.519   7.885  1.00  0.00     0.209 C 
HETATM    6  C   UNL     1      43.744 -10.133   8.420  1.00  0.00     0.115 C 
HETATM    7  N   UNL     1      43.042  -9.353   7.405  1.00  0.00    -0.353 N 
HETATM    8  C   UNL     1      42.144  -9.875   6.514  1.00  0.00     0.249 C 
HETATM    9  O   UNL     1      41.432  -9.124   5.855  1.00  0.00    -0.271 OA
HETATM   10  C   UNL     1      45.310 -11.442   6.874  1.00  0.00     0.035 C 
HETATM   11  C   UNL     1      46.504 -10.695   7.466  1.00  0.00     0.002 C 
HETATM   12  C   UNL     1      46.107  -9.305   7.961  1.00  0.00     0.002 C 
HETATM   13  C   UNL     1      44.954  -9.366   8.962  1.00  0.00     0.027 C 
HETATM   14  H   UNL     1      42.954  -8.346   7.527  1.00  0.00     0.163 HD
ENDROOT
BRANCH   1  15
HETATM   15  C   UNL     1      42.360 -11.753   4.860  1.00  0.00     0.146 C 
BRANCH  15  16
HETATM   16  C   UNL     1      42.137 -13.230   4.640  1.00  0.00     0.224 C 
HETATM   17  N   UNL     1      43.185 -13.874   4.026  1.00  0.00    -0.327 N 
HETATM   18  H   UNL     1      44.018 -13.333   3.811  1.00  0.00     0.169 HD
HETATM   19  O   UNL     1      41.082 -13.723   5.041  1.00  0.00    -0.273 OA
BRANCH  17  20
HETATM   20  C   UNL     1      43.240 -15.229   3.624  1.00  0.00     0.036 A 
HETATM   21  C   UNL     1      43.540 -16.288   4.483  1.00  0.00     0.053 A 
HETATM   22  C   UNL     1      43.548 -17.600   4.001  1.00  0.00     0.036 A 
HETATM   23  C   UNL     1      43.261 -17.872   2.666  1.00  0.00     0.024 A 
HETATM   24 CL   UNL     1      43.912 -18.897   5.075  1.00  0.00    -0.084 Cl
HETATM   25  C   UNL     1      42.965 -16.822   1.802  1.00  0.00     0.004 A 
HETATM   26  C   UNL     1      42.957 -15.508   2.279  1.00  0.00     0.029 A 
ENDBRANCH  17  20
ENDBRANCH  15  16
ENDBRANCH   1  15
TORSDOF 3
ENDMDL
MODEL 6
REMARK VINA RESULT:      -7.6      6.302      8.000
REMARK  3 active torsions:
REMARK  status: ('A' for Active; 'I' for Inactive)
REMARK    1  A    between atoms: C_6  and  N_7 
REMARK       I    between atoms: N_7  and  C_8 
REMARK    2  A    between atoms: C_8  and  C_9 
REMARK    3  A    between atoms: C_9  and  C_10 
ROOT
HETATM    1  C   UNL     1      41.695 -14.061   6.030  1.00  0.00     0.286 C 
HETATM    2  N   UNL     1      41.739 -13.341   4.681  1.00  0.00    -0.056 N 
HETATM    3  H   UNL     1      40.903 -12.742   4.642  1.00  0.00     0.278 HD
HETATM    4  H   UNL     1      42.514 -12.644   4.703  1.00  0.00     0.278 HD
HETATM    5  C   UNL     1      41.763 -14.178   3.439  1.00  0.00     0.209 C 
HETATM    6  C   UNL     1      40.672 -15.267   3.540  1.00  0.00     0.115 C 
HETATM    7  N   UNL     1      40.778 -16.024   4.784  1.00  0.00    -0.353 N 
HETATM    8  C   UNL     1      41.095 -15.476   5.998  1.00  0.00     0.249 C 
HETATM    9  O   UNL     1      40.937 -16.131   7.023  1.00  0.00    -0.271 OA
HETATM   10  C   UNL     1      43.157 -14.757   3.198  1.00  0.00     0.035 C 
HETATM   11  C   UNL     1      43.162 -15.654   1.962  1.00  0.00     0.002 C 
HETATM   12  C   UNL     1      42.114 -16.761   2.069  1.00  0.00     0.002 C 
HETATM   13  C   UNL     1      40.717 -16.198   2.325  1.00  0.00     0.027 C 
HETATM   14  H   UNL     1      40.310 -16.926   4.857  1.00  0.00     0.163 HD
ENDROOT
BRANCH   1  15
HETATM   15  C   UNL     1      43.066 -14.095   6.721  1.00  0.00     0.146 C 
BRANCH  15  16
HETATM   16  C   UNL     1      43.689 -12.721   6.690  1.00  0.00     0.224 C 
HETATM   17  N   UNL     1      43.611 -12.039   7.881  1.00  0.00    -0.327 N 
HETATM   18  H   UNL     1      43.191 -12.512   8.675  1.00  0.00     0.169 HD
HETATM   19  O   UNL     1      44.222 -12.350   5.644  1.00  0.00    -0.273 OA
BRANCH  17  20
HETATM   20  C   UNL     1      44.035 -10.714   8.138  1.00  0.00     0.036 A 
HETATM   21  C   UNL     1      43.180  -9.612   8.177  1.00  0.00     0.053 A 
HETATM   22  C   UNL     1      43.687  -8.341   8.462  1.00  0.00     0.036 A 
HETATM   23  C   UNL     1      45.044  -8.153   8.711  1.00  0.00     0.024 A 
HETATM   24 CL   UNL     1      42.617  -6.992   8.514  1.00  0.00    -0.084 Cl
HETATM   25  C   UNL     1      45.905  -9.246   8.670  1.00  0.00     0.004 A 
HETATM   26  C   UNL     1      45.403 -10.519   8.383  1.00  0.00     0.029 A 
ENDBRANCH  17  20
ENDBRANCH  15  16
ENDBRANCH   1  15
TORSDOF 3
ENDMDL
MODEL 7
REMARK VINA RESULT:      -7.6      7.952      9.899
REMARK  3 active torsions:
REMARK  status: ('A' for Active; 'I' for Inactive)
REMARK    1  A    between atoms: C_6  and  N_7 
REMARK       I    between atoms: N_7  and  C_8 
REMARK    2  A    between atoms: C_8  and  C_9 
REMARK    3  A    between atoms: C_9  and  C_10 
ROOT
HETATM    1  C   UNL     1      43.756  -9.724   8.187  1.00  0.00     0.286 C 
HETATM    2  N   UNL     1      42.406  -9.950   8.869  1.00  0.00    -0.056 N 
HETATM    3  H   UNL     1      41.693  -9.548   8.247  1.00  0.00     0.278 HD
HETATM    4  H   UNL     1      42.185 -10.968   8.836  1.00  0.00     0.278 HD
HETATM    5  C   UNL     1      42.203  -9.370  10.236  1.00  0.00     0.209 C 
HETATM    6  C   UNL     1      42.674  -7.898  10.235  1.00  0.00     0.115 C 
HETATM    7  N   UNL     1      44.032  -7.765   9.714  1.00  0.00    -0.353 N 
HETATM    8  C   UNL     1      44.528  -8.481   8.659  1.00  0.00     0.249 C 
HETATM    9  O   UNL     1      45.589  -8.147   8.141  1.00  0.00    -0.271 OA
HETATM   10  C   UNL     1      42.904 -10.217  11.297  1.00  0.00     0.035 C 
HETATM   11  C   UNL     1      42.742  -9.589  12.680  1.00  0.00     0.002 C 
HETATM   12  C   UNL     1      43.243  -8.146  12.704  1.00  0.00     0.002 C 
HETATM   13  C   UNL     1      42.561  -7.290  11.637  1.00  0.00     0.027 C 
HETATM   14  H   UNL     1      44.555  -6.914   9.909  1.00  0.00     0.163 HD
ENDROOT
BRANCH   1  15
HETATM   15  C   UNL     1      44.666 -10.958   8.263  1.00  0.00     0.146 C 
BRANCH  15  16
HETATM   16  C   UNL     1      44.341 -11.903   7.132  1.00  0.00     0.224 C 
HETATM   17  N   UNL     1      43.506 -12.938   7.483  1.00  0.00    -0.327 N 
HETATM   18  H   UNL     1      43.150 -12.962   8.434  1.00  0.00     0.169 HD
HETATM   19  O   UNL     1      44.813 -11.661   6.021  1.00  0.00    -0.273 OA
BRANCH  17  20
HETATM   20  C   UNL     1      43.086 -14.013   6.666  1.00  0.00     0.036 A 
HETATM   21  C   UNL     1      43.880 -15.122   6.363  1.00  0.00     0.053 A 
HETATM   22  C   UNL     1      43.371 -16.150   5.565  1.00  0.00     0.036 A 
HETATM   23  C   UNL     1      42.075 -16.088   5.061  1.00  0.00     0.024 A 
HETATM   24 CL   UNL     1      44.360 -17.514   5.207  1.00  0.00    -0.084 Cl
HETATM   25  C   UNL     1      41.279 -14.984   5.354  1.00  0.00     0.004 A 
HETATM   26  C   UNL     1      41.783 -13.953   6.151  1.00  0.00     0.029 A 
ENDBRANCH  17  20
ENDBRANCH  15  16
ENDBRANCH   1  15
TORSDOF 3
ENDMDL
MODEL 8
REMARK VINA RESULT:      -7.6      3.076      7.297
REMARK  3 active torsions:
REMARK  status: ('A' for Active; 'I' for Inactive)
REMARK    1  A    between atoms: C_6  and  N_7 
REMARK       I    between atoms: N_7  and  C_8 
REMARK    2  A    between atoms: C_8  and  C_9 
REMARK    3  A    between atoms: C_9  and  C_10 
ROOT
HETATM    1  C   UNL     1      41.144 -13.794   3.887  1.00  0.00     0.286 C 
HETATM    2  N   UNL     1      40.413 -15.120   3.668  1.00  0.00    -0.056 N 
HETATM    3  H   UNL     1      39.718 -15.199   4.423  1.00  0.00     0.278 HD
HETATM    4  H   UNL     1      39.814 -15.030   2.820  1.00  0.00     0.278 HD
HETATM    5  C   UNL     1      41.227 -16.377   3.659  1.00  0.00     0.209 C 
HETATM    6  C   UNL     1      42.179 -16.373   4.875  1.00  0.00     0.115 C 
HETATM    7  N   UNL     1      42.963 -15.143   4.944  1.00  0.00    -0.353 N 
HETATM    8  C   UNL     1      42.477 -13.899   4.646  1.00  0.00     0.249 C 
HETATM    9  O   UNL     1      43.125 -12.902   4.950  1.00  0.00    -0.271 OA
HETATM   10  C   UNL     1      41.964 -16.541   2.330  1.00  0.00     0.035 C 
HETATM   11  C   UNL     1      42.836 -17.795   2.348  1.00  0.00     0.002 C 
HETATM   12  C   UNL     1      43.811 -17.783   3.523  1.00  0.00     0.002 C 
HETATM   13  C   UNL     1      43.090 -17.605   4.859  1.00  0.00     0.027 C 
HETATM   14  H   UNL     1      43.804 -15.123   5.518  1.00  0.00     0.163 HD
ENDROOT
BRANCH   1  15
HETATM   15  C   UNL     1      41.353 -13.016   2.580  1.00  0.00     0.146 C 
BRANCH  15  16
HETATM   16  C   UNL     1      40.136 -13.160   1.699  1.00  0.00     0.224 C 
HETATM   17  N   UNL     1      40.421 -13.364   0.370  1.00  0.00    -0.327 N 
HETATM   18  H   UNL     1      41.397 -13.440   0.098  1.00  0.00     0.169 HD
HETATM   19  O   UNL     1      39.026 -13.113   2.231  1.00  0.00    -0.273 OA
BRANCH  17  20
HETATM   20  C   UNL     1      39.500 -13.460  -0.699  1.00  0.00     0.036 A 
HETATM   21  C   UNL     1      38.604 -12.450  -1.054  1.00  0.00     0.053 A 
HETATM   22  C   UNL     1      37.744 -12.626  -2.142  1.00  0.00     0.036 A 
HETATM   23  C   UNL     1      37.765 -13.803  -2.885  1.00  0.00     0.024 A 
HETATM   24 CL   UNL     1      36.652 -11.366  -2.572  1.00  0.00    -0.084 Cl
HETATM   25  C   UNL     1      38.651 -14.818  -2.535  1.00  0.00     0.004 A 
HETATM   26  C   UNL     1      39.512 -14.647  -1.447  1.00  0.00     0.029 A 
ENDBRANCH  17  20
ENDBRANCH  15  16
ENDBRANCH   1  15
TORSDOF 3
ENDMDL
MODEL 9
REMARK VINA RESULT:      -7.5      2.233      3.153
REMARK  3 active torsions:
REMARK  status: ('A' for Active; 'I' for Inactive)
REMARK    1  A    between atoms: C_6  and  N_7 
REMARK       I    between atoms: N_7  and  C_8 
REMARK    2  A    between atoms: C_8  and  C_9 
REMARK    3  A    between atoms: C_9  and  C_10 
ROOT
HETATM    1  C   UNL     1      39.136 -13.629  -1.148  1.00  0.00     0.286 C 
HETATM    2  N   UNL     1      38.184 -12.721  -0.367  1.00  0.00    -0.056 N 
HETATM    3  H   UNL     1      37.325 -13.264  -0.208  1.00  0.00     0.278 HD
HETATM    4  H   UNL     1      38.557 -12.603   0.599  1.00  0.00     0.278 HD
HETATM    5  C   UNL     1      37.793 -11.415  -0.988  1.00  0.00     0.209 C 
HETATM    6  C   UNL     1      37.377 -11.657  -2.456  1.00  0.00     0.115 C 
HETATM    7  N   UNL     1      38.397 -12.398  -3.192  1.00  0.00    -0.353 N 
HETATM    8  C   UNL     1      39.129 -13.430  -2.672  1.00  0.00     0.249 C 
HETATM    9  O   UNL     1      39.792 -14.144  -3.417  1.00  0.00    -0.271 OA
HETATM   10  C   UNL     1      38.918 -10.388  -0.852  1.00  0.00     0.035 C 
HETATM   11  C   UNL     1      38.535  -9.077  -1.537  1.00  0.00     0.002 C 
HETATM   12  C   UNL     1      38.161  -9.298  -3.001  1.00  0.00     0.002 C 
HETATM   13  C   UNL     1      37.048 -10.334  -3.154  1.00  0.00     0.027 C 
HETATM   14  H   UNL     1      38.379 -12.386  -4.211  1.00  0.00     0.163 HD
ENDROOT
BRANCH   1  15
HETATM   15  C   UNL     1      40.577 -13.558  -0.622  1.00  0.00     0.146 C 
BRANCH  15  16
HETATM   16  C   UNL     1      40.765 -14.559   0.492  1.00  0.00     0.224 C 
HETATM   17  N   UNL     1      42.020 -14.549   1.054  1.00  0.00    -0.327 N 
HETATM   18  H   UNL     1      42.689 -13.863   0.715  1.00  0.00     0.169 HD
HETATM   19  O   UNL     1      39.803 -15.258   0.812  1.00  0.00    -0.273 OA
BRANCH  17  20
HETATM   20  C   UNL     1      42.516 -15.413   2.057  1.00  0.00     0.036 A 
HETATM   21  C   UNL     1      42.877 -16.744   1.836  1.00  0.00     0.053 A 
HETATM   22  C   UNL     1      43.380 -17.517   2.886  1.00  0.00     0.036 A 
HETATM   23  C   UNL     1      43.529 -16.979   4.162  1.00  0.00     0.024 A 
HETATM   24 CL   UNL     1      43.828 -19.154   2.595  1.00  0.00    -0.084 Cl
HETATM   25  C   UNL     1      43.167 -15.654   4.392  1.00  0.00     0.004 A 
HETATM   26  C   UNL     1      42.662 -14.878   3.345  1.00  0.00     0.029 A 
ENDBRANCH  17  20
ENDBRANCH  15  16
ENDBRANCH   1  15
TORSDOF 3
ENDMDL
MODEL 10
REMARK VINA RESULT:      -7.4      4.977      6.051
REMARK  3 active torsions:
REMARK  status: ('A' for Active; 'I' for Inactive)
REMARK    1  A    between atoms: C_6  and  N_7 
REMARK       I    between atoms: N_7  and  C_8 
REMARK    2  A    between atoms: C_8  and  C_9 
REMARK    3  A    between atoms: C_9  and  C_10 
ROOT
HETATM    1  C   UNL     1      43.391 -13.176   6.116  1.00  0.00     0.286 C 
HETATM    2  N   UNL     1      42.403 -13.040   4.955  1.00  0.00    -0.056 N 
HETATM    3  H   UNL     1      42.962 -12.815   4.121  1.00  0.00     0.278 HD
HETATM    4  H   UNL     1      42.030 -13.986   4.726  1.00  0.00     0.278 HD
HETATM    5  C   UNL     1      41.319 -12.014   5.073  1.00  0.00     0.209 C 
HETATM    6  C   UNL     1      41.936 -10.677   5.541  1.00  0.00     0.115 C 
HETATM    7  N   UNL     1      42.745 -10.846   6.744  1.00  0.00    -0.353 N 
HETATM    8  C   UNL     1      43.561 -11.918   6.982  1.00  0.00     0.249 C 
HETATM    9  O   UNL     1      44.375 -11.874   7.899  1.00  0.00    -0.271 OA
HETATM   10  C   UNL     1      40.201 -12.505   5.993  1.00  0.00     0.035 C 
HETATM   11  C   UNL     1      39.126 -11.432   6.154  1.00  0.00     0.002 C 
HETATM   12  C   UNL     1      39.717 -10.116   6.656  1.00  0.00     0.002 C 
HETATM   13  C   UNL     1      40.847  -9.620   5.754  1.00  0.00     0.027 C 
HETATM   14  H   UNL     1      42.977 -10.027   7.304  1.00  0.00     0.163 HD
ENDROOT
BRANCH   1  15
HETATM   15  C   UNL     1      43.080 -14.384   7.011  1.00  0.00     0.146 C 
BRANCH  15  16
HETATM   16  C   UNL     1      42.692 -15.568   6.158  1.00  0.00     0.224 C 
HETATM   17  N   UNL     1      43.727 -16.100   5.427  1.00  0.00    -0.327 N 
HETATM   18  H   UNL     1      44.652 -15.695   5.545  1.00  0.00     0.169 HD
HETATM   19  O   UNL     1      41.526 -15.961   6.208  1.00  0.00    -0.273 OA
BRANCH  17  20
HETATM   20  C   UNL     1      43.659 -17.156   4.489  1.00  0.00     0.036 A 
HETATM   21  C   UNL     1      43.878 -18.498   4.804  1.00  0.00     0.053 A 
HETATM   22  C   UNL     1      43.765 -19.478   3.813  1.00  0.00     0.036 A 
HETATM   23  C   UNL     1      43.435 -19.135   2.504  1.00  0.00     0.024 A 
HETATM   24 CL   UNL     1      44.030 -21.130   4.219  1.00  0.00    -0.084 Cl
HETATM   25  C   UNL     1      43.220 -17.798   2.181  1.00  0.00     0.004 A 
HETATM   26  C   UNL     1      43.332 -16.815   3.168  1.00  0.00     0.029 A 
ENDBRANCH  17  20
ENDBRANCH  15  16
ENDBRANCH   1  15
TORSDOF 3
ENDMDL
