MODEL 1
REMARK VINA RESULT:      -8.6      0.000      0.000
REMARK  4 active torsions:
REMARK  status: ('A' for Active; 'I' for Inactive)
REMARK    1  A    between atoms: C_6  and  N_7 
REMARK       I    between atoms: N_7  and  C_8 
REMARK    2  A    between atoms: C_8  and  C_9 
REMARK    3  A    between atoms: C_10  and  C_11 
REMARK    4  A    between atoms: C_14  and  O_15 
ROOT
HETATM    1  C   UNL     1      41.742 -13.511   5.655  1.00  0.00     0.062 C 
HETATM    2  C   UNL     1      40.508 -12.793   5.122  1.00  0.00     0.202 C 
HETATM    3  N   UNL     1      40.385 -11.463   5.731  1.00  0.00    -0.084 N 
HETATM    4  C   UNL     1      41.371 -10.864   6.469  1.00  0.00     0.725 A 
HETATM    5  N   UNL     1      42.521 -11.529   6.701  1.00  0.00    -0.192 N 
HETATM    6  N   UNL     1      39.264 -10.712   5.712  1.00  0.00    -0.149 NA
HETATM    7  C   UNL     1      39.680  -9.632   6.383  1.00  0.00     0.275 A 
HETATM    8  N   UNL     1      40.962  -9.687   6.870  1.00  0.00    -0.054 NA
HETATM    9  C   UNL     1      42.696 -12.869   6.373  1.00  0.00     0.037 C 
HETATM   10  C   UNL     1      43.971 -13.509   6.860  1.00  0.00     0.070 C 
HETATM   11  H   UNL     1      43.225 -11.089   7.288  1.00  0.00     0.184 HD
ENDROOT
BRANCH   1  12
HETATM   12  C   UNL     1      41.785 -14.970   5.391  1.00  0.00     0.256 C 
HETATM   13  N   UNL     1      42.586 -15.272   4.308  1.00  0.00    -0.323 N 
HETATM   14  H   UNL     1      42.996 -14.489   3.818  1.00  0.00     0.169 HD
HETATM   15  O   UNL     1      41.176 -15.739   6.120  1.00  0.00    -0.267 OA
BRANCH  13  16
HETATM   16  C   UNL     1      42.916 -16.554   3.808  1.00  0.00     0.041 A 
HETATM   17  C   UNL     1      42.269 -17.016   2.640  1.00  0.00    -0.035 A 
HETATM   18  C   UNL     1      42.608 -18.277   2.114  1.00  0.00     0.015 A 
HETATM   19  C   UNL     1      41.224 -16.205   1.921  1.00  0.00     0.050 C 
HETATM   20  C   UNL     1      43.561 -19.092   2.734  1.00  0.00    -0.061 A 
HETATM   21  C   UNL     1      43.943 -20.414   2.140  1.00  0.00     0.048 C 
HETATM   22  C   UNL     1      44.197 -18.624   3.883  1.00  0.00     0.009 A 
HETATM   23  C   UNL     1      43.873 -17.372   4.415  1.00  0.00     0.030 A 
ENDBRANCH  13  16
ENDBRANCH   1  12
BRANCH   2  24
HETATM   24  C   UNL     1      40.480 -12.670   3.603  1.00  0.00    -0.028 A 
HETATM   25  C   UNL     1      39.363 -13.118   2.885  1.00  0.00     0.012 A 
HETATM   26  C   UNL     1      39.326 -13.017   1.491  1.00  0.00     0.037 A 
HETATM   27  C   UNL     1      40.398 -12.468   0.786  1.00  0.00     0.068 A 
HETATM   28  C   UNL     1      41.515 -12.020   1.490  1.00  0.00     0.037 A 
HETATM   29  C   UNL     1      41.558 -12.120   2.885  1.00  0.00     0.012 A 
BRANCH  27  30
HETATM   30  O   UNL     1      40.230 -12.429  -0.571  1.00  0.00    -0.356 OA
HETATM   31  C   UNL     1      39.760 -13.618  -1.193  1.00  0.00     0.210 C 
ENDBRANCH  27  30
ENDBRANCH   2  24
TORSDOF 4
ENDMDL
MODEL 2
REMARK VINA RESULT:      -8.5      2.743      5.015
REMARK  4 active torsions:
REMARK  status: ('A' for Active; 'I' for Inactive)
REMARK    1  A    between atoms: C_6  and  N_7 
REMARK       I    between atoms: N_7  and  C_8 
REMARK    2  A    between atoms: C_8  and  C_9 
REMARK    3  A    between atoms: C_10  and  C_11 
REMARK    4  A    between atoms: C_14  and  O_15 
ROOT
HETATM    1  C   UNL     1      41.859 -14.028   1.810  1.00  0.00     0.062 C 
HETATM    2  C   UNL     1      42.438 -12.637   2.038  1.00  0.00     0.202 C 
HETATM    3  N   UNL     1      41.576 -11.616   1.428  1.00  0.00    -0.084 N 
HETATM    4  C   UNL     1      40.316 -11.863   0.952  1.00  0.00     0.725 A 
HETATM    5  N   UNL     1      39.825 -13.118   0.997  1.00  0.00    -0.192 N 
HETATM    6  N   UNL     1      41.951 -10.343   1.184  1.00  0.00    -0.149 NA
HETATM    7  C   UNL     1      40.829  -9.857   0.641  1.00  0.00     0.275 A 
HETATM    8  N   UNL     1      39.806 -10.756   0.474  1.00  0.00    -0.054 NA
HETATM    9  C   UNL     1      40.600 -14.219   1.346  1.00  0.00     0.037 C 
HETATM   10  C   UNL     1      39.950 -15.567   1.173  1.00  0.00     0.070 C 
HETATM   11  H   UNL     1      38.906 -13.293   0.599  1.00  0.00     0.184 HD
ENDROOT
BRANCH   1  12
HETATM   12  C   UNL     1      42.796 -15.149   2.065  1.00  0.00     0.256 C 
HETATM   13  N   UNL     1      42.346 -15.975   3.075  1.00  0.00    -0.323 N 
HETATM   14  H   UNL     1      41.487 -15.701   3.532  1.00  0.00     0.169 HD
HETATM   15  O   UNL     1      43.806 -15.265   1.388  1.00  0.00    -0.267 OA
BRANCH  13  16
HETATM   16  C   UNL     1      42.938 -17.173   3.542  1.00  0.00     0.041 A 
HETATM   17  C   UNL     1      43.310 -17.263   4.902  1.00  0.00    -0.035 A 
HETATM   18  C   UNL     1      43.874 -18.458   5.387  1.00  0.00     0.015 A 
HETATM   19  C   UNL     1      43.121 -16.124   5.869  1.00  0.00     0.050 C 
HETATM   20  C   UNL     1      44.090 -19.555   4.547  1.00  0.00    -0.061 A 
HETATM   21  C   UNL     1      44.652 -20.836   5.085  1.00  0.00     0.048 C 
HETATM   22  C   UNL     1      43.714 -19.457   3.207  1.00  0.00     0.009 A 
HETATM   23  C   UNL     1      43.151 -18.277   2.712  1.00  0.00     0.030 A 
ENDBRANCH  13  16
ENDBRANCH   1  12
BRANCH   2  24
HETATM   24  C   UNL     1      42.671 -12.305   3.507  1.00  0.00    -0.028 A 
HETATM   25  C   UNL     1      43.884 -11.729   3.911  1.00  0.00     0.012 A 
HETATM   26  C   UNL     1      44.114 -11.425   5.255  1.00  0.00     0.037 A 
HETATM   27  C   UNL     1      43.143 -11.686   6.223  1.00  0.00     0.068 A 
HETATM   28  C   UNL     1      41.933 -12.258   5.834  1.00  0.00     0.037 A 
HETATM   29  C   UNL     1      41.698 -12.566   4.489  1.00  0.00     0.012 A 
BRANCH  27  30
HETATM   30  O   UNL     1      43.497 -11.338   7.498  1.00  0.00    -0.356 OA
HETATM   31  C   UNL     1      44.480 -10.319   7.634  1.00  0.00     0.210 C 
ENDBRANCH  27  30
ENDBRANCH   2  24
TORSDOF 4
ENDMDL
MODEL 3
REMARK VINA RESULT:      -8.1      2.614      4.803
REMARK  4 active torsions:
REMARK  status: ('A' for Active; 'I' for Inactive)
REMARK    1  A    between atoms: C_6  and  N_7 
REMARK       I    between atoms: N_7  and  C_8 
REMARK    2  A    between atoms: C_8  and  C_9 
REMARK    3  A    between atoms: C_10  and  C_11 
REMARK    4  A    between atoms: C_14  and  O_15 
ROOT
HETATM    1  C   UNL     1      40.847 -14.128   1.746  1.00  0.00     0.062 C 
HETATM    2  C   UNL     1      41.412 -12.877   2.409  1.00  0.00     0.202 C 
HETATM    3  N   UNL     1      41.467 -11.767   1.448  1.00  0.00    -0.084 N 
HETATM    4  C   UNL     1      40.864 -11.788   0.219  1.00  0.00     0.725 A 
HETATM    5  N   UNL     1      40.205 -12.896  -0.177  1.00  0.00    -0.192 N 
HETATM    6  N   UNL     1      42.186 -10.639   1.621  1.00  0.00    -0.149 NA
HETATM    7  C   UNL     1      41.893  -9.985   0.491  1.00  0.00     0.275 A 
HETATM    8  N   UNL     1      41.092 -10.656  -0.398  1.00  0.00    -0.054 NA
HETATM    9  C   UNL     1      40.249 -14.092   0.531  1.00  0.00     0.037 C 
HETATM   10  C   UNL     1      39.607 -15.281  -0.139  1.00  0.00     0.070 C 
HETATM   11  H   UNL     1      39.801 -12.911  -1.110  1.00  0.00     0.184 HD
ENDROOT
BRANCH   1  12
HETATM   12  C   UNL     1      41.064 -15.389   2.495  1.00  0.00     0.256 C 
HETATM   13  N   UNL     1      42.342 -15.881   2.313  1.00  0.00    -0.323 N 
HETATM   14  H   UNL     1      42.937 -15.364   1.680  1.00  0.00     0.169 HD
HETATM   15  O   UNL     1      40.170 -15.846   3.191  1.00  0.00    -0.267 OA
BRANCH  13  16
HETATM   16  C   UNL     1      42.925 -17.018   2.920  1.00  0.00     0.041 A 
HETATM   17  C   UNL     1      43.412 -16.911   4.241  1.00  0.00    -0.035 A 
HETATM   18  C   UNL     1      43.969 -18.042   4.868  1.00  0.00     0.015 A 
HETATM   19  C   UNL     1      43.354 -15.624   5.021  1.00  0.00     0.050 C 
HETATM   20  C   UNL     1      44.066 -19.269   4.202  1.00  0.00    -0.061 A 
HETATM   21  C   UNL     1      44.623 -20.476   4.895  1.00  0.00     0.048 C 
HETATM   22  C   UNL     1      43.578 -19.365   2.899  1.00  0.00     0.009 A 
HETATM   23  C   UNL     1      43.020 -18.250   2.265  1.00  0.00     0.030 A 
ENDBRANCH  13  16
ENDBRANCH   1  12
BRANCH   2  24
HETATM   24  C   UNL     1      40.644 -12.444   3.653  1.00  0.00    -0.028 A 
HETATM   25  C   UNL     1      39.468 -11.692   3.522  1.00  0.00     0.012 A 
HETATM   26  C   UNL     1      38.757 -11.283   4.653  1.00  0.00     0.037 A 
HETATM   27  C   UNL     1      39.201 -11.613   5.934  1.00  0.00     0.068 A 
HETATM   28  C   UNL     1      40.369 -12.360   6.077  1.00  0.00     0.037 A 
HETATM   29  C   UNL     1      41.086 -12.771   4.947  1.00  0.00     0.012 A 
BRANCH  27  30
HETATM   30  O   UNL     1      38.410 -11.151   6.951  1.00  0.00    -0.356 OA
HETATM   31  C   UNL     1      39.044 -10.356   7.945  1.00  0.00     0.210 C 
ENDBRANCH  27  30
ENDBRANCH   2  24
TORSDOF 4
ENDMDL
MODEL 4
REMARK VINA RESULT:      -8.0      2.703      5.842
REMARK  4 active torsions:
REMARK  status: ('A' for Active; 'I' for Inactive)
REMARK    1  A    between atoms: C_6  and  N_7 
REMARK       I    between atoms: N_7  and  C_8 
REMARK    2  A    between atoms: C_8  and  C_9 
REMARK    3  A    between atoms: C_10  and  C_11 
REMARK    4  A    between atoms: C_14  and  O_15 
ROOT
HETATM    1  C   UNL     1      41.733 -15.620   3.691  1.00  0.00     0.062 C 
HETATM    2  C   UNL     1      41.554 -15.003   5.073  1.00  0.00     0.202 C 
HETATM    3  N   UNL     1      42.500 -15.596   6.027  1.00  0.00    -0.084 N 
HETATM    4  C   UNL     1      43.552 -16.395   5.665  1.00  0.00     0.725 A 
HETATM    5  N   UNL     1      43.732 -16.706   4.366  1.00  0.00    -0.192 N 
HETATM    6  N   UNL     1      42.398 -15.499   7.368  1.00  0.00    -0.149 NA
HETATM    7  C   UNL     1      43.478 -16.191   7.748  1.00  0.00     0.275 A 
HETATM    8  N   UNL     1      44.209 -16.762   6.736  1.00  0.00    -0.054 NA
HETATM    9  C   UNL     1      42.799 -16.397   3.381  1.00  0.00     0.037 C 
HETATM   10  C   UNL     1      43.067 -16.971   2.013  1.00  0.00     0.070 C 
HETATM   11  H   UNL     1      44.490 -17.337   4.119  1.00  0.00     0.184 HD
ENDROOT
BRANCH   1  12
HETATM   12  C   UNL     1      40.624 -15.367   2.740  1.00  0.00     0.256 C 
HETATM   13  N   UNL     1      40.924 -14.345   1.861  1.00  0.00    -0.323 N 
HETATM   14  H   UNL     1      41.813 -13.882   1.996  1.00  0.00     0.169 HD
HETATM   15  O   UNL     1      39.614 -16.053   2.784  1.00  0.00    -0.267 OA
BRANCH  13  16
HETATM   16  C   UNL     1      40.141 -13.875   0.781  1.00  0.00     0.041 A 
HETATM   17  C   UNL     1      39.539 -12.602   0.879  1.00  0.00    -0.035 A 
HETATM   18  C   UNL     1      38.780 -12.109  -0.199  1.00  0.00     0.015 A 
HETATM   19  C   UNL     1      39.680 -11.734   2.103  1.00  0.00     0.050 C 
HETATM   20  C   UNL     1      38.595 -12.862  -1.363  1.00  0.00    -0.061 A 
HETATM   21  C   UNL     1      37.820 -12.309  -2.521  1.00  0.00     0.048 C 
HETATM   22  C   UNL     1      39.198 -14.116  -1.453  1.00  0.00     0.009 A 
HETATM   23  C   UNL     1      39.957 -14.617  -0.390  1.00  0.00     0.030 A 
ENDBRANCH  13  16
ENDBRANCH   1  12
BRANCH   2  24
HETATM   24  C   UNL     1      41.691 -13.485   5.087  1.00  0.00    -0.028 A 
HETATM   25  C   UNL     1      40.664 -12.695   5.622  1.00  0.00     0.012 A 
HETATM   26  C   UNL     1      40.773 -11.301   5.636  1.00  0.00     0.037 A 
HETATM   27  C   UNL     1      41.904 -10.668   5.119  1.00  0.00     0.068 A 
HETATM   28  C   UNL     1      42.931 -11.443   4.583  1.00  0.00     0.037 A 
HETATM   29  C   UNL     1      42.827 -12.839   4.566  1.00  0.00     0.012 A 
BRANCH  27  30
HETATM   30  O   UNL     1      41.881  -9.302   5.197  1.00  0.00    -0.356 OA
HETATM   31  C   UNL     1      41.008  -8.624   4.302  1.00  0.00     0.210 C 
ENDBRANCH  27  30
ENDBRANCH   2  24
TORSDOF 4
ENDMDL
MODEL 5
REMARK VINA RESULT:      -7.7      2.185      5.703
REMARK  4 active torsions:
REMARK  status: ('A' for Active; 'I' for Inactive)
REMARK    1  A    between atoms: C_6  and  N_7 
REMARK       I    between atoms: N_7  and  C_8 
REMARK    2  A    between atoms: C_8  and  C_9 
REMARK    3  A    between atoms: C_10  and  C_11 
REMARK    4  A    between atoms: C_14  and  O_15 
ROOT
HETATM    1  C   UNL     1      41.488 -12.437   5.171  1.00  0.00     0.062 C 
HETATM    2  C   UNL     1      42.919 -12.952   5.255  1.00  0.00     0.202 C 
HETATM    3  N   UNL     1      43.732 -12.073   6.107  1.00  0.00    -0.084 N 
HETATM    4  C   UNL     1      43.214 -11.088   6.906  1.00  0.00     0.725 A 
HETATM    5  N   UNL     1      41.885 -10.863   6.902  1.00  0.00    -0.192 N 
HETATM    6  N   UNL     1      45.081 -12.070   6.138  1.00  0.00    -0.149 NA
HETATM    7  C   UNL     1      45.303 -11.116   7.050  1.00  0.00     0.275 A 
HETATM    8  N   UNL     1      44.187 -10.485   7.540  1.00  0.00    -0.054 NA
HETATM    9  C   UNL     1      41.021 -11.466   5.994  1.00  0.00     0.037 C 
HETATM   10  C   UNL     1      39.597 -10.972   6.007  1.00  0.00     0.070 C 
HETATM   11  H   UNL     1      41.521 -10.100   7.466  1.00  0.00     0.184 HD
ENDROOT
BRANCH   1  12
HETATM   12  C   UNL     1      40.671 -13.024   4.081  1.00  0.00     0.256 C 
HETATM   13  N   UNL     1      40.990 -12.482   2.852  1.00  0.00    -0.323 N 
HETATM   14  H   UNL     1      41.684 -11.747   2.850  1.00  0.00     0.169 HD
HETATM   15  O   UNL     1      39.859 -13.901   4.332  1.00  0.00    -0.267 OA
BRANCH  13  16
HETATM   16  C   UNL     1      40.470 -12.842   1.586  1.00  0.00     0.041 A 
HETATM   17  C   UNL     1      40.983 -13.989   0.941  1.00  0.00    -0.035 A 
HETATM   18  C   UNL     1      40.455 -14.376  -0.306  1.00  0.00     0.015 A 
HETATM   19  C   UNL     1      42.081 -14.829   1.538  1.00  0.00     0.050 C 
HETATM   20  C   UNL     1      39.442 -13.639  -0.928  1.00  0.00    -0.061 A 
HETATM   21  C   UNL     1      38.860 -14.085  -2.235  1.00  0.00     0.048 C 
HETATM   22  C   UNL     1      38.939 -12.511  -0.279  1.00  0.00     0.009 A 
HETATM   23  C   UNL     1      39.452 -12.116   0.960  1.00  0.00     0.030 A 
ENDBRANCH  13  16
ENDBRANCH   1  12
BRANCH   2  24
HETATM   24  C   UNL     1      43.024 -14.390   5.750  1.00  0.00    -0.028 A 
HETATM   25  C   UNL     1      43.264 -15.427   4.838  1.00  0.00     0.012 A 
HETATM   26  C   UNL     1      43.356 -16.751   5.276  1.00  0.00     0.037 A 
HETATM   27  C   UNL     1      43.213 -17.068   6.628  1.00  0.00     0.068 A 
HETATM   28  C   UNL     1      42.973 -16.045   7.544  1.00  0.00     0.037 A 
HETATM   29  C   UNL     1      42.878 -14.717   7.110  1.00  0.00     0.012 A 
BRANCH  27  30
HETATM   30  O   UNL     1      43.327 -18.400   6.918  1.00  0.00    -0.356 OA
HETATM   31  C   UNL     1      43.703 -19.259   5.849  1.00  0.00     0.210 C 
ENDBRANCH  27  30
ENDBRANCH   2  24
TORSDOF 4
ENDMDL
MODEL 6
REMARK VINA RESULT:      -7.7      2.283      6.478
REMARK  4 active torsions:
REMARK  status: ('A' for Active; 'I' for Inactive)
REMARK    1  A    between atoms: C_6  and  N_7 
REMARK       I    between atoms: N_7  and  C_8 
REMARK    2  A    between atoms: C_8  and  C_9 
REMARK    3  A    between atoms: C_10  and  C_11 
REMARK    4  A    between atoms: C_14  and  O_15 
ROOT
HETATM    1  C   UNL     1      43.443 -15.550   5.895  1.00  0.00     0.062 C 
HETATM    2  C   UNL     1      43.687 -16.285   4.583  1.00  0.00     0.202 C 
HETATM    3  N   UNL     1      43.845 -17.725   4.822  1.00  0.00    -0.084 N 
HETATM    4  C   UNL     1      43.561 -18.340   6.014  1.00  0.00     0.725 A 
HETATM    5  N   UNL     1      43.146 -17.596   7.059  1.00  0.00    -0.192 N 
HETATM    6  N   UNL     1      44.369 -18.597   3.936  1.00  0.00    -0.149 NA
HETATM    7  C   UNL     1      44.285 -19.737   4.632  1.00  0.00     0.275 A 
HETATM    8  N   UNL     1      43.802 -19.622   5.911  1.00  0.00    -0.054 NA
HETATM    9  C   UNL     1      43.154 -16.205   7.046  1.00  0.00     0.037 C 
HETATM   10  C   UNL     1      42.831 -15.530   8.354  1.00  0.00     0.070 C 
HETATM   11  H   UNL     1      42.983 -18.061   7.949  1.00  0.00     0.184 HD
ENDROOT
BRANCH   1  12
HETATM   12  C   UNL     1      43.614 -14.079   5.833  1.00  0.00     0.256 C 
HETATM   13  N   UNL     1      42.436 -13.438   5.506  1.00  0.00    -0.323 N 
HETATM   14  H   UNL     1      41.640 -14.030   5.313  1.00  0.00     0.169 HD
HETATM   15  O   UNL     1      44.700 -13.580   6.089  1.00  0.00    -0.267 OA
BRANCH  13  16
HETATM   16  C   UNL     1      42.203 -12.045   5.422  1.00  0.00     0.041 A 
HETATM   17  C   UNL     1      41.844 -11.488   4.175  1.00  0.00    -0.035 A 
HETATM   18  C   UNL     1      41.582 -10.108   4.082  1.00  0.00     0.015 A 
HETATM   19  C   UNL     1      41.722 -12.319   2.925  1.00  0.00     0.050 C 
HETATM   20  C   UNL     1      41.685  -9.271   5.198  1.00  0.00    -0.061 A 
HETATM   21  C   UNL     1      41.362  -7.811   5.095  1.00  0.00     0.048 C 
HETATM   22  C   UNL     1      42.035  -9.831   6.426  1.00  0.00     0.009 A 
HETATM   23  C   UNL     1      42.296 -11.201   6.534  1.00  0.00     0.030 A 
ENDBRANCH  13  16
ENDBRANCH   1  12
BRANCH   2  24
HETATM   24  C   UNL     1      42.598 -16.053   3.540  1.00  0.00    -0.028 A 
HETATM   25  C   UNL     1      42.949 -15.699   2.230  1.00  0.00     0.012 A 
HETATM   26  C   UNL     1      41.963 -15.477   1.266  1.00  0.00     0.037 A 
HETATM   27  C   UNL     1      40.610 -15.604   1.585  1.00  0.00     0.068 A 
HETATM   28  C   UNL     1      40.249 -15.955   2.885  1.00  0.00     0.037 A 
HETATM   29  C   UNL     1      41.233 -16.177   3.855  1.00  0.00     0.012 A 
BRANCH  27  30
HETATM   30  O   UNL     1      39.752 -15.360   0.548  1.00  0.00    -0.356 OA
HETATM   31  C   UNL     1      40.138 -14.354  -0.381  1.00  0.00     0.210 C 
ENDBRANCH  27  30
ENDBRANCH   2  24
TORSDOF 4
ENDMDL
MODEL 7
REMARK VINA RESULT:      -7.2      2.803      6.909
REMARK  4 active torsions:
REMARK  status: ('A' for Active; 'I' for Inactive)
REMARK    1  A    between atoms: C_6  and  N_7 
REMARK       I    between atoms: N_7  and  C_8 
REMARK    2  A    between atoms: C_8  and  C_9 
REMARK    3  A    between atoms: C_10  and  C_11 
REMARK    4  A    between atoms: C_14  and  O_15 
ROOT
HETATM    1  C   UNL     1      42.443 -14.315   3.563  1.00  0.00     0.062 C 
HETATM    2  C   UNL     1      42.153 -14.252   5.058  1.00  0.00     0.202 C 
HETATM    3  N   UNL     1      42.512 -15.521   5.704  1.00  0.00    -0.084 N 
HETATM    4  C   UNL     1      43.233 -16.513   5.095  1.00  0.00     0.725 A 
HETATM    5  N   UNL     1      43.618 -16.360   3.812  1.00  0.00    -0.192 N 
HETATM    6  N   UNL     1      42.102 -15.897   6.933  1.00  0.00    -0.149 NA
HETATM    7  C   UNL     1      42.693 -17.094   7.034  1.00  0.00     0.275 A 
HETATM    8  N   UNL     1      43.390 -17.511   5.927  1.00  0.00    -0.054 NA
HETATM    9  C   UNL     1      43.172 -15.314   3.011  1.00  0.00     0.037 C 
HETATM   10  C   UNL     1      43.552 -15.388   1.555  1.00  0.00     0.070 C 
HETATM   11  H   UNL     1      44.114 -17.124   3.361  1.00  0.00     0.184 HD
ENDROOT
BRANCH   1  12
HETATM   12  C   UNL     1      41.810 -13.245   2.754  1.00  0.00     0.256 C 
HETATM   13  N   UNL     1      40.483 -13.520   2.488  1.00  0.00    -0.323 N 
HETATM   14  H   UNL     1      40.130 -14.405   2.825  1.00  0.00     0.169 HD
HETATM   15  O   UNL     1      42.455 -12.258   2.436  1.00  0.00    -0.267 OA
BRANCH  13  16
HETATM   16  C   UNL     1      39.550 -12.703   1.807  1.00  0.00     0.041 A 
HETATM   17  C   UNL     1      38.842 -11.724   2.537  1.00  0.00    -0.035 A 
HETATM   18  C   UNL     1      37.931 -10.884   1.868  1.00  0.00     0.015 A 
HETATM   19  C   UNL     1      39.026 -11.532   4.020  1.00  0.00     0.050 C 
HETATM   20  C   UNL     1      37.700 -11.010   0.494  1.00  0.00    -0.061 A 
HETATM   21  C   UNL     1      36.759 -10.083  -0.215  1.00  0.00     0.048 C 
HETATM   22  C   UNL     1      38.408 -11.977  -0.219  1.00  0.00     0.009 A 
HETATM   23  C   UNL     1      39.317 -12.816   0.432  1.00  0.00     0.030 A 
ENDBRANCH  13  16
ENDBRANCH   1  12
BRANCH   2  24
HETATM   24  C   UNL     1      42.851 -13.097   5.768  1.00  0.00    -0.028 A 
HETATM   25  C   UNL     1      42.144 -11.920   6.052  1.00  0.00     0.012 A 
HETATM   26  C   UNL     1      42.772 -10.851   6.696  1.00  0.00     0.037 A 
HETATM   27  C   UNL     1      44.114 -10.931   7.071  1.00  0.00     0.068 A 
HETATM   28  C   UNL     1      44.828 -12.096   6.794  1.00  0.00     0.037 A 
HETATM   29  C   UNL     1      44.204 -13.170   6.147  1.00  0.00     0.012 A 
BRANCH  27  30
HETATM   30  O   UNL     1      44.601  -9.816   7.694  1.00  0.00    -0.356 OA
HETATM   31  C   UNL     1      46.008  -9.757   7.895  1.00  0.00     0.210 C 
ENDBRANCH  27  30
ENDBRANCH   2  24
TORSDOF 4
ENDMDL
MODEL 8
REMARK VINA RESULT:      -7.1      8.722     11.577
REMARK  4 active torsions:
REMARK  status: ('A' for Active; 'I' for Inactive)
REMARK    1  A    between atoms: C_6  and  N_7 
REMARK       I    between atoms: N_7  and  C_8 
REMARK    2  A    between atoms: C_8  and  C_9 
REMARK    3  A    between atoms: C_10  and  C_11 
REMARK    4  A    between atoms: C_14  and  O_15 
ROOT
HETATM    1  C   UNL     1      40.606  -7.142  12.829  1.00  0.00     0.062 C 
HETATM    2  C   UNL     1      39.939  -5.834  12.421  1.00  0.00     0.202 C 
HETATM    3  N   UNL     1      39.058  -5.351  13.491  1.00  0.00    -0.084 N 
HETATM    4  C   UNL     1      39.040  -5.867  14.760  1.00  0.00     0.725 A 
HETATM    5  N   UNL     1      39.841  -6.908  15.063  1.00  0.00    -0.192 N 
HETATM    6  N   UNL     1      38.104  -4.409  13.333  1.00  0.00    -0.149 NA
HETATM    7  C   UNL     1      37.613  -4.345  14.576  1.00  0.00     0.275 A 
HETATM    8  N   UNL     1      38.153  -5.227  15.479  1.00  0.00    -0.054 NA
HETATM    9  C   UNL     1      40.568  -7.604  14.102  1.00  0.00     0.037 C 
HETATM   10  C   UNL     1      41.271  -8.849  14.579  1.00  0.00     0.070 C 
HETATM   11  H   UNL     1      39.784  -7.308  15.995  1.00  0.00     0.184 HD
ENDROOT
BRANCH   1  12
HETATM   12  C   UNL     1      41.234  -7.901  11.721  1.00  0.00     0.256 C 
HETATM   13  N   UNL     1      42.585  -7.632  11.616  1.00  0.00    -0.323 N 
HETATM   14  H   UNL     1      42.958  -6.944  12.255  1.00  0.00     0.169 HD
HETATM   15  O   UNL     1      40.563  -8.673  11.054  1.00  0.00    -0.267 OA
BRANCH  13  16
HETATM   16  C   UNL     1      43.517  -8.218  10.726  1.00  0.00     0.041 A 
HETATM   17  C   UNL     1      43.695  -7.640   9.450  1.00  0.00    -0.035 A 
HETATM   18  C   UNL     1      44.639  -8.194   8.565  1.00  0.00     0.015 A 
HETATM   19  C   UNL     1      42.914  -6.437   8.991  1.00  0.00     0.050 C 
HETATM   20  C   UNL     1      45.394  -9.318   8.916  1.00  0.00    -0.061 A 
HETATM   21  C   UNL     1      46.426  -9.874   7.981  1.00  0.00     0.048 C 
HETATM   22  C   UNL     1      45.214  -9.878  10.181  1.00  0.00     0.009 A 
HETATM   23  C   UNL     1      44.281  -9.336  11.071  1.00  0.00     0.030 A 
ENDBRANCH  13  16
ENDBRANCH   1  12
BRANCH   2  24
HETATM   24  C   UNL     1      40.926  -4.739  12.033  1.00  0.00    -0.028 A 
HETATM   25  C   UNL     1      40.814  -4.105  10.787  1.00  0.00     0.012 A 
HETATM   26  C   UNL     1      41.716  -3.104  10.415  1.00  0.00     0.037 A 
HETATM   27  C   UNL     1      42.744  -2.714  11.274  1.00  0.00     0.068 A 
HETATM   28  C   UNL     1      42.866  -3.337  12.515  1.00  0.00     0.037 A 
HETATM   29  C   UNL     1      41.967  -4.341  12.892  1.00  0.00     0.012 A 
BRANCH  27  30
HETATM   30  O   UNL     1      43.553  -1.724  10.786  1.00  0.00    -0.356 OA
HETATM   31  C   UNL     1      43.140  -1.098   9.578  1.00  0.00     0.210 C 
ENDBRANCH  27  30
ENDBRANCH   2  24
TORSDOF 4
ENDMDL
MODEL 9
REMARK VINA RESULT:      -7.1      3.315      6.404
REMARK  4 active torsions:
REMARK  status: ('A' for Active; 'I' for Inactive)
REMARK    1  A    between atoms: C_6  and  N_7 
REMARK       I    between atoms: N_7  and  C_8 
REMARK    2  A    between atoms: C_8  and  C_9 
REMARK    3  A    between atoms: C_10  and  C_11 
REMARK    4  A    between atoms: C_14  and  O_15 
ROOT
HETATM    1  C   UNL     1      41.333 -13.869   1.471  1.00  0.00     0.062 C 
HETATM    2  C   UNL     1      41.211 -12.885   0.314  1.00  0.00     0.202 C 
HETATM    3  N   UNL     1      40.406 -13.464  -0.769  1.00  0.00    -0.084 N 
HETATM    4  C   UNL     1      39.667 -14.611  -0.645  1.00  0.00     0.725 A 
HETATM    5  N   UNL     1      39.693 -15.293   0.518  1.00  0.00    -0.192 N 
HETATM    6  N   UNL     1      40.366 -12.991  -2.032  1.00  0.00    -0.149 NA
HETATM    7  C   UNL     1      39.509 -13.853  -2.591  1.00  0.00     0.275 A 
HETATM    8  N   UNL     1      39.063 -14.865  -1.778  1.00  0.00    -0.054 NA
HETATM    9  C   UNL     1      40.570 -14.985   1.552  1.00  0.00     0.037 C 
HETATM   10  C   UNL     1      40.595 -15.953   2.708  1.00  0.00     0.070 C 
HETATM   11  H   UNL     1      39.175 -16.165   0.579  1.00  0.00     0.184 HD
ENDROOT
BRANCH   1  12
HETATM   12  C   UNL     1      42.393 -13.550   2.458  1.00  0.00     0.256 C 
HETATM   13  N   UNL     1      41.887 -12.887   3.559  1.00  0.00    -0.323 N 
HETATM   14  H   UNL     1      40.901 -12.668   3.539  1.00  0.00     0.169 HD
HETATM   15  O   UNL     1      43.545 -13.901   2.251  1.00  0.00    -0.267 OA
BRANCH  13  16
HETATM   16  C   UNL     1      42.584 -12.486   4.723  1.00  0.00     0.041 A 
HETATM   17  C   UNL     1      42.664 -11.110   5.030  1.00  0.00    -0.035 A 
HETATM   18  C   UNL     1      43.329 -10.698   6.200  1.00  0.00     0.015 A 
HETATM   19  C   UNL     1      42.054 -10.050   4.150  1.00  0.00     0.050 C 
HETATM   20  C   UNL     1      43.929 -11.625   7.060  1.00  0.00    -0.061 A 
HETATM   21  C   UNL     1      44.598 -11.177   8.324  1.00  0.00     0.048 C 
HETATM   22  C   UNL     1      43.840 -12.982   6.751  1.00  0.00     0.009 A 
HETATM   23  C   UNL     1      43.180 -13.405   5.593  1.00  0.00     0.030 A 
ENDBRANCH  13  16
ENDBRANCH   1  12
BRANCH   2  24
HETATM   24  C   UNL     1      40.635 -11.533   0.718  1.00  0.00    -0.028 A 
HETATM   25  C   UNL     1      41.344 -10.357   0.435  1.00  0.00     0.012 A 
HETATM   26  C   UNL     1      40.831  -9.111   0.805  1.00  0.00     0.037 A 
HETATM   27  C   UNL     1      39.604  -9.010   1.463  1.00  0.00     0.068 A 
HETATM   28  C   UNL     1      38.890 -10.173   1.750  1.00  0.00     0.037 A 
HETATM   29  C   UNL     1      39.400 -11.423   1.383  1.00  0.00     0.012 A 
BRANCH  27  30
HETATM   30  O   UNL     1      39.221  -7.732   1.766  1.00  0.00    -0.356 OA
HETATM   31  C   UNL     1      40.228  -6.863   2.267  1.00  0.00     0.210 C 
ENDBRANCH  27  30
ENDBRANCH   2  24
TORSDOF 4
ENDMDL
MODEL 10
REMARK VINA RESULT:      -7.1     16.661     18.551
REMARK  4 active torsions:
REMARK  status: ('A' for Active; 'I' for Inactive)
REMARK    1  A    between atoms: C_6  and  N_7 
REMARK       I    between atoms: N_7  and  C_8 
REMARK    2  A    between atoms: C_8  and  C_9 
REMARK    3  A    between atoms: C_10  and  C_11 
REMARK    4  A    between atoms: C_14  and  O_15 
ROOT
HETATM    1  C   UNL     1      47.021 -30.297  -1.890  1.00  0.00     0.062 C 
HETATM    2  C   UNL     1      45.643 -29.659  -2.009  1.00  0.00     0.202 C 
HETATM    3  N   UNL     1      45.064 -29.931  -3.331  1.00  0.00    -0.084 N 
HETATM    4  C   UNL     1      45.579 -30.836  -4.221  1.00  0.00     0.725 A 
HETATM    5  N   UNL     1      46.708 -31.503  -3.909  1.00  0.00    -0.192 N 
HETATM    6  N   UNL     1      44.016 -29.266  -3.860  1.00  0.00    -0.149 NA
HETATM    7  C   UNL     1      43.899 -29.889  -5.039  1.00  0.00     0.275 A 
HETATM    8  N   UNL     1      44.842 -30.851  -5.302  1.00  0.00    -0.054 NA
HETATM    9  C   UNL     1      47.481 -31.196  -2.794  1.00  0.00     0.037 C 
HETATM   10  C   UNL     1      48.802 -31.914  -2.686  1.00  0.00     0.070 C 
HETATM   11  H   UNL     1      47.103 -32.137  -4.598  1.00  0.00     0.184 HD
ENDROOT
BRANCH   1  12
HETATM   12  C   UNL     1      47.844 -29.809  -0.756  1.00  0.00     0.256 C 
HETATM   13  N   UNL     1      47.991 -30.771   0.223  1.00  0.00    -0.323 N 
HETATM   14  H   UNL     1      47.501 -31.643   0.075  1.00  0.00     0.169 HD
HETATM   15  O   UNL     1      48.322 -28.685  -0.789  1.00  0.00    -0.267 OA
BRANCH  13  16
HETATM   16  C   UNL     1      48.758 -30.688   1.409  1.00  0.00     0.041 A 
HETATM   17  C   UNL     1      48.093 -30.483   2.638  1.00  0.00    -0.035 A 
HETATM   18  C   UNL     1      48.841 -30.427   3.829  1.00  0.00     0.015 A 
HETATM   19  C   UNL     1      46.598 -30.326   2.731  1.00  0.00     0.050 C 
HETATM   20  C   UNL     1      50.234 -30.555   3.821  1.00  0.00    -0.061 A 
HETATM   21  C   UNL     1      51.015 -30.535   5.100  1.00  0.00     0.048 C 
HETATM   22  C   UNL     1      50.881 -30.762   2.602  1.00  0.00     0.009 A 
HETATM   23  C   UNL     1      50.150 -30.822   1.411  1.00  0.00     0.030 A 
ENDBRANCH  13  16
ENDBRANCH   1  12
BRANCH   2  24
HETATM   24  C   UNL     1      44.669 -30.098  -0.920  1.00  0.00    -0.028 A 
HETATM   25  C   UNL     1      43.946 -29.136  -0.200  1.00  0.00     0.012 A 
HETATM   26  C   UNL     1      43.056 -29.523   0.805  1.00  0.00     0.037 A 
HETATM   27  C   UNL     1      42.867 -30.871   1.113  1.00  0.00     0.068 A 
HETATM   28  C   UNL     1      43.581 -31.836   0.404  1.00  0.00     0.037 A 
HETATM   29  C   UNL     1      44.475 -31.454  -0.603  1.00  0.00     0.012 A 
BRANCH  27  30
HETATM   30  O   UNL     1      41.967 -31.108   2.115  1.00  0.00    -0.356 OA
HETATM   31  C   UNL     1      40.654 -31.488   1.721  1.00  0.00     0.210 C 
ENDBRANCH  27  30
ENDBRANCH   2  24
TORSDOF 4
ENDMDL
