MODEL 1
REMARK VINA RESULT:      -9.7      0.000      0.000
REMARK  7 active torsions:
REMARK  status: ('A' for Active; 'I' for Inactive)
REMARK    1  A    between atoms: C_5  and  N_6 
REMARK       I    between atoms: N_6  and  C_7 
REMARK    2  A    between atoms: C_7  and  C_8 
REMARK    3  A    between atoms: C_8  and  N_9 
REMARK    4  A    between atoms: N_12  and  C_13 
REMARK    5  A    between atoms: C_13  and  C_14 
REMARK    6  A    between atoms: C_29  and  C_30 
REMARK       I    between atoms: C_30  and  N_31 
REMARK    7  A    between atoms: N_31  and  C_32 
ROOT
HETATM    1  N   UNL     1      42.470 -10.768   5.182  1.00  0.00    -0.290 N 
HETATM    2  C   UNL     1      42.684 -11.085   3.851  1.00  0.00     0.332 C 
HETATM    3  O   UNL     1      43.833 -11.161   3.405  1.00  0.00    -0.246 OA
HETATM    4  N   UNL     1      41.562 -11.308   3.071  1.00  0.00    -0.261 N 
HETATM    5  C   UNL     1      40.265 -11.016   3.460  1.00  0.00     0.264 C 
HETATM    6  O   UNL     1      39.276 -11.190   2.752  1.00  0.00    -0.267 OA
HETATM    7  C   UNL     1      40.086 -10.481   4.820  1.00  0.00     0.059 A 
HETATM    8  C   UNL     1      41.191 -10.393   5.668  1.00  0.00     0.056 A 
HETATM    9  C   UNL     1      38.801 -10.121   5.257  1.00  0.00     0.020 A 
HETATM   10  C   UNL     1      38.608  -9.669   6.562  1.00  0.00     0.018 A 
HETATM   11  C   UNL     1      39.702  -9.581   7.427  1.00  0.00     0.034 A 
HETATM   12  C   UNL     1      40.989  -9.924   6.973  1.00  0.00     0.048 A 
ENDROOT
BRANCH   1  13
HETATM   13  C   UNL     1      43.593 -10.958   6.105  1.00  0.00     0.237 C 
BRANCH  13  14
HETATM   14  C   UNL     1      43.769 -12.370   6.662  1.00  0.00     0.240 C 
HETATM   15  N   UNL     1      43.457 -13.371   5.759  1.00  0.00    -0.326 N 
HETATM   16  H   UNL     1      43.205 -13.069   4.820  1.00  0.00     0.169 HD
HETATM   17  O   UNL     1      44.049 -12.520   7.848  1.00  0.00    -0.271 OA
BRANCH  15  18
HETATM   18  C   UNL     1      43.358 -14.753   6.019  1.00  0.00     0.034 A 
HETATM   19  C   UNL     1      42.150 -15.448   6.097  1.00  0.00     0.030 A 
HETATM   20  C   UNL     1      42.133 -16.831   6.313  1.00  0.00     0.009 A 
HETATM   21  C   UNL     1      43.326 -17.544   6.455  1.00  0.00    -0.062 A 
HETATM   22  C   UNL     1      43.299 -19.021   6.710  1.00  0.00     0.048 C 
HETATM   23  C   UNL     1      44.537 -16.846   6.409  1.00  0.00     0.009 A 
HETATM   24  C   UNL     1      44.552 -15.465   6.182  1.00  0.00     0.030 A 
ENDBRANCH  15  18
ENDBRANCH  13  14
ENDBRANCH   1  13
BRANCH   4  25
HETATM   25  C   UNL     1      41.758 -11.988   1.795  1.00  0.00     0.175 C 
BRANCH  25  26
HETATM   26  C   UNL     1      41.694 -13.493   1.993  1.00  0.00    -0.037 A 
HETATM   27  C   UNL     1      42.828 -14.201   2.427  1.00  0.00     0.048 A 
HETATM   28  C   UNL     1      42.759 -15.578   2.470  1.00  0.00     0.105 A 
HETATM   29  C   UNL     1      41.619 -16.259   2.113  1.00  0.00     0.105 A 
HETATM   30  O   UNL     1      43.770 -16.413   2.828  1.00  0.00    -0.323 OA
HETATM   31  O   UNL     1      41.771 -17.607   2.202  1.00  0.00    -0.323 OA
HETATM   32  C   UNL     1      40.482 -15.603   1.700  1.00  0.00     0.040 A 
HETATM   33  C   UNL     1      43.143 -17.699   2.636  1.00  0.00     0.352 A 
HETATM   34  C   UNL     1      40.524 -14.207   1.637  1.00  0.00     0.012 A 
ENDBRANCH  25  26
ENDBRANCH   4  25
BRANCH  11  35
HETATM   35  C   UNL     1      39.561  -9.110   8.829  1.00  0.00     0.252 C 
HETATM   36  N   UNL     1      40.595  -9.434   9.677  1.00  0.00    -0.352 N 
HETATM   37  H   UNL     1      41.422  -9.840   9.262  1.00  0.00     0.163 HD
HETATM   38  O   UNL     1      38.583  -8.444   9.127  1.00  0.00    -0.268 OA
BRANCH  36  39
HETATM   39  C   UNL     1      40.759  -8.966  11.054  1.00  0.00     0.084 C 
HETATM   40  C   UNL     1      41.489  -9.975  11.949  1.00  0.00     0.025 C 
HETATM   41  C   UNL     1      43.000  -9.789  12.014  1.00  0.00     0.002 C 
HETATM   42  C   UNL     1      43.373  -8.351  12.348  1.00  0.00     0.000 C 
HETATM   43  C   UNL     1      42.780  -7.363  11.352  1.00  0.00     0.002 C 
HETATM   44  C   UNL     1      41.270  -7.522  11.191  1.00  0.00     0.025 C 
ENDBRANCH  36  39
ENDBRANCH  11  35
TORSDOF 7
ENDMDL
MODEL 2
REMARK VINA RESULT:      -9.5      1.622      2.400
REMARK  7 active torsions:
REMARK  status: ('A' for Active; 'I' for Inactive)
REMARK    1  A    between atoms: C_5  and  N_6 
REMARK       I    between atoms: N_6  and  C_7 
REMARK    2  A    between atoms: C_7  and  C_8 
REMARK    3  A    between atoms: C_8  and  N_9 
REMARK    4  A    between atoms: N_12  and  C_13 
REMARK    5  A    between atoms: C_13  and  C_14 
REMARK    6  A    between atoms: C_29  and  C_30 
REMARK       I    between atoms: C_30  and  N_31 
REMARK    7  A    between atoms: N_31  and  C_32 
ROOT
HETATM    1  N   UNL     1      42.208 -11.067   4.856  1.00  0.00    -0.290 N 
HETATM    2  C   UNL     1      42.517 -10.942   3.512  1.00  0.00     0.332 C 
HETATM    3  O   UNL     1      43.541 -11.460   3.057  1.00  0.00    -0.246 OA
HETATM    4  N   UNL     1      41.630 -10.223   2.728  1.00  0.00    -0.261 N 
HETATM    5  C   UNL     1      40.600  -9.441   3.225  1.00  0.00     0.264 C 
HETATM    6  O   UNL     1      39.834  -8.783   2.526  1.00  0.00    -0.267 OA
HETATM    7  C   UNL     1      40.423  -9.430   4.687  1.00  0.00     0.059 A 
HETATM    8  C   UNL     1      41.214 -10.266   5.476  1.00  0.00     0.056 A 
HETATM    9  C   UNL     1      39.427  -8.620   5.257  1.00  0.00     0.020 A 
HETATM   10  C   UNL     1      39.209  -8.644   6.634  1.00  0.00     0.018 A 
HETATM   11  C   UNL     1      39.987  -9.481   7.437  1.00  0.00     0.034 A 
HETATM   12  C   UNL     1      40.997 -10.273   6.860  1.00  0.00     0.048 A 
ENDROOT
BRANCH   1  13
HETATM   13  C   UNL     1      42.861 -12.152   5.595  1.00  0.00     0.237 C 
BRANCH  13  14
HETATM   14  C   UNL     1      42.475 -13.571   5.179  1.00  0.00     0.240 C 
HETATM   15  N   UNL     1      43.541 -14.335   4.739  1.00  0.00    -0.326 N 
HETATM   16  H   UNL     1      44.460 -13.901   4.795  1.00  0.00     0.169 HD
HETATM   17  O   UNL     1      41.289 -13.890   5.151  1.00  0.00    -0.271 OA
BRANCH  15  18
HETATM   18  C   UNL     1      43.486 -15.610   4.138  1.00  0.00     0.034 A 
HETATM   19  C   UNL     1      43.652 -16.808   4.834  1.00  0.00     0.030 A 
HETATM   20  C   UNL     1      43.539 -18.038   4.175  1.00  0.00     0.009 A 
HETATM   21  C   UNL     1      43.256 -18.090   2.808  1.00  0.00    -0.062 A 
HETATM   22  C   UNL     1      43.159 -19.412   2.105  1.00  0.00     0.048 C 
HETATM   23  C   UNL     1      43.120 -16.892   2.102  1.00  0.00     0.009 A 
HETATM   24  C   UNL     1      43.224 -15.662   2.764  1.00  0.00     0.030 A 
ENDBRANCH  15  18
ENDBRANCH  13  14
ENDBRANCH   1  13
BRANCH   4  25
HETATM   25  C   UNL     1      41.731 -10.385   1.282  1.00  0.00     0.175 C 
BRANCH  25  26
HETATM   26  C   UNL     1      41.076 -11.688   0.857  1.00  0.00    -0.037 A 
HETATM   27  C   UNL     1      40.812 -12.692   1.806  1.00  0.00     0.048 A 
HETATM   28  C   UNL     1      40.334 -13.904   1.355  1.00  0.00     0.105 A 
HETATM   29  C   UNL     1      40.107 -14.144   0.020  1.00  0.00     0.105 A 
HETATM   30  O   UNL     1      40.063 -14.989   2.129  1.00  0.00    -0.323 OA
HETATM   31  O   UNL     1      39.663 -15.408  -0.212  1.00  0.00    -0.323 OA
HETATM   32  C   UNL     1      40.336 -13.183  -0.938  1.00  0.00     0.040 A 
HETATM   33  C   UNL     1      39.658 -15.945   1.126  1.00  0.00     0.352 A 
HETATM   34  C   UNL     1      40.828 -11.945  -0.513  1.00  0.00     0.012 A 
ENDBRANCH  25  26
ENDBRANCH   4  25
BRANCH  11  35
HETATM   35  C   UNL     1      39.802  -9.554   8.910  1.00  0.00     0.252 C 
HETATM   36  N   UNL     1      40.940  -9.394   9.666  1.00  0.00    -0.352 N 
HETATM   37  H   UNL     1      41.779  -9.106   9.182  1.00  0.00     0.163 HD
HETATM   38  O   UNL     1      38.674  -9.705   9.351  1.00  0.00    -0.268 OA
BRANCH  36  39
HETATM   39  C   UNL     1      40.997  -9.281  11.125  1.00  0.00     0.084 C 
HETATM   40  C   UNL     1      42.181 -10.037  11.740  1.00  0.00     0.025 C 
HETATM   41  C   UNL     1      43.444  -9.203  11.917  1.00  0.00     0.002 C 
HETATM   42  C   UNL     1      43.155  -7.898  12.646  1.00  0.00     0.000 C 
HETATM   43  C   UNL     1      42.092  -7.071  11.934  1.00  0.00     0.002 C 
HETATM   44  C   UNL     1      40.810  -7.857  11.672  1.00  0.00     0.025 C 
ENDBRANCH  36  39
ENDBRANCH  11  35
TORSDOF 7
ENDMDL
MODEL 3
REMARK VINA RESULT:      -9.4      2.490      9.954
REMARK  7 active torsions:
REMARK  status: ('A' for Active; 'I' for Inactive)
REMARK    1  A    between atoms: C_5  and  N_6 
REMARK       I    between atoms: N_6  and  C_7 
REMARK    2  A    between atoms: C_7  and  C_8 
REMARK    3  A    between atoms: C_8  and  N_9 
REMARK    4  A    between atoms: N_12  and  C_13 
REMARK    5  A    between atoms: C_13  and  C_14 
REMARK    6  A    between atoms: C_29  and  C_30 
REMARK       I    between atoms: C_30  and  N_31 
REMARK    7  A    between atoms: N_31  and  C_32 
ROOT
HETATM    1  N   UNL     1      41.879  -9.683   6.837  1.00  0.00    -0.290 N 
HETATM    2  C   UNL     1      42.505  -8.522   7.259  1.00  0.00     0.332 C 
HETATM    3  O   UNL     1      41.959  -7.426   7.100  1.00  0.00    -0.246 OA
HETATM    4  N   UNL     1      43.746  -8.660   7.856  1.00  0.00    -0.261 N 
HETATM    5  C   UNL     1      44.494  -9.826   7.853  1.00  0.00     0.264 C 
HETATM    6  O   UNL     1      45.607  -9.934   8.360  1.00  0.00    -0.267 OA
HETATM    7  C   UNL     1      43.884 -11.002   7.209  1.00  0.00     0.059 A 
HETATM    8  C   UNL     1      42.573 -10.916   6.736  1.00  0.00     0.056 A 
HETATM    9  C   UNL     1      44.609 -12.201   7.131  1.00  0.00     0.020 A 
HETATM   10  C   UNL     1      44.022 -13.338   6.577  1.00  0.00     0.018 A 
HETATM   11  C   UNL     1      42.710 -13.273   6.106  1.00  0.00     0.034 A 
HETATM   12  C   UNL     1      41.997 -12.061   6.169  1.00  0.00     0.048 A 
ENDROOT
BRANCH   1  13
HETATM   13  C   UNL     1      40.430  -9.621   6.617  1.00  0.00     0.237 C 
BRANCH  13  14
HETATM   14  C   UNL     1      39.570  -9.465   7.869  1.00  0.00     0.240 C 
HETATM   15  N   UNL     1      39.908  -8.371   8.648  1.00  0.00    -0.326 N 
HETATM   16  H   UNL     1      40.639  -7.765   8.281  1.00  0.00     0.169 HD
HETATM   17  O   UNL     1      38.754 -10.337   8.154  1.00  0.00    -0.271 OA
BRANCH  15  18
HETATM   18  C   UNL     1      39.420  -8.055   9.932  1.00  0.00     0.034 A 
HETATM   19  C   UNL     1      39.584  -8.872  11.052  1.00  0.00     0.030 A 
HETATM   20  C   UNL     1      39.110  -8.468  12.306  1.00  0.00     0.009 A 
HETATM   21  C   UNL     1      38.464  -7.240  12.462  1.00  0.00    -0.062 A 
HETATM   22  C   UNL     1      37.939  -6.825  13.804  1.00  0.00     0.048 C 
HETATM   23  C   UNL     1      38.270  -6.434  11.336  1.00  0.00     0.009 A 
HETATM   24  C   UNL     1      38.754  -6.834  10.085  1.00  0.00     0.030 A 
ENDBRANCH  15  18
ENDBRANCH  13  14
ENDBRANCH   1  13
BRANCH   4  25
HETATM   25  C   UNL     1      44.250  -7.526   8.624  1.00  0.00     0.175 C 
BRANCH  25  26
HETATM   26  C   UNL     1      43.567  -7.472   9.980  1.00  0.00    -0.037 A 
HETATM   27  C   UNL     1      42.820  -6.340  10.354  1.00  0.00     0.048 A 
HETATM   28  C   UNL     1      42.326  -6.283  11.640  1.00  0.00     0.105 A 
HETATM   29  C   UNL     1      42.536  -7.297  12.544  1.00  0.00     0.105 A 
HETATM   30  O   UNL     1      41.620  -5.251  12.174  1.00  0.00    -0.323 OA
HETATM   31  O   UNL     1      41.987  -7.031  13.759  1.00  0.00    -0.323 OA
HETATM   32  C   UNL     1      43.244  -8.429  12.212  1.00  0.00     0.040 A 
HETATM   33  C   UNL     1      41.427  -5.723  13.524  1.00  0.00     0.352 A 
HETATM   34  C   UNL     1      43.767  -8.513  10.919  1.00  0.00     0.012 A 
ENDBRANCH  25  26
ENDBRANCH   4  25
BRANCH  11  35
HETATM   35  C   UNL     1      42.027 -14.450   5.508  1.00  0.00     0.252 C 
HETATM   36  N   UNL     1      42.842 -15.504   5.163  1.00  0.00    -0.352 N 
HETATM   37  H   UNL     1      43.806 -15.459   5.461  1.00  0.00     0.163 HD
HETATM   38  O   UNL     1      40.812 -14.429   5.401  1.00  0.00    -0.268 OA
BRANCH  36  39
HETATM   39  C   UNL     1      42.399 -16.819   4.696  1.00  0.00     0.084 C 
HETATM   40  C   UNL     1      42.078 -16.848   3.197  1.00  0.00     0.025 C 
HETATM   41  C   UNL     1      43.248 -17.249   2.306  1.00  0.00     0.002 C 
HETATM   42  C   UNL     1      43.895 -18.544   2.780  1.00  0.00     0.000 C 
HETATM   43  C   UNL     1      44.363 -18.449   4.226  1.00  0.00     0.002 C 
HETATM   44  C   UNL     1      43.257 -18.000   5.178  1.00  0.00     0.025 C 
ENDBRANCH  36  39
ENDBRANCH  11  35
TORSDOF 7
ENDMDL
MODEL 4
REMARK VINA RESULT:      -9.2      2.865      4.172
REMARK  7 active torsions:
REMARK  status: ('A' for Active; 'I' for Inactive)
REMARK    1  A    between atoms: C_5  and  N_6 
REMARK       I    between atoms: N_6  and  C_7 
REMARK    2  A    between atoms: C_7  and  C_8 
REMARK    3  A    between atoms: C_8  and  N_9 
REMARK    4  A    between atoms: N_12  and  C_13 
REMARK    5  A    between atoms: C_13  and  C_14 
REMARK    6  A    between atoms: C_29  and  C_30 
REMARK       I    between atoms: C_30  and  N_31 
REMARK    7  A    between atoms: N_31  and  C_32 
ROOT
HETATM    1  N   UNL     1      41.454 -12.329   3.724  1.00  0.00    -0.290 N 
HETATM    2  C   UNL     1      41.174 -12.714   2.423  1.00  0.00     0.332 C 
HETATM    3  O   UNL     1      42.025 -13.304   1.751  1.00  0.00    -0.246 OA
HETATM    4  N   UNL     1      39.914 -12.409   1.936  1.00  0.00    -0.261 N 
HETATM    5  C   UNL     1      39.016 -11.560   2.561  1.00  0.00     0.264 C 
HETATM    6  O   UNL     1      37.910 -11.271   2.109  1.00  0.00    -0.267 OA
HETATM    7  C   UNL     1      39.429 -10.995   3.857  1.00  0.00     0.059 A 
HETATM    8  C   UNL     1      40.631 -11.413   4.429  1.00  0.00     0.056 A 
HETATM    9  C   UNL     1      38.583 -10.091   4.518  1.00  0.00     0.020 A 
HETATM   10  C   UNL     1      38.934  -9.594   5.773  1.00  0.00     0.018 A 
HETATM   11  C   UNL     1      40.131 -10.007   6.364  1.00  0.00     0.034 A 
HETATM   12  C   UNL     1      40.982 -10.898   5.684  1.00  0.00     0.048 A 
ENDROOT
BRANCH   1  13
HETATM   13  C   UNL     1      42.570 -13.002   4.397  1.00  0.00     0.237 C 
BRANCH  13  14
HETATM   14  C   UNL     1      42.456 -14.521   4.521  1.00  0.00     0.240 C 
HETATM   15  N   UNL     1      43.386 -15.215   3.768  1.00  0.00    -0.326 N 
HETATM   16  H   UNL     1      44.073 -14.653   3.269  1.00  0.00     0.169 HD
HETATM   17  O   UNL     1      41.522 -15.006   5.154  1.00  0.00    -0.271 OA
BRANCH  15  18
HETATM   18  C   UNL     1      43.433 -16.606   3.542  1.00  0.00     0.034 A 
HETATM   19  C   UNL     1      42.894 -17.232   2.418  1.00  0.00     0.030 A 
HETATM   20  C   UNL     1      43.020 -18.616   2.241  1.00  0.00     0.009 A 
HETATM   21  C   UNL     1      43.690 -19.396   3.186  1.00  0.00    -0.062 A 
HETATM   22  C   UNL     1      43.800 -20.881   3.001  1.00  0.00     0.048 C 
HETATM   23  C   UNL     1      44.204 -18.777   4.329  1.00  0.00     0.009 A 
HETATM   24  C   UNL     1      44.086 -17.392   4.499  1.00  0.00     0.030 A 
ENDBRANCH  15  18
ENDBRANCH  13  14
ENDBRANCH   1  13
BRANCH   4  25
HETATM   25  C   UNL     1      39.473 -13.110   0.735  1.00  0.00     0.175 C 
BRANCH  25  26
HETATM   26  C   UNL     1      39.995 -12.400  -0.503  1.00  0.00    -0.037 A 
HETATM   27  C   UNL     1      40.032 -10.995  -0.553  1.00  0.00     0.048 A 
HETATM   28  C   UNL     1      40.393 -10.396  -1.741  1.00  0.00     0.105 A 
HETATM   29  C   UNL     1      40.722 -11.132  -2.855  1.00  0.00     0.105 A 
HETATM   30  O   UNL     1      40.443  -9.057  -1.973  1.00  0.00    -0.323 OA
HETATM   31  O   UNL     1      41.021 -10.349  -3.925  1.00  0.00    -0.323 OA
HETATM   32  C   UNL     1      40.716 -12.508  -2.842  1.00  0.00     0.040 A 
HETATM   33  C   UNL     1      40.822  -9.035  -3.365  1.00  0.00     0.352 A 
HETATM   34  C   UNL     1      40.346 -13.146  -1.654  1.00  0.00     0.012 A 
ENDBRANCH  25  26
ENDBRANCH   4  25
BRANCH  11  35
HETATM   35  C   UNL     1      40.560  -9.516   7.700  1.00  0.00     0.252 C 
HETATM   36  N   UNL     1      41.914  -9.341   7.867  1.00  0.00    -0.352 N 
HETATM   37  H   UNL     1      42.495  -9.424   7.045  1.00  0.00     0.163 HD
HETATM   38  O   UNL     1      39.704  -9.264   8.532  1.00  0.00    -0.268 OA
BRANCH  36  39
HETATM   39  C   UNL     1      42.568  -8.737   9.029  1.00  0.00     0.084 C 
HETATM   40  C   UNL     1      42.713  -9.706  10.209  1.00  0.00     0.025 C 
HETATM   41  C   UNL     1      44.026 -10.478  10.238  1.00  0.00     0.002 C 
HETATM   42  C   UNL     1      45.225  -9.549  10.108  1.00  0.00     0.000 C 
HETATM   43  C   UNL     1      45.156  -8.706   8.842  1.00  0.00     0.002 C 
HETATM   44  C   UNL     1      43.843  -7.938   8.713  1.00  0.00     0.025 C 
ENDBRANCH  36  39
ENDBRANCH  11  35
TORSDOF 7
ENDMDL
MODEL 5
REMARK VINA RESULT:      -9.1      1.968      8.003
REMARK  7 active torsions:
REMARK  status: ('A' for Active; 'I' for Inactive)
REMARK    1  A    between atoms: C_5  and  N_6 
REMARK       I    between atoms: N_6  and  C_7 
REMARK    2  A    between atoms: C_7  and  C_8 
REMARK    3  A    between atoms: C_8  and  N_9 
REMARK    4  A    between atoms: N_12  and  C_13 
REMARK    5  A    between atoms: C_13  and  C_14 
REMARK    6  A    between atoms: C_29  and  C_30 
REMARK       I    between atoms: C_30  and  N_31 
REMARK    7  A    between atoms: N_31  and  C_32 
ROOT
HETATM    1  N   UNL     1      41.973 -10.033   6.797  1.00  0.00    -0.290 N 
HETATM    2  C   UNL     1      41.952  -9.218   7.917  1.00  0.00     0.332 C 
HETATM    3  O   UNL     1      42.879  -9.253   8.730  1.00  0.00    -0.246 OA
HETATM    4  N   UNL     1      40.857  -8.383   8.064  1.00  0.00    -0.261 N 
HETATM    5  C   UNL     1      39.697  -8.469   7.310  1.00  0.00     0.264 C 
HETATM    6  O   UNL     1      38.718  -7.743   7.465  1.00  0.00    -0.267 OA
HETATM    7  C   UNL     1      39.670  -9.492   6.252  1.00  0.00     0.059 A 
HETATM    8  C   UNL     1      40.821 -10.239   5.995  1.00  0.00     0.056 A 
HETATM    9  C   UNL     1      38.506  -9.661   5.484  1.00  0.00     0.020 A 
HETATM   10  C   UNL     1      38.486 -10.586   4.440  1.00  0.00     0.018 A 
HETATM   11  C   UNL     1      39.631 -11.336   4.165  1.00  0.00     0.034 A 
HETATM   12  C   UNL     1      40.786 -11.174   4.953  1.00  0.00     0.048 A 
ENDROOT
BRANCH   1  13
HETATM   13  C   UNL     1      43.272 -10.581   6.392  1.00  0.00     0.237 C 
BRANCH  13  14
HETATM   14  C   UNL     1      43.590 -11.987   6.897  1.00  0.00     0.240 C 
HETATM   15  N   UNL     1      43.171 -12.995   6.047  1.00  0.00    -0.326 N 
HETATM   16  H   UNL     1      42.757 -12.699   5.165  1.00  0.00     0.169 HD
HETATM   17  O   UNL     1      44.067 -12.132   8.019  1.00  0.00    -0.271 OA
BRANCH  15  18
HETATM   18  C   UNL     1      43.168 -14.382   6.304  1.00  0.00     0.034 A 
HETATM   19  C   UNL     1      42.060 -15.084   6.780  1.00  0.00     0.030 A 
HETATM   20  C   UNL     1      42.119 -16.470   6.968  1.00  0.00     0.009 A 
HETATM   21  C   UNL     1      43.290 -17.178   6.682  1.00  0.00    -0.062 A 
HETATM   22  C   UNL     1      43.352 -18.659   6.909  1.00  0.00     0.048 C 
HETATM   23  C   UNL     1      44.411 -16.473   6.236  1.00  0.00     0.009 A 
HETATM   24  C   UNL     1      44.346 -15.089   6.038  1.00  0.00     0.030 A 
ENDBRANCH  15  18
ENDBRANCH  13  14
ENDBRANCH   1  13
BRANCH   4  25
HETATM   25  C   UNL     1      40.979  -7.278   9.009  1.00  0.00     0.175 C 
BRANCH  25  26
HETATM   26  C   UNL     1      40.807  -7.788  10.430  1.00  0.00    -0.037 A 
HETATM   27  C   UNL     1      41.696  -7.384  11.441  1.00  0.00     0.048 A 
HETATM   28  C   UNL     1      41.577  -7.970  12.684  1.00  0.00     0.105 A 
HETATM   29  C   UNL     1      40.617  -8.917  12.951  1.00  0.00     0.105 A 
HETATM   30  O   UNL     1      42.375  -7.724  13.758  1.00  0.00    -0.323 OA
HETATM   31  O   UNL     1      40.690  -9.385  14.226  1.00  0.00    -0.323 OA
HETATM   32  C   UNL     1      39.717  -9.327  11.994  1.00  0.00     0.040 A 
HETATM   33  C   UNL     1      41.819  -8.640  14.725  1.00  0.00     0.352 A 
HETATM   34  C   UNL     1      39.817  -8.758  10.721  1.00  0.00     0.012 A 
ENDBRANCH  25  26
ENDBRANCH   4  25
BRANCH  11  35
HETATM   35  C   UNL     1      39.673 -12.334   3.065  1.00  0.00     0.252 C 
HETATM   36  N   UNL     1      40.733 -13.212   3.092  1.00  0.00    -0.352 N 
HETATM   37  H   UNL     1      41.316 -13.205   3.917  1.00  0.00     0.163 HD
HETATM   38  O   UNL     1      38.767 -12.343   2.248  1.00  0.00    -0.268 OA
BRANCH  36  39
HETATM   39  C   UNL     1      40.918 -14.367   2.212  1.00  0.00     0.084 C 
HETATM   40  C   UNL     1      42.334 -14.460   1.632  1.00  0.00     0.025 C 
HETATM   41  C   UNL     1      43.303 -15.300   2.455  1.00  0.00     0.002 C 
HETATM   42  C   UNL     1      42.723 -16.670   2.776  1.00  0.00     0.000 C 
HETATM   43  C   UNL     1      41.390 -16.568   3.505  1.00  0.00     0.002 C 
HETATM   44  C   UNL     1      40.378 -15.696   2.766  1.00  0.00     0.025 C 
ENDBRANCH  36  39
ENDBRANCH  11  35
TORSDOF 7
ENDMDL
MODEL 6
REMARK VINA RESULT:      -9.0      2.388      5.586
REMARK  7 active torsions:
REMARK  status: ('A' for Active; 'I' for Inactive)
REMARK    1  A    between atoms: C_5  and  N_6 
REMARK       I    between atoms: N_6  and  C_7 
REMARK    2  A    between atoms: C_7  and  C_8 
REMARK    3  A    between atoms: C_8  and  N_9 
REMARK    4  A    between atoms: N_12  and  C_13 
REMARK    5  A    between atoms: C_13  and  C_14 
REMARK    6  A    between atoms: C_29  and  C_30 
REMARK       I    between atoms: C_30  and  N_31 
REMARK    7  A    between atoms: N_31  and  C_32 
ROOT
HETATM    1  N   UNL     1      42.832 -12.127   6.367  1.00  0.00    -0.290 N 
HETATM    2  C   UNL     1      43.089 -13.478   6.533  1.00  0.00     0.332 C 
HETATM    3  O   UNL     1      44.252 -13.888   6.591  1.00  0.00    -0.246 OA
HETATM    4  N   UNL     1      41.993 -14.318   6.631  1.00  0.00    -0.261 N 
HETATM    5  C   UNL     1      40.689 -13.943   6.348  1.00  0.00     0.264 C 
HETATM    6  O   UNL     1      39.724 -14.701   6.410  1.00  0.00    -0.267 OA
HETATM    7  C   UNL     1      40.472 -12.536   5.969  1.00  0.00     0.059 A 
HETATM    8  C   UNL     1      41.545 -11.646   6.012  1.00  0.00     0.056 A 
HETATM    9  C   UNL     1      39.181 -12.105   5.624  1.00  0.00     0.020 A 
HETATM   10  C   UNL     1      38.950 -10.764   5.320  1.00  0.00     0.018 A 
HETATM   11  C   UNL     1      40.011  -9.858   5.365  1.00  0.00     0.034 A 
HETATM   12  C   UNL     1      41.305 -10.303   5.692  1.00  0.00     0.048 A 
ENDROOT
BRANCH   1  13
HETATM   13  C   UNL     1      43.914 -11.193   6.695  1.00  0.00     0.237 C 
BRANCH  13  14
HETATM   14  C   UNL     1      44.098 -10.879   8.179  1.00  0.00     0.240 C 
HETATM   15  N   UNL     1      43.082 -10.110   8.718  1.00  0.00    -0.326 N 
HETATM   16  H   UNL     1      42.306  -9.889   8.098  1.00  0.00     0.169 HD
HETATM   17  O   UNL     1      45.138 -11.212   8.742  1.00  0.00    -0.271 OA
BRANCH  15  18
HETATM   18  C   UNL     1      43.047  -9.521   9.999  1.00  0.00     0.034 A 
HETATM   19  C   UNL     1      43.148 -10.239  11.191  1.00  0.00     0.030 A 
HETATM   20  C   UNL     1      43.151  -9.579  12.426  1.00  0.00     0.009 A 
HETATM   21  C   UNL     1      43.053  -8.187  12.489  1.00  0.00    -0.062 A 
HETATM   22  C   UNL     1      43.033  -7.489  13.816  1.00  0.00     0.048 C 
HETATM   23  C   UNL     1      42.919  -7.467  11.298  1.00  0.00     0.009 A 
HETATM   24  C   UNL     1      42.927  -8.128  10.064  1.00  0.00     0.030 A 
ENDBRANCH  15  18
ENDBRANCH  13  14
ENDBRANCH   1  13
BRANCH   4  25
HETATM   25  C   UNL     1      42.220 -15.656   7.165  1.00  0.00     0.175 C 
BRANCH  25  26
HETATM   26  C   UNL     1      42.775 -16.562   6.078  1.00  0.00    -0.037 A 
HETATM   27  C   UNL     1      42.336 -16.426   4.749  1.00  0.00     0.048 A 
HETATM   28  C   UNL     1      42.771 -17.351   3.823  1.00  0.00     0.105 A 
HETATM   29  C   UNL     1      43.618 -18.378   4.166  1.00  0.00     0.105 A 
HETATM   30  O   UNL     1      42.416 -17.389   2.511  1.00  0.00    -0.323 OA
HETATM   31  O   UNL     1      43.903 -19.190   3.113  1.00  0.00    -0.323 OA
HETATM   32  C   UNL     1      44.085 -18.535   5.451  1.00  0.00     0.040 A 
HETATM   33  C   UNL     1      43.121 -18.569   2.072  1.00  0.00     0.352 A 
HETATM   34  C   UNL     1      43.655 -17.619   6.415  1.00  0.00     0.012 A 
ENDBRANCH  25  26
ENDBRANCH   4  25
BRANCH  11  35
HETATM   35  C   UNL     1      39.829  -8.415   5.055  1.00  0.00     0.252 C 
HETATM   36  N   UNL     1      39.655  -7.586   6.140  1.00  0.00    -0.352 N 
HETATM   37  H   UNL     1      39.799  -7.988   7.055  1.00  0.00     0.163 HD
HETATM   38  O   UNL     1      39.886  -8.056   3.891  1.00  0.00    -0.268 OA
BRANCH  36  39
HETATM   39  C   UNL     1      39.602  -6.124   6.107  1.00  0.00     0.084 C 
HETATM   40  C   UNL     1      38.484  -5.543   6.982  1.00  0.00     0.025 C 
HETATM   41  C   UNL     1      38.904  -5.205   8.407  1.00  0.00     0.002 C 
HETATM   42  C   UNL     1      40.159  -4.343   8.430  1.00  0.00     0.000 C 
HETATM   43  C   UNL     1      41.319  -5.005   7.699  1.00  0.00     0.002 C 
HETATM   44  C   UNL     1      40.959  -5.422   6.275  1.00  0.00     0.025 C 
ENDBRANCH  36  39
ENDBRANCH  11  35
TORSDOF 7
ENDMDL
MODEL 7
REMARK VINA RESULT:      -8.9      3.029      8.120
REMARK  7 active torsions:
REMARK  status: ('A' for Active; 'I' for Inactive)
REMARK    1  A    between atoms: C_5  and  N_6 
REMARK       I    between atoms: N_6  and  C_7 
REMARK    2  A    between atoms: C_7  and  C_8 
REMARK    3  A    between atoms: C_8  and  N_9 
REMARK    4  A    between atoms: N_12  and  C_13 
REMARK    5  A    between atoms: C_13  and  C_14 
REMARK    6  A    between atoms: C_29  and  C_30 
REMARK       I    between atoms: C_30  and  N_31 
REMARK    7  A    between atoms: N_31  and  C_32 
ROOT
HETATM    1  N   UNL     1      39.368 -11.506   3.907  1.00  0.00    -0.290 N 
HETATM    2  C   UNL     1      39.359 -11.308   5.277  1.00  0.00     0.332 C 
HETATM    3  O   UNL     1      38.920 -12.182   6.030  1.00  0.00    -0.246 OA
HETATM    4  N   UNL     1      39.862 -10.104   5.740  1.00  0.00    -0.261 N 
HETATM    5  C   UNL     1      40.152  -9.013   4.937  1.00  0.00     0.264 C 
HETATM    6  O   UNL     1      40.571  -7.938   5.357  1.00  0.00    -0.267 OA
HETATM    7  C   UNL     1      39.953  -9.187   3.488  1.00  0.00     0.059 A 
HETATM    8  C   UNL     1      39.590 -10.441   2.995  1.00  0.00     0.056 A 
HETATM    9  C   UNL     1      40.183  -8.104   2.624  1.00  0.00     0.020 A 
HETATM   10  C   UNL     1      40.056  -8.270   1.246  1.00  0.00     0.018 A 
HETATM   11  C   UNL     1      39.701  -9.521   0.735  1.00  0.00     0.034 A 
HETATM   12  C   UNL     1      39.452 -10.594   1.610  1.00  0.00     0.048 A 
ENDROOT
BRANCH   1  13
HETATM   13  C   UNL     1      39.264 -12.888   3.428  1.00  0.00     0.237 C 
BRANCH  13  14
HETATM   14  C   UNL     1      40.573 -13.674   3.365  1.00  0.00     0.240 C 
HETATM   15  N   UNL     1      40.412 -15.042   3.498  1.00  0.00    -0.326 N 
HETATM   16  H   UNL     1      39.454 -15.379   3.562  1.00  0.00     0.169 HD
HETATM   17  O   UNL     1      41.639 -13.066   3.321  1.00  0.00    -0.271 OA
BRANCH  15  18
HETATM   18  C   UNL     1      41.427 -16.009   3.647  1.00  0.00     0.034 A 
HETATM   19  C   UNL     1      42.010 -16.699   2.583  1.00  0.00     0.030 A 
HETATM   20  C   UNL     1      43.046 -17.613   2.806  1.00  0.00     0.009 A 
HETATM   21  C   UNL     1      43.519 -17.852   4.099  1.00  0.00    -0.062 A 
HETATM   22  C   UNL     1      44.614 -18.851   4.332  1.00  0.00     0.048 C 
HETATM   23  C   UNL     1      42.916 -17.186   5.170  1.00  0.00     0.009 A 
HETATM   24  C   UNL     1      41.887 -16.265   4.944  1.00  0.00     0.030 A 
ENDBRANCH  15  18
ENDBRANCH  13  14
ENDBRANCH   1  13
BRANCH   4  25
HETATM   25  C   UNL     1      40.200 -10.020   7.157  1.00  0.00     0.175 C 
BRANCH  25  26
HETATM   26  C   UNL     1      41.709  -9.954   7.328  1.00  0.00    -0.037 A 
HETATM   27  C   UNL     1      42.548 -10.763   6.541  1.00  0.00     0.048 A 
HETATM   28  C   UNL     1      43.899 -10.762   6.820  1.00  0.00     0.105 A 
HETATM   29  C   UNL     1      44.432  -9.993   7.826  1.00  0.00     0.105 A 
HETATM   30  O   UNL     1      44.841 -11.510   6.185  1.00  0.00    -0.323 OA
HETATM   31  O   UNL     1      45.776 -10.159   7.950  1.00  0.00    -0.323 OA
HETATM   32  C   UNL     1      43.648  -9.174   8.607  1.00  0.00     0.040 A 
HETATM   33  C   UNL     1      46.025 -11.138   6.920  1.00  0.00     0.352 A 
HETATM   34  C   UNL     1      42.273  -9.160   8.355  1.00  0.00     0.012 A 
ENDBRANCH  25  26
ENDBRANCH   4  25
BRANCH  11  35
HETATM   35  C   UNL     1      39.552  -9.763  -0.724  1.00  0.00     0.252 C 
HETATM   36  N   UNL     1      39.656 -11.074  -1.128  1.00  0.00    -0.352 N 
HETATM   37  H   UNL     1      39.687 -11.778  -0.404  1.00  0.00     0.163 HD
HETATM   38  O   UNL     1      39.311  -8.814  -1.452  1.00  0.00    -0.268 OA
BRANCH  36  39
HETATM   39  C   UNL     1      39.405 -11.583  -2.477  1.00  0.00     0.084 C 
HETATM   40  C   UNL     1      40.450 -12.606  -2.939  1.00  0.00     0.025 C 
HETATM   41  C   UNL     1      40.093 -14.056  -2.640  1.00  0.00     0.002 C 
HETATM   42  C   UNL     1      38.695 -14.402  -3.134  1.00  0.00     0.000 C 
HETATM   43  C   UNL     1      37.637 -13.483  -2.538  1.00  0.00     0.002 C 
HETATM   44  C   UNL     1      37.952 -12.004  -2.751  1.00  0.00     0.025 C 
ENDBRANCH  36  39
ENDBRANCH  11  35
TORSDOF 7
ENDMDL
MODEL 8
REMARK VINA RESULT:      -8.9      2.287      6.012
REMARK  7 active torsions:
REMARK  status: ('A' for Active; 'I' for Inactive)
REMARK    1  A    between atoms: C_5  and  N_6 
REMARK       I    between atoms: N_6  and  C_7 
REMARK    2  A    between atoms: C_7  and  C_8 
REMARK    3  A    between atoms: C_8  and  N_9 
REMARK    4  A    between atoms: N_12  and  C_13 
REMARK    5  A    between atoms: C_13  and  C_14 
REMARK    6  A    between atoms: C_29  and  C_30 
REMARK       I    between atoms: C_30  and  N_31 
REMARK    7  A    between atoms: N_31  and  C_32 
ROOT
HETATM    1  N   UNL     1      40.678 -11.691   4.913  1.00  0.00    -0.290 N 
HETATM    2  C   UNL     1      39.869 -12.536   4.172  1.00  0.00     0.332 C 
HETATM    3  O   UNL     1      38.721 -12.196   3.873  1.00  0.00    -0.246 OA
HETATM    4  N   UNL     1      40.413 -13.752   3.794  1.00  0.00    -0.261 N 
HETATM    5  C   UNL     1      41.599 -14.270   4.289  1.00  0.00     0.264 C 
HETATM    6  O   UNL     1      42.061 -15.362   3.971  1.00  0.00    -0.267 OA
HETATM    7  C   UNL     1      42.340 -13.428   5.244  1.00  0.00     0.059 A 
HETATM    8  C   UNL     1      41.880 -12.140   5.518  1.00  0.00     0.056 A 
HETATM    9  C   UNL     1      43.525 -13.916   5.819  1.00  0.00     0.020 A 
HETATM   10  C   UNL     1      44.269 -13.108   6.678  1.00  0.00     0.018 A 
HETATM   11  C   UNL     1      43.826 -11.814   6.958  1.00  0.00     0.034 A 
HETATM   12  C   UNL     1      42.627 -11.341   6.393  1.00  0.00     0.048 A 
ENDROOT
BRANCH   1  13
HETATM   13  C   UNL     1      40.310 -10.271   4.948  1.00  0.00     0.237 C 
BRANCH  13  14
HETATM   14  C   UNL     1      39.456  -9.831   6.136  1.00  0.00     0.240 C 
HETATM   15  N   UNL     1      40.128  -9.032   7.043  1.00  0.00    -0.326 N 
HETATM   16  H   UNL     1      41.083  -8.777   6.799  1.00  0.00     0.169 HD
HETATM   17  O   UNL     1      38.322 -10.286   6.265  1.00  0.00    -0.271 OA
BRANCH  15  18
HETATM   18  C   UNL     1      39.672  -8.608   8.309  1.00  0.00     0.034 A 
HETATM   19  C   UNL     1      39.682  -9.411   9.450  1.00  0.00     0.030 A 
HETATM   20  C   UNL     1      39.255  -8.905  10.683  1.00  0.00     0.009 A 
HETATM   21  C   UNL     1      38.811  -7.585  10.796  1.00  0.00    -0.062 A 
HETATM   22  C   UNL     1      38.333  -7.058  12.117  1.00  0.00     0.048 C 
HETATM   23  C   UNL     1      38.770  -6.788   9.649  1.00  0.00     0.009 A 
HETATM   24  C   UNL     1      39.208  -7.293   8.418  1.00  0.00     0.030 A 
ENDBRANCH  15  18
ENDBRANCH  13  14
ENDBRANCH   1  13
BRANCH   4  25
HETATM   25  C   UNL     1      39.738 -14.485   2.728  1.00  0.00     0.175 C 
BRANCH  25  26
HETATM   26  C   UNL     1      40.145 -13.927   1.375  1.00  0.00    -0.037 A 
HETATM   27  C   UNL     1      40.663 -12.624   1.271  1.00  0.00     0.048 A 
HETATM   28  C   UNL     1      40.898 -12.116   0.010  1.00  0.00     0.105 A 
HETATM   29  C   UNL     1      40.651 -12.849  -1.126  1.00  0.00     0.105 A 
HETATM   30  O   UNL     1      41.359 -10.867  -0.269  1.00  0.00    -0.323 OA
HETATM   31  O   UNL     1      40.926 -12.155  -2.262  1.00  0.00    -0.323 OA
HETATM   32  C   UNL     1      40.162 -14.134  -1.067  1.00  0.00     0.040 A 
HETATM   33  C   UNL     1      41.355 -10.892  -1.712  1.00  0.00     0.352 A 
HETATM   34  C   UNL     1      39.904 -14.674   0.196  1.00  0.00     0.012 A 
ENDBRANCH  25  26
ENDBRANCH   4  25
BRANCH  11  35
HETATM   35  C   UNL     1      44.575 -10.903   7.863  1.00  0.00     0.252 C 
HETATM   36  N   UNL     1      43.867  -9.831   8.355  1.00  0.00    -0.352 N 
HETATM   37  H   UNL     1      42.872  -9.817   8.181  1.00  0.00     0.163 HD
HETATM   38  O   UNL     1      45.731 -11.177   8.142  1.00  0.00    -0.268 OA
BRANCH  36  39
HETATM   39  C   UNL     1      44.333  -8.883   9.369  1.00  0.00     0.084 C 
HETATM   40  C   UNL     1      43.925  -7.435   9.070  1.00  0.00     0.025 C 
HETATM   41  C   UNL     1      42.603  -7.006   9.694  1.00  0.00     0.002 C 
HETATM   42  C   UNL     1      42.561  -7.318  11.184  1.00  0.00     0.000 C 
HETATM   43  C   UNL     1      42.802  -8.796  11.463  1.00  0.00     0.002 C 
HETATM   44  C   UNL     1      44.087  -9.316  10.823  1.00  0.00     0.025 C 
ENDBRANCH  36  39
ENDBRANCH  11  35
TORSDOF 7
ENDMDL
MODEL 9
REMARK VINA RESULT:      -8.8      2.468      9.406
REMARK  7 active torsions:
REMARK  status: ('A' for Active; 'I' for Inactive)
REMARK    1  A    between atoms: C_5  and  N_6 
REMARK       I    between atoms: N_6  and  C_7 
REMARK    2  A    between atoms: C_7  and  C_8 
REMARK    3  A    between atoms: C_8  and  N_9 
REMARK    4  A    between atoms: N_12  and  C_13 
REMARK    5  A    between atoms: C_13  and  C_14 
REMARK    6  A    between atoms: C_29  and  C_30 
REMARK       I    between atoms: C_30  and  N_31 
REMARK    7  A    between atoms: N_31  and  C_32 
ROOT
HETATM    1  N   UNL     1      41.820  -9.686   6.728  1.00  0.00    -0.290 N 
HETATM    2  C   UNL     1      42.418  -8.548   7.243  1.00  0.00     0.332 C 
HETATM    3  O   UNL     1      41.895  -7.442   7.080  1.00  0.00    -0.246 OA
HETATM    4  N   UNL     1      43.605  -8.721   7.935  1.00  0.00    -0.261 N 
HETATM    5  C   UNL     1      44.341  -9.895   7.949  1.00  0.00     0.264 C 
HETATM    6  O   UNL     1      45.408 -10.033   8.542  1.00  0.00    -0.267 OA
HETATM    7  C   UNL     1      43.777 -11.039   7.214  1.00  0.00     0.059 A 
HETATM    8  C   UNL     1      42.511 -10.923   6.639  1.00  0.00     0.056 A 
HETATM    9  C   UNL     1      44.497 -12.243   7.152  1.00  0.00     0.020 A 
HETATM   10  C   UNL     1      43.949 -13.353   6.509  1.00  0.00     0.018 A 
HETATM   11  C   UNL     1      42.680 -13.256   5.935  1.00  0.00     0.034 A 
HETATM   12  C   UNL     1      41.974 -12.039   5.985  1.00  0.00     0.048 A 
ENDROOT
BRANCH   1  13
HETATM   13  C   UNL     1      40.395  -9.601   6.392  1.00  0.00     0.237 C 
BRANCH  13  14
HETATM   14  C   UNL     1      40.062  -9.548   4.902  1.00  0.00     0.240 C 
HETATM   15  N   UNL     1      39.190 -10.538   4.487  1.00  0.00    -0.326 N 
HETATM   16  H   UNL     1      38.822 -11.149   5.213  1.00  0.00     0.169 HD
HETATM   17  O   UNL     1      40.650  -8.745   4.181  1.00  0.00    -0.271 OA
BRANCH  15  18
HETATM   18  C   UNL     1      38.827 -10.854   3.161  1.00  0.00     0.034 A 
HETATM   19  C   UNL     1      37.949 -10.091   2.390  1.00  0.00     0.030 A 
HETATM   20  C   UNL     1      37.672 -10.444   1.064  1.00  0.00     0.009 A 
HETATM   21  C   UNL     1      38.269 -11.567   0.486  1.00  0.00    -0.062 A 
HETATM   22  C   UNL     1      37.949 -11.951  -0.928  1.00  0.00     0.048 C 
HETATM   23  C   UNL     1      39.125 -12.351   1.265  1.00  0.00     0.009 A 
HETATM   24  C   UNL     1      39.409 -11.990   2.588  1.00  0.00     0.030 A 
ENDBRANCH  15  18
ENDBRANCH  13  14
ENDBRANCH   1  13
BRANCH   4  25
HETATM   25  C   UNL     1      44.052  -7.621   8.783  1.00  0.00     0.175 C 
BRANCH  25  26
HETATM   26  C   UNL     1      43.339  -7.676  10.123  1.00  0.00    -0.037 A 
HETATM   27  C   UNL     1      42.328  -6.746  10.428  1.00  0.00     0.048 A 
HETATM   28  C   UNL     1      41.800  -6.754  11.702  1.00  0.00     0.105 A 
HETATM   29  C   UNL     1      42.226  -7.644  12.659  1.00  0.00     0.105 A 
HETATM   30  O   UNL     1      40.848  -5.904  12.172  1.00  0.00    -0.323 OA
HETATM   31  O   UNL     1      41.596  -7.466  13.851  1.00  0.00    -0.323 OA
HETATM   32  C   UNL     1      43.199  -8.581  12.396  1.00  0.00     0.040 A 
HETATM   33  C   UNL     1      40.739  -6.348  13.541  1.00  0.00     0.352 A 
HETATM   34  C   UNL     1      43.761  -8.593  11.116  1.00  0.00     0.012 A 
ENDBRANCH  25  26
ENDBRANCH   4  25
BRANCH  11  35
HETATM   35  C   UNL     1      42.040 -14.403   5.239  1.00  0.00     0.252 C 
HETATM   36  N   UNL     1      42.814 -15.533   5.109  1.00  0.00    -0.352 N 
HETATM   37  H   UNL     1      43.694 -15.549   5.607  1.00  0.00     0.163 HD
HETATM   38  O   UNL     1      40.882 -14.292   4.873  1.00  0.00    -0.268 OA
BRANCH  36  39
HETATM   39  C   UNL     1      42.368 -16.830   4.598  1.00  0.00     0.084 C 
HETATM   40  C   UNL     1      42.082 -16.816   3.092  1.00  0.00     0.025 C 
HETATM   41  C   UNL     1      43.267 -17.207   2.217  1.00  0.00     0.002 C 
HETATM   42  C   UNL     1      43.888 -18.521   2.672  1.00  0.00     0.000 C 
HETATM   43  C   UNL     1      44.324 -18.470   4.130  1.00  0.00     0.002 C 
HETATM   44  C   UNL     1      43.201 -18.033   5.068  1.00  0.00     0.025 C 
ENDBRANCH  36  39
ENDBRANCH  11  35
TORSDOF 7
ENDMDL
MODEL 10
REMARK VINA RESULT:      -8.7      4.257      6.121
REMARK  7 active torsions:
REMARK  status: ('A' for Active; 'I' for Inactive)
REMARK    1  A    between atoms: C_5  and  N_6 
REMARK       I    between atoms: N_6  and  C_7 
REMARK    2  A    between atoms: C_7  and  C_8 
REMARK    3  A    between atoms: C_8  and  N_9 
REMARK    4  A    between atoms: N_12  and  C_13 
REMARK    5  A    between atoms: C_13  and  C_14 
REMARK    6  A    between atoms: C_29  and  C_30 
REMARK       I    between atoms: C_30  and  N_31 
REMARK    7  A    between atoms: N_31  and  C_32 
ROOT
HETATM    1  N   UNL     1      40.481 -10.006   2.708  1.00  0.00    -0.290 N 
HETATM    2  C   UNL     1      41.314 -10.278   1.635  1.00  0.00     0.332 C 
HETATM    3  O   UNL     1      42.426 -10.780   1.821  1.00  0.00    -0.246 OA
HETATM    4  N   UNL     1      40.835  -9.965   0.374  1.00  0.00    -0.261 N 
HETATM    5  C   UNL     1      39.704  -9.201   0.131  1.00  0.00     0.264 C 
HETATM    6  O   UNL     1      39.301  -8.903  -0.990  1.00  0.00    -0.267 OA
HETATM    7  C   UNL     1      38.946  -8.747   1.309  1.00  0.00     0.059 A 
HETATM    8  C   UNL     1      39.333  -9.181   2.578  1.00  0.00     0.056 A 
HETATM    9  C   UNL     1      37.818  -7.930   1.132  1.00  0.00     0.020 A 
HETATM   10  C   UNL     1      37.057  -7.541   2.233  1.00  0.00     0.018 A 
HETATM   11  C   UNL     1      37.425  -7.972   3.509  1.00  0.00     0.034 A 
HETATM   12  C   UNL     1      38.570  -8.773   3.679  1.00  0.00     0.048 A 
ENDROOT
BRANCH   1  13
HETATM   13  C   UNL     1      40.758 -10.707   3.966  1.00  0.00     0.237 C 
BRANCH  13  14
HETATM   14  C   UNL     1      40.756 -12.233   3.894  1.00  0.00     0.240 C 
HETATM   15  N   UNL     1      42.017 -12.789   3.775  1.00  0.00    -0.326 N 
HETATM   16  H   UNL     1      42.801 -12.141   3.807  1.00  0.00     0.169 HD
HETATM   17  O   UNL     1      39.686 -12.833   3.833  1.00  0.00    -0.271 OA
BRANCH  15  18
HETATM   18  C   UNL     1      42.333 -14.140   3.521  1.00  0.00     0.034 A 
HETATM   19  C   UNL     1      42.060 -15.184   4.405  1.00  0.00     0.030 A 
HETATM   20  C   UNL     1      42.363 -16.508   4.063  1.00  0.00     0.009 A 
HETATM   21  C   UNL     1      42.942 -16.809   2.829  1.00  0.00    -0.062 A 
HETATM   22  C   UNL     1      43.284 -18.227   2.480  1.00  0.00     0.048 C 
HETATM   23  C   UNL     1      43.246 -15.763   1.953  1.00  0.00     0.009 A 
HETATM   24  C   UNL     1      42.933 -14.441   2.293  1.00  0.00     0.030 A 
ENDBRANCH  15  18
ENDBRANCH  13  14
ENDBRANCH   1  13
BRANCH   4  25
HETATM   25  C   UNL     1      41.515 -10.565  -0.768  1.00  0.00     0.175 C 
BRANCH  25  26
HETATM   26  C   UNL     1      40.889 -11.909  -1.098  1.00  0.00    -0.037 A 
HETATM   27  C   UNL     1      40.287 -12.123  -2.351  1.00  0.00     0.048 A 
HETATM   28  C   UNL     1      39.622 -13.314  -2.558  1.00  0.00     0.105 A 
HETATM   29  C   UNL     1      39.546 -14.282  -1.585  1.00  0.00     0.105 A 
HETATM   30  O   UNL     1      38.956 -13.665  -3.690  1.00  0.00    -0.323 OA
HETATM   31  O   UNL     1      38.825 -15.363  -1.983  1.00  0.00    -0.323 OA
HETATM   32  C   UNL     1      40.137 -14.119  -0.353  1.00  0.00     0.040 A 
HETATM   33  C   UNL     1      38.436 -14.957  -3.311  1.00  0.00     0.352 A 
HETATM   34  C   UNL     1      40.811 -12.919  -0.109  1.00  0.00     0.012 A 
ENDBRANCH  25  26
ENDBRANCH   4  25
BRANCH  11  35
HETATM   35  C   UNL     1      36.654  -7.595   4.722  1.00  0.00     0.252 C 
HETATM   36  N   UNL     1      35.320  -7.323   4.524  1.00  0.00    -0.352 N 
HETATM   37  H   UNL     1      34.938  -7.529   3.612  1.00  0.00     0.163 HD
HETATM   38  O   UNL     1      37.226  -7.590   5.800  1.00  0.00    -0.268 OA
BRANCH  36  39
HETATM   39  C   UNL     1      34.327  -7.073   5.570  1.00  0.00     0.084 C 
HETATM   40  C   UNL     1      33.693  -5.679   5.477  1.00  0.00     0.025 C 
HETATM   41  C   UNL     1      32.413  -5.618   4.652  1.00  0.00     0.002 C 
HETATM   42  C   UNL     1      31.411  -6.675   5.095  1.00  0.00     0.000 C 
HETATM   43  C   UNL     1      31.997  -8.079   5.025  1.00  0.00     0.002 C 
HETATM   44  C   UNL     1      33.314  -8.209   5.786  1.00  0.00     0.025 C 
ENDBRANCH  36  39
ENDBRANCH  11  35
TORSDOF 7
ENDMDL
