MODEL 1
REMARK VINA RESULT:      -9.6      0.000      0.000
REMARK  9 active torsions:
REMARK  status: ('A' for Active; 'I' for Inactive)
REMARK    1  A    between atoms: C_4  and  C_5 
REMARK    2  A    between atoms: C_16  and  C_17 
REMARK    3  A    between atoms: C_20  and  C_21 
REMARK    4  A    between atoms: C_21  and  N_22 
REMARK    5  A    between atoms: N_22  and  C_23 
REMARK    6  A    between atoms: C_23  and  N_24 
REMARK    7  A    between atoms: N_24  and  C_25 
REMARK    8  A    between atoms: C_27  and  C_28 
REMARK    9  A    between atoms: C_28  and  O_29 
ROOT
HETATM    1  C   UNL     1      41.122 -11.653   6.509  1.00  0.00     0.067 C 
HETATM    2  C   UNL     1      39.699 -11.556   5.933  1.00  0.00     0.001 C 
HETATM    3  C   UNL     1      39.662 -10.713   4.642  1.00  0.00     0.040 C 
HETATM    4  C   UNL     1      40.084  -9.256   4.894  1.00  0.00     0.206 C 
HETATM    5  N   UNL     1      40.662  -9.202   6.306  1.00  0.00    -0.065 N 
HETATM    6  H   UNL     1      41.064  -8.269   6.473  1.00  0.00     0.280 HD
HETATM    7  C   UNL     1      41.762 -10.244   6.516  1.00  0.00     0.246 C 
HETATM    8  C   UNL     1      38.861 -10.768   6.976  1.00  0.00     0.033 C 
HETATM    9  C   UNL     1      39.541  -9.430   7.312  1.00  0.00     0.236 C 
ENDROOT
BRANCH   4  10
HETATM   10  C   UNL     1      41.060  -8.704   3.830  1.00  0.00     0.155 C 
BRANCH  10  11
HETATM   11  N   UNL     1      41.489  -9.735   2.886  1.00  0.00    -0.365 N 
HETATM   12  H   UNL     1      41.743 -10.638   3.276  1.00  0.00     0.161 HD
BRANCH  11  13
HETATM   13  C   UNL     1      41.132  -9.827   1.569  1.00  0.00     0.172 C 
HETATM   14  S   UNL     1      40.113  -8.771   0.773  1.00  0.00    -0.041 SA
BRANCH  13  15
HETATM   15  N   UNL     1      41.631 -10.884   0.862  1.00  0.00    -0.333 N 
HETATM   16  H   UNL     1      42.618 -10.773   0.640  1.00  0.00     0.168 HD
BRANCH  15  17
HETATM   17  C   UNL     1      41.077 -12.138   0.521  1.00  0.00     0.035 A 
HETATM   18  C   UNL     1      40.786 -12.534  -0.784  1.00  0.00     0.047 A 
HETATM   19  C   UNL     1      40.220 -13.790  -1.055  1.00  0.00     0.041 A 
HETATM   20  C   UNL     1      39.912 -14.650   0.002  1.00  0.00     0.018 A 
HETATM   21  C   UNL     1      40.166 -14.249   1.313  1.00  0.00     0.003 A 
HETATM   22  C   UNL     1      40.743 -13.001   1.570  1.00  0.00     0.029 A 
BRANCH  19  23
HETATM   23  C   UNL     1      39.980 -14.143  -2.481  1.00  0.00     0.293 C 
HETATM   24  O   UNL     1      40.650 -13.686  -3.397  1.00  0.00    -0.259 OA
BRANCH  23  25
HETATM   25  O   UNL     1      38.946 -15.006  -2.598  1.00  0.00    -0.323 OA
HETATM   26  C   UNL     1      38.084 -14.749  -3.709  1.00  0.00     0.213 C 
ENDBRANCH  23  25
ENDBRANCH  19  23
ENDBRANCH  15  17
ENDBRANCH  13  15
ENDBRANCH  11  13
ENDBRANCH  10  11
ENDBRANCH   4  10
BRANCH   1  27
HETATM   27  C   UNL     1      42.097 -12.693   6.032  1.00  0.00     0.038 C 
HETATM   28  N   UNL     1      43.417 -12.932   6.337  1.00  0.00    -0.277 N 
HETATM   29  C   UNL     1      44.380 -12.164   7.091  1.00  0.00     0.179 C 
HETATM   30  N   UNL     1      43.862 -14.107   5.859  1.00  0.00    -0.172 NA
HETATM   31  C   UNL     1      42.886 -14.579   5.079  1.00  0.00     0.089 C 
HETATM   32  C   UNL     1      41.776 -13.708   5.139  1.00  0.00     0.061 C 
BRANCH  31  33
HETATM   33  C   UNL     1      42.989 -15.851   4.366  1.00  0.00    -0.005 A 
HETATM   34  C   UNL     1      43.327 -17.029   5.049  1.00  0.00     0.026 A 
HETATM   35  C   UNL     1      43.521 -18.238   4.362  1.00  0.00    -0.025 A 
HETATM   36  C   UNL     1      43.363 -18.272   2.958  1.00  0.00    -0.026 A 
HETATM   37  C   UNL     1      43.883 -19.414   5.040  1.00  0.00     0.012 A 
HETATM   38  C   UNL     1      42.990 -17.100   2.283  1.00  0.00     0.013 A 
HETATM   39  C   UNL     1      43.584 -19.474   2.270  1.00  0.00     0.012 A 
HETATM   40  C   UNL     1      42.804 -15.903   2.980  1.00  0.00     0.014 A 
HETATM   41  C   UNL     1      43.955 -20.631   2.958  1.00  0.00     0.001 A 
HETATM   42  C   UNL     1      44.100 -20.603   4.341  1.00  0.00     0.001 A 
ENDBRANCH  31  33
ENDBRANCH   1  27
TORSDOF 9
ENDMDL
MODEL 2
REMARK VINA RESULT:      -9.5      4.159      6.896
REMARK  9 active torsions:
REMARK  status: ('A' for Active; 'I' for Inactive)
REMARK    1  A    between atoms: C_4  and  C_5 
REMARK    2  A    between atoms: C_16  and  C_17 
REMARK    3  A    between atoms: C_20  and  C_21 
REMARK    4  A    between atoms: C_21  and  N_22 
REMARK    5  A    between atoms: N_22  and  C_23 
REMARK    6  A    between atoms: C_23  and  N_24 
REMARK    7  A    between atoms: N_24  and  C_25 
REMARK    8  A    between atoms: C_27  and  C_28 
REMARK    9  A    between atoms: C_28  and  O_29 
ROOT
HETATM    1  C   UNL     1      40.934 -11.520   3.498  1.00  0.00     0.067 C 
HETATM    2  C   UNL     1      41.430 -10.070   3.353  1.00  0.00     0.001 C 
HETATM    3  C   UNL     1      41.108  -9.229   4.604  1.00  0.00     0.040 C 
HETATM    4  C   UNL     1      39.593  -9.105   4.840  1.00  0.00     0.206 C 
HETATM    5  N   UNL     1      38.917 -10.094   3.894  1.00  0.00    -0.065 N 
HETATM    6  H   UNL     1      37.909 -10.128   4.101  1.00  0.00     0.280 HD
HETATM    7  C   UNL     1      39.485 -11.507   4.040  1.00  0.00     0.246 C 
HETATM    8  C   UNL     1      40.604  -9.443   2.198  1.00  0.00     0.033 C 
HETATM    9  C   UNL     1      39.098  -9.614   2.460  1.00  0.00     0.236 C 
ENDROOT
BRANCH   4  10
HETATM   10  C   UNL     1      39.179  -9.314   6.315  1.00  0.00     0.155 C 
BRANCH  10  11
HETATM   11  N   UNL     1      40.125  -8.701   7.246  1.00  0.00    -0.365 N 
HETATM   12  H   UNL     1      40.506  -7.796   6.987  1.00  0.00     0.161 HD
BRANCH  11  13
HETATM   13  C   UNL     1      40.188  -8.917   8.596  1.00  0.00     0.172 C 
HETATM   14  S   UNL     1      39.062  -9.768   9.487  1.00  0.00    -0.041 SA
BRANCH  13  15
HETATM   15  N   UNL     1      41.244  -8.365   9.265  1.00  0.00    -0.333 N 
HETATM   16  H   UNL     1      41.019  -7.456   9.665  1.00  0.00     0.168 HD
BRANCH  15  17
HETATM   17  C   UNL     1      42.510  -8.880   9.620  1.00  0.00     0.035 A 
HETATM   18  C   UNL     1      43.586  -8.983   8.739  1.00  0.00     0.047 A 
HETATM   19  C   UNL     1      44.817  -9.520   9.151  1.00  0.00     0.041 A 
HETATM   20  C   UNL     1      44.960  -9.990  10.459  1.00  0.00     0.018 A 
HETATM   21  C   UNL     1      43.879  -9.924  11.337  1.00  0.00     0.003 A 
HETATM   22  C   UNL     1      42.663  -9.375  10.919  1.00  0.00     0.029 A 
BRANCH  19  23
HETATM   23  C   UNL     1      45.920  -9.555   8.153  1.00  0.00     0.293 C 
HETATM   24  O   UNL     1      46.421  -8.540   7.686  1.00  0.00    -0.259 OA
BRANCH  23  25
HETATM   25  O   UNL     1      46.263 -10.828   7.855  1.00  0.00    -0.323 OA
HETATM   26  C   UNL     1      45.894 -11.246   6.539  1.00  0.00     0.213 C 
ENDBRANCH  23  25
ENDBRANCH  19  23
ENDBRANCH  15  17
ENDBRANCH  13  15
ENDBRANCH  11  13
ENDBRANCH  10  11
ENDBRANCH   4  10
BRANCH   1  27
HETATM   27  C   UNL     1      41.763 -12.572   4.182  1.00  0.00     0.038 C 
HETATM   28  N   UNL     1      42.305 -12.646   5.445  1.00  0.00    -0.277 N 
HETATM   29  C   UNL     1      42.415 -11.665   6.498  1.00  0.00     0.179 C 
HETATM   30  N   UNL     1      42.790 -13.865   5.736  1.00  0.00    -0.172 NA
HETATM   31  C   UNL     1      42.734 -14.564   4.600  1.00  0.00     0.089 C 
HETATM   32  C   UNL     1      42.123 -13.780   3.597  1.00  0.00     0.061 C 
BRANCH  31  33
HETATM   33  C   UNL     1      43.178 -15.954   4.503  1.00  0.00    -0.005 A 
HETATM   34  C   UNL     1      42.943 -16.701   3.340  1.00  0.00     0.026 A 
HETATM   35  C   UNL     1      43.280 -18.063   3.269  1.00  0.00    -0.025 A 
HETATM   36  C   UNL     1      43.877 -18.689   4.386  1.00  0.00    -0.026 A 
HETATM   37  C   UNL     1      43.024 -18.820   2.114  1.00  0.00     0.012 A 
HETATM   38  C   UNL     1      44.143 -17.929   5.535  1.00  0.00     0.013 A 
HETATM   39  C   UNL     1      44.188 -20.055   4.324  1.00  0.00     0.012 A 
HETATM   40  C   UNL     1      43.799 -16.576   5.592  1.00  0.00     0.014 A 
HETATM   41  C   UNL     1      43.915 -20.797   3.172  1.00  0.00     0.001 A 
HETATM   42  C   UNL     1      43.338 -20.179   2.067  1.00  0.00     0.001 A 
ENDBRANCH  31  33
ENDBRANCH   1  27
TORSDOF 9
ENDMDL
MODEL 3
REMARK VINA RESULT:      -9.4      2.236      2.900
REMARK  9 active torsions:
REMARK  status: ('A' for Active; 'I' for Inactive)
REMARK    1  A    between atoms: C_4  and  C_5 
REMARK    2  A    between atoms: C_16  and  C_17 
REMARK    3  A    between atoms: C_20  and  C_21 
REMARK    4  A    between atoms: C_21  and  N_22 
REMARK    5  A    between atoms: N_22  and  C_23 
REMARK    6  A    between atoms: C_23  and  N_24 
REMARK    7  A    between atoms: N_24  and  C_25 
REMARK    8  A    between atoms: C_27  and  C_28 
REMARK    9  A    between atoms: C_28  and  O_29 
ROOT
HETATM    1  C   UNL     1      42.084 -11.193   4.668  1.00  0.00     0.067 C 
HETATM    2  C   UNL     1      40.891 -10.706   5.509  1.00  0.00     0.001 C 
HETATM    3  C   UNL     1      39.549 -11.207   4.941  1.00  0.00     0.040 C 
HETATM    4  C   UNL     1      39.282 -10.661   3.528  1.00  0.00     0.206 C 
HETATM    5  N   UNL     1      40.580 -10.014   3.053  1.00  0.00    -0.065 N 
HETATM    6  H   UNL     1      40.482  -9.738   2.066  1.00  0.00     0.280 HD
HETATM    7  C   UNL     1      41.773 -10.965   3.170  1.00  0.00     0.246 C 
HETATM    8  C   UNL     1      40.860  -9.160   5.364  1.00  0.00     0.033 C 
HETATM    9  C   UNL     1      40.842  -8.760   3.879  1.00  0.00     0.236 C 
ENDROOT
BRANCH   4  10
HETATM   10  C   UNL     1      38.756 -11.730   2.542  1.00  0.00     0.155 C 
BRANCH  10  11
HETATM   11  N   UNL     1      39.228 -13.072   2.880  1.00  0.00    -0.365 N 
HETATM   12  H   UNL     1      38.860 -13.489   3.730  1.00  0.00     0.161 HD
BRANCH  11  13
HETATM   13  C   UNL     1      39.680 -14.017   1.999  1.00  0.00     0.172 C 
HETATM   14  S   UNL     1      39.826 -15.647   2.329  1.00  0.00    -0.041 SA
BRANCH  13  15
HETATM   15  N   UNL     1      40.068 -13.580   0.764  1.00  0.00    -0.333 N 
HETATM   16  H   UNL     1      41.053 -13.323   0.733  1.00  0.00     0.168 HD
BRANCH  15  17
HETATM   17  C   UNL     1      39.405 -13.563  -0.483  1.00  0.00     0.035 A 
HETATM   18  C   UNL     1      38.649 -12.488  -0.950  1.00  0.00     0.047 A 
HETATM   19  C   UNL     1      37.999 -12.540  -2.193  1.00  0.00     0.041 A 
HETATM   20  C   UNL     1      38.083 -13.700  -2.967  1.00  0.00     0.018 A 
HETATM   21  C   UNL     1      38.808 -14.793  -2.493  1.00  0.00     0.003 A 
HETATM   22  C   UNL     1      39.461 -14.725  -1.259  1.00  0.00     0.029 A 
BRANCH  19  23
HETATM   23  C   UNL     1      37.247 -11.331  -2.627  1.00  0.00     0.293 C 
HETATM   24  O   UNL     1      36.104 -11.384  -3.063  1.00  0.00    -0.259 OA
BRANCH  23  25
HETATM   25  O   UNL     1      37.995 -10.216  -2.475  1.00  0.00    -0.323 OA
HETATM   26  C   UNL     1      38.600  -9.740  -3.679  1.00  0.00     0.213 C 
ENDBRANCH  23  25
ENDBRANCH  19  23
ENDBRANCH  15  17
ENDBRANCH  13  15
ENDBRANCH  11  13
ENDBRANCH  10  11
ENDBRANCH   4  10
BRANCH   1  27
HETATM   27  C   UNL     1      42.712 -12.540   4.896  1.00  0.00     0.038 C 
HETATM   28  N   UNL     1      43.414 -13.065   5.956  1.00  0.00    -0.277 N 
HETATM   29  C   UNL     1      43.944 -12.452   7.151  1.00  0.00     0.179 C 
HETATM   30  N   UNL     1      43.608 -14.391   5.852  1.00  0.00    -0.172 NA
HETATM   31  C   UNL     1      43.187 -14.729   4.630  1.00  0.00     0.089 C 
HETATM   32  C   UNL     1      42.645 -13.592   3.990  1.00  0.00     0.061 C 
BRANCH  31  33
HETATM   33  C   UNL     1      43.235 -16.101   4.128  1.00  0.00    -0.005 A 
HETATM   34  C   UNL     1      43.509 -17.171   4.994  1.00  0.00     0.026 A 
HETATM   35  C   UNL     1      43.651 -18.481   4.509  1.00  0.00    -0.025 A 
HETATM   36  C   UNL     1      43.504 -18.729   3.126  1.00  0.00    -0.026 A 
HETATM   37  C   UNL     1      43.949 -19.551   5.369  1.00  0.00     0.012 A 
HETATM   38  C   UNL     1      43.195 -17.662   2.268  1.00  0.00     0.013 A 
HETATM   39  C   UNL     1      43.673 -20.033   2.639  1.00  0.00     0.012 A 
HETATM   40  C   UNL     1      43.060 -16.363   2.765  1.00  0.00     0.014 A 
HETATM   41  C   UNL     1      43.981 -21.083   3.507  1.00  0.00     0.001 A 
HETATM   42  C   UNL     1      44.115 -20.843   4.870  1.00  0.00     0.001 A 
ENDBRANCH  31  33
ENDBRANCH   1  27
TORSDOF 9
ENDMDL
MODEL 4
REMARK VINA RESULT:      -9.4      3.953      7.216
REMARK  9 active torsions:
REMARK  status: ('A' for Active; 'I' for Inactive)
REMARK    1  A    between atoms: C_4  and  C_5 
REMARK    2  A    between atoms: C_16  and  C_17 
REMARK    3  A    between atoms: C_20  and  C_21 
REMARK    4  A    between atoms: C_21  and  N_22 
REMARK    5  A    between atoms: N_22  and  C_23 
REMARK    6  A    between atoms: C_23  and  N_24 
REMARK    7  A    between atoms: N_24  and  C_25 
REMARK    8  A    between atoms: C_27  and  C_28 
REMARK    9  A    between atoms: C_28  and  O_29 
ROOT
HETATM    1  C   UNL     1      39.954 -11.476   2.611  1.00  0.00     0.067 C 
HETATM    2  C   UNL     1      40.878 -10.246   2.612  1.00  0.00     0.001 C 
HETATM    3  C   UNL     1      41.615 -10.085   3.956  1.00  0.00     0.040 C 
HETATM    4  C   UNL     1      40.640  -9.845   5.121  1.00  0.00     0.206 C 
HETATM    5  N   UNL     1      39.237 -10.117   4.586  1.00  0.00    -0.065 N 
HETATM    6  H   UNL     1      38.563 -10.082   5.363  1.00  0.00     0.280 HD
HETATM    7  C   UNL     1      39.132 -11.492   3.922  1.00  0.00     0.246 C 
HETATM    8  C   UNL     1      39.951  -9.006   2.488  1.00  0.00     0.033 C 
HETATM    9  C   UNL     1      38.869  -9.033   3.580  1.00  0.00     0.236 C 
ENDROOT
BRANCH   4  10
HETATM   10  C   UNL     1      40.967 -10.678   6.382  1.00  0.00     0.155 C 
BRANCH  10  11
HETATM   11  N   UNL     1      40.027 -10.422   7.472  1.00  0.00    -0.365 N 
HETATM   12  H   UNL     1      39.605 -11.232   7.915  1.00  0.00     0.161 HD
BRANCH  11  13
HETATM   13  C   UNL     1      40.015  -9.325   8.290  1.00  0.00     0.172 C 
HETATM   14  S   UNL     1      39.397  -7.829   7.883  1.00  0.00    -0.041 SA
BRANCH  13  15
HETATM   15  N   UNL     1      40.579  -9.465   9.527  1.00  0.00    -0.333 N 
HETATM   16  H   UNL     1      39.894  -9.695  10.244  1.00  0.00     0.168 HD
BRANCH  15  17
HETATM   17  C   UNL     1      41.926  -9.496   9.953  1.00  0.00     0.035 A 
HETATM   18  C   UNL     1      43.019  -9.391   9.094  1.00  0.00     0.047 A 
HETATM   19  C   UNL     1      44.336  -9.445   9.580  1.00  0.00     0.041 A 
HETATM   20  C   UNL     1      44.559  -9.640  10.945  1.00  0.00     0.018 A 
HETATM   21  C   UNL     1      43.472  -9.782  11.808  1.00  0.00     0.003 A 
HETATM   22  C   UNL     1      42.166  -9.713  11.314  1.00  0.00     0.029 A 
BRANCH  19  23
HETATM   23  C   UNL     1      45.439  -9.285   8.595  1.00  0.00     0.293 C 
HETATM   24  O   UNL     1      45.784  -8.194   8.160  1.00  0.00    -0.259 OA
BRANCH  23  25
HETATM   25  O   UNL     1      45.973 -10.483   8.267  1.00  0.00    -0.323 OA
HETATM   26  C   UNL     1      45.700 -10.907   6.930  1.00  0.00     0.213 C 
ENDBRANCH  23  25
ENDBRANCH  19  23
ENDBRANCH  15  17
ENDBRANCH  13  15
ENDBRANCH  11  13
ENDBRANCH  10  11
ENDBRANCH   4  10
BRANCH   1  27
HETATM   27  C   UNL     1      40.468 -12.848   2.273  1.00  0.00     0.038 C 
HETATM   28  N   UNL     1      40.576 -13.526   1.080  1.00  0.00    -0.277 N 
HETATM   29  C   UNL     1      40.076 -13.227  -0.240  1.00  0.00     0.179 C 
HETATM   30  N   UNL     1      41.303 -14.652   1.182  1.00  0.00    -0.172 NA
HETATM   31  C   UNL     1      41.535 -14.823   2.486  1.00  0.00     0.089 C 
HETATM   32  C   UNL     1      41.004 -13.729   3.204  1.00  0.00     0.061 C 
BRANCH  31  33
HETATM   33  C   UNL     1      42.301 -15.952   3.012  1.00  0.00    -0.005 A 
HETATM   34  C   UNL     1      42.394 -17.152   2.291  1.00  0.00     0.026 A 
HETATM   35  C   UNL     1      43.047 -18.274   2.827  1.00  0.00    -0.025 A 
HETATM   36  C   UNL     1      43.630 -18.190   4.111  1.00  0.00    -0.026 A 
HETATM   37  C   UNL     1      43.122 -19.484   2.117  1.00  0.00     0.012 A 
HETATM   38  C   UNL     1      43.565 -16.978   4.814  1.00  0.00     0.013 A 
HETATM   39  C   UNL     1      44.257 -19.320   4.656  1.00  0.00     0.012 A 
HETATM   40  C   UNL     1      42.909 -15.871   4.270  1.00  0.00     0.014 A 
HETATM   41  C   UNL     1      44.312 -20.519   3.943  1.00  0.00     0.001 A 
HETATM   42  C   UNL     1      43.749 -20.600   2.674  1.00  0.00     0.001 A 
ENDBRANCH  31  33
ENDBRANCH   1  27
TORSDOF 9
ENDMDL
MODEL 5
REMARK VINA RESULT:      -9.4      2.927      4.501
REMARK  9 active torsions:
REMARK  status: ('A' for Active; 'I' for Inactive)
REMARK    1  A    between atoms: C_4  and  C_5 
REMARK    2  A    between atoms: C_16  and  C_17 
REMARK    3  A    between atoms: C_20  and  C_21 
REMARK    4  A    between atoms: C_21  and  N_22 
REMARK    5  A    between atoms: N_22  and  C_23 
REMARK    6  A    between atoms: C_23  and  N_24 
REMARK    7  A    between atoms: N_24  and  C_25 
REMARK    8  A    between atoms: C_27  and  C_28 
REMARK    9  A    between atoms: C_28  and  O_29 
ROOT
HETATM    1  C   UNL     1      41.258 -11.477   3.385  1.00  0.00     0.067 C 
HETATM    2  C   UNL     1      39.728 -11.405   3.527  1.00  0.00     0.001 C 
HETATM    3  C   UNL     1      39.017 -12.327   2.517  1.00  0.00     0.040 C 
HETATM    4  C   UNL     1      39.296 -11.912   1.063  1.00  0.00     0.206 C 
HETATM    5  N   UNL     1      40.415 -10.874   1.108  1.00  0.00    -0.065 N 
HETATM    6  H   UNL     1      40.715 -10.654   0.148  1.00  0.00     0.280 HD
HETATM    7  C   UNL     1      41.632 -11.376   1.887  1.00  0.00     0.246 C 
HETATM    8  C   UNL     1      39.323  -9.958   3.136  1.00  0.00     0.033 C 
HETATM    9  C   UNL     1      39.885  -9.598   1.751  1.00  0.00     0.236 C 
ENDROOT
BRANCH   4  10
HETATM   10  C   UNL     1      39.626 -13.102   0.133  1.00  0.00     0.155 C 
BRANCH  10  11
HETATM   11  N   UNL     1      38.653 -13.243  -0.949  1.00  0.00    -0.365 N 
HETATM   12  H   UNL     1      37.795 -12.705  -0.870  1.00  0.00     0.161 HD
BRANCH  11  13
HETATM   13  C   UNL     1      38.927 -13.582  -2.246  1.00  0.00     0.172 C 
HETATM   14  S   UNL     1      38.512 -15.028  -2.970  1.00  0.00    -0.041 SA
BRANCH  13  15
HETATM   15  N   UNL     1      39.619 -12.672  -2.994  1.00  0.00    -0.333 N 
HETATM   16  H   UNL     1      39.992 -13.075  -3.852  1.00  0.00     0.168 HD
BRANCH  15  17
HETATM   17  C   UNL     1      39.782 -11.274  -2.868  1.00  0.00     0.035 A 
HETATM   18  C   UNL     1      40.899 -10.667  -2.296  1.00  0.00     0.047 A 
HETATM   19  C   UNL     1      40.992  -9.270  -2.186  1.00  0.00     0.041 A 
HETATM   20  C   UNL     1      39.934  -8.471  -2.628  1.00  0.00     0.018 A 
HETATM   21  C   UNL     1      38.798  -9.071  -3.170  1.00  0.00     0.003 A 
HETATM   22  C   UNL     1      38.722 -10.463  -3.286  1.00  0.00     0.029 A 
BRANCH  19  23
HETATM   23  C   UNL     1      42.238  -8.708  -1.597  1.00  0.00     0.293 C 
HETATM   24  O   UNL     1      42.630  -9.002  -0.475  1.00  0.00    -0.259 OA
BRANCH  23  25
HETATM   25  O   UNL     1      42.838  -7.856  -2.458  1.00  0.00    -0.323 OA
HETATM   26  C   UNL     1      43.203  -6.598  -1.887  1.00  0.00     0.213 C 
ENDBRANCH  23  25
ENDBRANCH  19  23
ENDBRANCH  15  17
ENDBRANCH  13  15
ENDBRANCH  11  13
ENDBRANCH  10  11
ENDBRANCH   4  10
BRANCH   1  27
HETATM   27  C   UNL     1      42.066 -12.538   4.079  1.00  0.00     0.038 C 
HETATM   28  N   UNL     1      42.670 -12.580   5.315  1.00  0.00    -0.277 N 
HETATM   29  C   UNL     1      42.887 -11.557   6.309  1.00  0.00     0.179 C 
HETATM   30  N   UNL     1      43.105 -13.809   5.644  1.00  0.00    -0.172 NA
HETATM   31  C   UNL     1      42.951 -14.559   4.550  1.00  0.00     0.089 C 
HETATM   32  C   UNL     1      42.330 -13.792   3.540  1.00  0.00     0.061 C 
BRANCH  31  33
HETATM   33  C   UNL     1      43.316 -15.974   4.503  1.00  0.00    -0.005 A 
HETATM   34  C   UNL     1      43.115 -16.726   3.336  1.00  0.00     0.026 A 
HETATM   35  C   UNL     1      43.372 -18.107   3.307  1.00  0.00    -0.025 A 
HETATM   36  C   UNL     1      43.853 -18.747   4.471  1.00  0.00    -0.026 A 
HETATM   37  C   UNL     1      43.150 -18.868   2.148  1.00  0.00     0.012 A 
HETATM   38  C   UNL     1      44.086 -17.985   5.626  1.00  0.00     0.013 A 
HETATM   39  C   UNL     1      44.084 -20.130   4.449  1.00  0.00     0.012 A 
HETATM   40  C   UNL     1      43.822 -16.613   5.640  1.00  0.00     0.014 A 
HETATM   41  C   UNL     1      43.846 -20.874   3.291  1.00  0.00     0.001 A 
HETATM   42  C   UNL     1      43.384 -20.243   2.141  1.00  0.00     0.001 A 
ENDBRANCH  31  33
ENDBRANCH   1  27
TORSDOF 9
ENDMDL
MODEL 6
REMARK VINA RESULT:      -9.3      3.474      6.719
REMARK  9 active torsions:
REMARK  status: ('A' for Active; 'I' for Inactive)
REMARK    1  A    between atoms: C_4  and  C_5 
REMARK    2  A    between atoms: C_16  and  C_17 
REMARK    3  A    between atoms: C_20  and  C_21 
REMARK    4  A    between atoms: C_21  and  N_22 
REMARK    5  A    between atoms: N_22  and  C_23 
REMARK    6  A    between atoms: C_23  and  N_24 
REMARK    7  A    between atoms: N_24  and  C_25 
REMARK    8  A    between atoms: C_27  and  C_28 
REMARK    9  A    between atoms: C_28  and  O_29 
ROOT
HETATM    1  C   UNL     1      38.926 -11.619  -1.302  1.00  0.00     0.067 C 
HETATM    2  C   UNL     1      39.730 -10.962  -2.437  1.00  0.00     0.001 C 
HETATM    3  C   UNL     1      40.974 -10.224  -1.903  1.00  0.00     0.040 C 
HETATM    4  C   UNL     1      40.597  -9.064  -0.966  1.00  0.00     0.206 C 
HETATM    5  N   UNL     1      39.107  -9.207  -0.667  1.00  0.00    -0.065 N 
HETATM    6  H   UNL     1      38.836  -8.519   0.050  1.00  0.00     0.280 HD
HETATM    7  C   UNL     1      38.756 -10.603  -0.149  1.00  0.00     0.246 C 
HETATM    8  C   UNL     1      38.813  -9.863  -3.039  1.00  0.00     0.033 C 
HETATM    9  C   UNL     1      38.314  -8.916  -1.935  1.00  0.00     0.236 C 
ENDROOT
BRANCH   4  10
HETATM   10  C   UNL     1      41.458  -9.001   0.316  1.00  0.00     0.155 C 
BRANCH  10  11
HETATM   11  N   UNL     1      40.722  -8.439   1.448  1.00  0.00    -0.365 N 
HETATM   12  H   UNL     1      39.944  -7.824   1.231  1.00  0.00     0.161 HD
BRANCH  11  13
HETATM   13  C   UNL     1      40.607  -8.992   2.694  1.00  0.00     0.172 C 
HETATM   14  S   UNL     1      39.170  -9.247   3.504  1.00  0.00    -0.041 SA
BRANCH  13  15
HETATM   15  N   UNL     1      41.766  -9.336   3.331  1.00  0.00    -0.333 N 
HETATM   16  H   UNL     1      42.262  -8.527   3.701  1.00  0.00     0.168 HD
BRANCH  15  17
HETATM   17  C   UNL     1      42.312 -10.588   3.690  1.00  0.00     0.035 A 
HETATM   18  C   UNL     1      42.670 -10.939   4.991  1.00  0.00     0.047 A 
HETATM   19  C   UNL     1      43.225 -12.197   5.280  1.00  0.00     0.041 A 
HETATM   20  C   UNL     1      43.452 -13.105   4.242  1.00  0.00     0.018 A 
HETATM   21  C   UNL     1      43.130 -12.749   2.932  1.00  0.00     0.003 A 
HETATM   22  C   UNL     1      42.566 -11.499   2.659  1.00  0.00     0.029 A 
BRANCH  19  23
HETATM   23  C   UNL     1      43.540 -12.499   6.702  1.00  0.00     0.293 C 
HETATM   24  O   UNL     1      43.399 -13.614   7.188  1.00  0.00    -0.259 OA
BRANCH  23  25
HETATM   25  O   UNL     1      43.983 -11.396   7.344  1.00  0.00    -0.323 OA
HETATM   26  C   UNL     1      45.403 -11.237   7.338  1.00  0.00     0.213 C 
ENDBRANCH  23  25
ENDBRANCH  19  23
ENDBRANCH  15  17
ENDBRANCH  13  15
ENDBRANCH  11  13
ENDBRANCH  10  11
ENDBRANCH   4  10
BRANCH   1  27
HETATM   27  C   UNL     1      39.274 -12.986  -0.779  1.00  0.00     0.038 C 
HETATM   28  N   UNL     1      39.159 -14.242  -1.327  1.00  0.00    -0.277 N 
HETATM   29  C   UNL     1      38.506 -14.707  -2.528  1.00  0.00     0.179 C 
HETATM   30  N   UNL     1      39.798 -15.186  -0.614  1.00  0.00    -0.172 NA
HETATM   31  C   UNL     1      40.194 -14.589   0.513  1.00  0.00     0.089 C 
HETATM   32  C   UNL     1      39.860 -13.218   0.460  1.00  0.00     0.061 C 
BRANCH  31  33
HETATM   33  C   UNL     1      40.931 -15.291   1.563  1.00  0.00    -0.005 A 
HETATM   34  C   UNL     1      40.445 -15.323   2.879  1.00  0.00     0.026 A 
HETATM   35  C   UNL     1      41.189 -15.911   3.915  1.00  0.00    -0.025 A 
HETATM   36  C   UNL     1      42.444 -16.492   3.625  1.00  0.00    -0.026 A 
HETATM   37  C   UNL     1      40.717 -15.924   5.238  1.00  0.00     0.012 A 
HETATM   38  C   UNL     1      42.910 -16.489   2.301  1.00  0.00     0.013 A 
HETATM   39  C   UNL     1      43.198 -17.055   4.665  1.00  0.00     0.012 A 
HETATM   40  C   UNL     1      42.160 -15.897   1.281  1.00  0.00     0.014 A 
HETATM   41  C   UNL     1      42.719 -17.048   5.977  1.00  0.00     0.001 A 
HETATM   42  C   UNL     1      41.479 -16.488   6.262  1.00  0.00     0.001 A 
ENDBRANCH  31  33
ENDBRANCH   1  27
TORSDOF 9
ENDMDL
MODEL 7
REMARK VINA RESULT:      -9.3      4.582      7.417
REMARK  9 active torsions:
REMARK  status: ('A' for Active; 'I' for Inactive)
REMARK    1  A    between atoms: C_4  and  C_5 
REMARK    2  A    between atoms: C_16  and  C_17 
REMARK    3  A    between atoms: C_20  and  C_21 
REMARK    4  A    between atoms: C_21  and  N_22 
REMARK    5  A    between atoms: N_22  and  C_23 
REMARK    6  A    between atoms: C_23  and  N_24 
REMARK    7  A    between atoms: N_24  and  C_25 
REMARK    8  A    between atoms: C_27  and  C_28 
REMARK    9  A    between atoms: C_28  and  O_29 
ROOT
HETATM    1  C   UNL     1      40.606 -11.659   3.838  1.00  0.00     0.067 C 
HETATM    2  C   UNL     1      40.962 -10.350   3.113  1.00  0.00     0.001 C 
HETATM    3  C   UNL     1      41.288  -9.217   4.107  1.00  0.00     0.040 C 
HETATM    4  C   UNL     1      40.080  -8.861   4.989  1.00  0.00     0.206 C 
HETATM    5  N   UNL     1      39.032  -9.947   4.762  1.00  0.00    -0.065 N 
HETATM    6  H   UNL     1      38.253  -9.812   5.421  1.00  0.00     0.280 HD
HETATM    7  C   UNL     1      39.604 -11.350   4.976  1.00  0.00     0.246 C 
HETATM    8  C   UNL     1      39.676  -9.901   2.368  1.00  0.00     0.033 C 
HETATM    9  C   UNL     1      38.489  -9.826   3.343  1.00  0.00     0.236 C 
ENDROOT
BRANCH   4  10
HETATM   10  C   UNL     1      40.437  -8.682   6.482  1.00  0.00     0.155 C 
BRANCH  10  11
HETATM   11  N   UNL     1      41.768  -8.105   6.666  1.00  0.00    -0.365 N 
HETATM   12  H   UNL     1      42.485  -8.382   6.002  1.00  0.00     0.161 HD
BRANCH  11  13
HETATM   13  C   UNL     1      42.057  -6.909   7.266  1.00  0.00     0.172 C 
HETATM   14  S   UNL     1      41.469  -5.425   6.781  1.00  0.00    -0.041 SA
BRANCH  13  15
HETATM   15  N   UNL     1      42.917  -6.938   8.327  1.00  0.00    -0.333 N 
HETATM   16  H   UNL     1      42.946  -6.052   8.829  1.00  0.00     0.168 HD
BRANCH  15  17
HETATM   17  C   UNL     1      43.643  -7.991   8.927  1.00  0.00     0.035 A 
HETATM   18  C   UNL     1      43.173  -8.751   9.998  1.00  0.00     0.047 A 
HETATM   19  C   UNL     1      43.952  -9.774  10.562  1.00  0.00     0.041 A 
HETATM   20  C   UNL     1      45.234 -10.018  10.064  1.00  0.00     0.018 A 
HETATM   21  C   UNL     1      45.727  -9.240   9.017  1.00  0.00     0.003 A 
HETATM   22  C   UNL     1      44.937  -8.232   8.455  1.00  0.00     0.029 A 
BRANCH  19  23
HETATM   23  C   UNL     1      43.353 -10.559  11.675  1.00  0.00     0.293 C 
HETATM   24  O   UNL     1      43.871 -11.576  12.120  1.00  0.00    -0.259 OA
BRANCH  23  25
HETATM   25  O   UNL     1      42.197  -9.999  12.095  1.00  0.00    -0.323 OA
HETATM   26  C   UNL     1      42.229  -9.513  13.439  1.00  0.00     0.213 C 
ENDBRANCH  23  25
ENDBRANCH  19  23
ENDBRANCH  15  17
ENDBRANCH  13  15
ENDBRANCH  11  13
ENDBRANCH  10  11
ENDBRANCH   4  10
BRANCH   1  27
HETATM   27  C   UNL     1      41.666 -12.624   4.291  1.00  0.00     0.038 C 
HETATM   28  N   UNL     1      42.647 -12.535   5.252  1.00  0.00    -0.277 N 
HETATM   29  C   UNL     1      43.114 -11.421   6.044  1.00  0.00     0.179 C 
HETATM   30  N   UNL     1      43.247 -13.712   5.500  1.00  0.00    -0.172 NA
HETATM   31  C   UNL     1      42.789 -14.559   4.575  1.00  0.00     0.089 C 
HETATM   32  C   UNL     1      41.818 -13.908   3.782  1.00  0.00     0.061 C 
BRANCH  31  33
HETATM   33  C   UNL     1      43.211 -15.957   4.504  1.00  0.00    -0.005 A 
HETATM   34  C   UNL     1      42.994 -16.713   3.342  1.00  0.00     0.026 A 
HETATM   35  C   UNL     1      43.307 -18.081   3.295  1.00  0.00    -0.025 A 
HETATM   36  C   UNL     1      43.862 -18.706   4.434  1.00  0.00    -0.026 A 
HETATM   37  C   UNL     1      43.070 -18.846   2.140  1.00  0.00     0.012 A 
HETATM   38  C   UNL     1      44.109 -17.939   5.583  1.00  0.00     0.013 A 
HETATM   39  C   UNL     1      44.149 -20.078   4.395  1.00  0.00     0.012 A 
HETATM   40  C   UNL     1      43.789 -16.579   5.617  1.00  0.00     0.014 A 
HETATM   41  C   UNL     1      43.895 -20.826   3.243  1.00  0.00     0.001 A 
HETATM   42  C   UNL     1      43.361 -20.210   2.116  1.00  0.00     0.001 A 
ENDBRANCH  31  33
ENDBRANCH   1  27
TORSDOF 9
ENDMDL
MODEL 8
REMARK VINA RESULT:      -9.2      3.099      5.981
REMARK  9 active torsions:
REMARK  status: ('A' for Active; 'I' for Inactive)
REMARK    1  A    between atoms: C_4  and  C_5 
REMARK    2  A    between atoms: C_16  and  C_17 
REMARK    3  A    between atoms: C_20  and  C_21 
REMARK    4  A    between atoms: C_21  and  N_22 
REMARK    5  A    between atoms: N_22  and  C_23 
REMARK    6  A    between atoms: C_23  and  N_24 
REMARK    7  A    between atoms: N_24  and  C_25 
REMARK    8  A    between atoms: C_27  and  C_28 
REMARK    9  A    between atoms: C_28  and  O_29 
ROOT
HETATM    1  C   UNL     1      40.548 -12.911   0.159  1.00  0.00     0.067 C 
HETATM    2  C   UNL     1      40.745 -11.536  -0.504  1.00  0.00     0.001 C 
HETATM    3  C   UNL     1      40.175 -10.396   0.364  1.00  0.00     0.040 C 
HETATM    4  C   UNL     1      38.655 -10.525   0.557  1.00  0.00     0.206 C 
HETATM    5  N   UNL     1      38.260 -11.905   0.038  1.00  0.00    -0.065 N 
HETATM    6  H   UNL     1      37.269 -12.080   0.255  1.00  0.00     0.280 HD
HETATM    7  C   UNL     1      39.094 -13.018   0.676  1.00  0.00     0.246 C 
HETATM    8  C   UNL     1      39.887 -11.551  -1.798  1.00  0.00     0.033 C 
HETATM    9  C   UNL     1      38.434 -11.937  -1.475  1.00  0.00     0.236 C 
ENDROOT
BRANCH   4  10
HETATM   10  C   UNL     1      38.195 -10.282   2.012  1.00  0.00     0.155 C 
BRANCH  10  11
HETATM   11  N   UNL     1      39.291  -9.836   2.871  1.00  0.00    -0.365 N 
HETATM   12  H   UNL     1      39.942  -9.165   2.474  1.00  0.00     0.161 HD
BRANCH  11  13
HETATM   13  C   UNL     1      39.286  -9.800   4.239  1.00  0.00     0.172 C 
HETATM   14  S   UNL     1      39.427  -8.417   5.164  1.00  0.00    -0.041 SA
BRANCH  13  15
HETATM   15  N   UNL     1      39.184 -10.995   4.892  1.00  0.00    -0.333 N 
HETATM   16  H   UNL     1      38.232 -11.358   4.895  1.00  0.00     0.168 HD
BRANCH  15  17
HETATM   17  C   UNL     1      40.159 -11.870   5.420  1.00  0.00     0.035 A 
HETATM   18  C   UNL     1      41.426 -11.464   5.839  1.00  0.00     0.047 A 
HETATM   19  C   UNL     1      42.358 -12.387   6.340  1.00  0.00     0.041 A 
HETATM   20  C   UNL     1      42.025 -13.743   6.393  1.00  0.00     0.018 A 
HETATM   21  C   UNL     1      40.774 -14.164   5.943  1.00  0.00     0.003 A 
HETATM   22  C   UNL     1      39.849 -13.233   5.458  1.00  0.00     0.029 A 
BRANCH  19  23
HETATM   23  C   UNL     1      43.670 -11.859   6.800  1.00  0.00     0.293 C 
HETATM   24  O   UNL     1      44.727 -12.445   6.600  1.00  0.00    -0.259 OA
BRANCH  23  25
HETATM   25  O   UNL     1      43.518 -10.683   7.449  1.00  0.00    -0.323 OA
HETATM   26  C   UNL     1      44.106 -10.645   8.751  1.00  0.00     0.213 C 
ENDBRANCH  23  25
ENDBRANCH  19  23
ENDBRANCH  15  17
ENDBRANCH  13  15
ENDBRANCH  11  13
ENDBRANCH  10  11
ENDBRANCH   4  10
BRANCH   1  27
HETATM   27  C   UNL     1      41.527 -13.448   1.166  1.00  0.00     0.038 C 
HETATM   28  N   UNL     1      42.275 -12.837   2.145  1.00  0.00    -0.277 N 
HETATM   29  C   UNL     1      42.514 -11.444   2.438  1.00  0.00     0.179 C 
HETATM   30  N   UNL     1      42.857 -13.712   2.983  1.00  0.00    -0.172 NA
HETATM   31  C   UNL     1      42.644 -14.921   2.458  1.00  0.00     0.089 C 
HETATM   32  C   UNL     1      41.838 -14.795   1.305  1.00  0.00     0.061 C 
BRANCH  31  33
HETATM   33  C   UNL     1      43.129 -16.151   3.081  1.00  0.00    -0.005 A 
HETATM   34  C   UNL     1      43.118 -17.364   2.375  1.00  0.00     0.026 A 
HETATM   35  C   UNL     1      43.492 -18.569   2.993  1.00  0.00    -0.025 A 
HETATM   36  C   UNL     1      43.898 -18.558   4.346  1.00  0.00    -0.026 A 
HETATM   37  C   UNL     1      43.460 -19.788   2.296  1.00  0.00     0.012 A 
HETATM   38  C   UNL     1      43.941 -17.338   5.038  1.00  0.00     0.013 A 
HETATM   39  C   UNL     1      44.245 -19.765   4.969  1.00  0.00     0.012 A 
HETATM   40  C   UNL     1      43.562 -16.148   4.412  1.00  0.00     0.014 A 
HETATM   41  C   UNL     1      44.195 -20.971   4.266  1.00  0.00     0.001 A 
HETATM   42  C   UNL     1      43.808 -20.981   2.930  1.00  0.00     0.001 A 
ENDBRANCH  31  33
ENDBRANCH   1  27
TORSDOF 9
ENDMDL
MODEL 9
REMARK VINA RESULT:      -9.2      3.799      6.834
REMARK  9 active torsions:
REMARK  status: ('A' for Active; 'I' for Inactive)
REMARK    1  A    between atoms: C_4  and  C_5 
REMARK    2  A    between atoms: C_16  and  C_17 
REMARK    3  A    between atoms: C_20  and  C_21 
REMARK    4  A    between atoms: C_21  and  N_22 
REMARK    5  A    between atoms: N_22  and  C_23 
REMARK    6  A    between atoms: C_23  and  N_24 
REMARK    7  A    between atoms: N_24  and  C_25 
REMARK    8  A    between atoms: C_27  and  C_28 
REMARK    9  A    between atoms: C_28  and  O_29 
ROOT
HETATM    1  C   UNL     1      39.189 -11.684   1.372  1.00  0.00     0.067 C 
HETATM    2  C   UNL     1      39.786 -10.468   0.642  1.00  0.00     0.001 C 
HETATM    3  C   UNL     1      40.886  -9.783   1.477  1.00  0.00     0.040 C 
HETATM    4  C   UNL     1      40.338  -9.218   2.798  1.00  0.00     0.206 C 
HETATM    5  N   UNL     1      38.923  -9.769   2.959  1.00  0.00    -0.065 N 
HETATM    6  H   UNL     1      38.561  -9.510   3.888  1.00  0.00     0.280 HD
HETATM    7  C   UNL     1      38.883 -11.293   2.837  1.00  0.00     0.246 C 
HETATM    8  C   UNL     1      38.639  -9.428   0.521  1.00  0.00     0.033 C 
HETATM    9  C   UNL     1      38.022  -9.146   1.900  1.00  0.00     0.236 C 
ENDROOT
BRANCH   4  10
HETATM   10  C   UNL     1      41.237  -9.520   4.019  1.00  0.00     0.155 C 
BRANCH  10  11
HETATM   11  N   UNL     1      40.598  -9.147   5.280  1.00  0.00    -0.365 N 
HETATM   12  H   UNL     1      39.892  -8.418   5.240  1.00  0.00     0.161 HD
BRANCH  11  13
HETATM   13  C   UNL     1      40.448  -9.947   6.380  1.00  0.00     0.172 C 
HETATM   14  S   UNL     1      39.377  -9.671   7.630  1.00  0.00    -0.041 SA
BRANCH  13  15
HETATM   15  N   UNL     1      41.262 -11.040   6.469  1.00  0.00    -0.333 N 
HETATM   16  H   UNL     1      40.791 -11.900   6.193  1.00  0.00     0.168 HD
BRANCH  15  17
HETATM   17  C   UNL     1      42.645 -11.170   6.724  1.00  0.00     0.035 A 
HETATM   18  C   UNL     1      43.419 -10.194   7.350  1.00  0.00     0.047 A 
HETATM   19  C   UNL     1      44.795 -10.378   7.559  1.00  0.00     0.041 A 
HETATM   20  C   UNL     1      45.412 -11.547   7.105  1.00  0.00     0.018 A 
HETATM   21  C   UNL     1      44.653 -12.514   6.445  1.00  0.00     0.003 A 
HETATM   22  C   UNL     1      43.281 -12.325   6.255  1.00  0.00     0.029 A 
BRANCH  19  23
HETATM   23  C   UNL     1      45.533  -9.299   8.270  1.00  0.00     0.293 C 
HETATM   24  O   UNL     1      46.592  -8.842   7.862  1.00  0.00    -0.259 OA
BRANCH  23  25
HETATM   25  O   UNL     1      44.879  -8.925   9.393  1.00  0.00    -0.323 OA
HETATM   26  C   UNL     1      45.072  -9.796  10.509  1.00  0.00     0.213 C 
ENDBRANCH  23  25
ENDBRANCH  19  23
ENDBRANCH  15  17
ENDBRANCH  13  15
ENDBRANCH  11  13
ENDBRANCH  10  11
ENDBRANCH   4  10
BRANCH   1  27
HETATM   27  C   UNL     1      39.827 -13.043   1.291  1.00  0.00     0.038 C 
HETATM   28  N   UNL     1      40.007 -13.918   0.245  1.00  0.00    -0.277 N 
HETATM   29  C   UNL     1      39.496 -13.915  -1.105  1.00  0.00     0.179 C 
HETATM   30  N   UNL     1      40.830 -14.937   0.549  1.00  0.00    -0.172 NA
HETATM   31  C   UNL     1      41.063 -14.841   1.861  1.00  0.00     0.089 C 
HETATM   32  C   UNL     1      40.429 -13.685   2.366  1.00  0.00     0.061 C 
BRANCH  31  33
HETATM   33  C   UNL     1      41.921 -15.780   2.582  1.00  0.00    -0.005 A 
HETATM   34  C   UNL     1      42.180 -17.057   2.063  1.00  0.00     0.026 A 
HETATM   35  C   UNL     1      42.924 -18.001   2.791  1.00  0.00    -0.025 A 
HETATM   36  C   UNL     1      43.430 -17.654   4.063  1.00  0.00    -0.026 A 
HETATM   37  C   UNL     1      43.166 -19.288   2.284  1.00  0.00     0.012 A 
HETATM   38  C   UNL     1      43.199 -16.364   4.564  1.00  0.00     0.013 A 
HETATM   39  C   UNL     1      44.150 -18.606   4.800  1.00  0.00     0.012 A 
HETATM   40  C   UNL     1      42.454 -15.436   3.830  1.00  0.00     0.014 A 
HETATM   41  C   UNL     1      44.371 -19.886   4.287  1.00  0.00     0.001 A 
HETATM   42  C   UNL     1      43.883 -20.225   3.029  1.00  0.00     0.001 A 
ENDBRANCH  31  33
ENDBRANCH   1  27
TORSDOF 9
ENDMDL
MODEL 10
REMARK VINA RESULT:      -9.1      2.091      3.208
REMARK  9 active torsions:
REMARK  status: ('A' for Active; 'I' for Inactive)
REMARK    1  A    between atoms: C_4  and  C_5 
REMARK    2  A    between atoms: C_16  and  C_17 
REMARK    3  A    between atoms: C_20  and  C_21 
REMARK    4  A    between atoms: C_21  and  N_22 
REMARK    5  A    between atoms: N_22  and  C_23 
REMARK    6  A    between atoms: C_23  and  N_24 
REMARK    7  A    between atoms: N_24  and  C_25 
REMARK    8  A    between atoms: C_27  and  C_28 
REMARK    9  A    between atoms: C_28  and  O_29 
ROOT
HETATM    1  C   UNL     1      41.447 -11.697   5.903  1.00  0.00     0.067 C 
HETATM    2  C   UNL     1      39.956 -11.926   6.204  1.00  0.00     0.001 C 
HETATM    3  C   UNL     1      39.205 -12.487   4.980  1.00  0.00     0.040 C 
HETATM    4  C   UNL     1      39.220 -11.506   3.796  1.00  0.00     0.206 C 
HETATM    5  N   UNL     1      40.217 -10.405   4.149  1.00  0.00    -0.065 N 
HETATM    6  H   UNL     1      40.346  -9.788   3.335  1.00  0.00     0.280 HD
HETATM    7  C   UNL     1      41.582 -10.971   4.544  1.00  0.00     0.246 C 
HETATM    8  C   UNL     1      39.346 -10.522   6.467  1.00  0.00     0.033 C 
HETATM    9  C   UNL     1      39.656  -9.574   5.297  1.00  0.00     0.236 C 
ENDROOT
BRANCH   4  10
HETATM   10  C   UNL     1      39.533 -12.179   2.441  1.00  0.00     0.155 C 
BRANCH  10  11
HETATM   11  N   UNL     1      39.273 -13.618   2.466  1.00  0.00    -0.365 N 
HETATM   12  H   UNL     1      38.322 -13.910   2.668  1.00  0.00     0.161 HD
BRANCH  11  13
HETATM   13  C   UNL     1      39.972 -14.579   1.788  1.00  0.00     0.172 C 
HETATM   14  S   UNL     1      41.304 -15.394   2.378  1.00  0.00    -0.041 SA
BRANCH  13  15
HETATM   15  N   UNL     1      39.558 -14.870   0.519  1.00  0.00    -0.333 N 
HETATM   16  H   UNL     1      39.068 -15.761   0.463  1.00  0.00     0.168 HD
BRANCH  15  17
HETATM   17  C   UNL     1      39.556 -14.110  -0.672  1.00  0.00     0.035 A 
HETATM   18  C   UNL     1      39.941 -12.772  -0.744  1.00  0.00     0.047 A 
HETATM   19  C   UNL     1      39.900 -12.066  -1.958  1.00  0.00     0.041 A 
HETATM   20  C   UNL     1      39.434 -12.704  -3.111  1.00  0.00     0.018 A 
HETATM   21  C   UNL     1      39.013 -14.032  -3.041  1.00  0.00     0.003 A 
HETATM   22  C   UNL     1      39.072 -14.728  -1.829  1.00  0.00     0.029 A 
BRANCH  19  23
HETATM   23  C   UNL     1      40.367 -10.654  -1.948  1.00  0.00     0.293 C 
HETATM   24  O   UNL     1      39.635  -9.713  -2.230  1.00  0.00    -0.259 OA
BRANCH  23  25
HETATM   25  O   UNL     1      41.671 -10.578  -1.600  1.00  0.00    -0.323 OA
HETATM   26  C   UNL     1      42.138  -9.252  -1.343  1.00  0.00     0.213 C 
ENDBRANCH  23  25
ENDBRANCH  19  23
ENDBRANCH  15  17
ENDBRANCH  13  15
ENDBRANCH  11  13
ENDBRANCH  10  11
ENDBRANCH   4  10
BRANCH   1  27
HETATM   27  C   UNL     1      42.457 -12.804   6.033  1.00  0.00     0.038 C 
HETATM   28  N   UNL     1      43.679 -12.871   6.661  1.00  0.00    -0.277 N 
HETATM   29  C   UNL     1      44.501 -11.850   7.268  1.00  0.00     0.179 C 
HETATM   30  N   UNL     1      44.164 -14.122   6.733  1.00  0.00    -0.172 NA
HETATM   31  C   UNL     1      43.346 -14.876   5.994  1.00  0.00     0.089 C 
HETATM   32  C   UNL     1      42.281 -14.082   5.516  1.00  0.00     0.061 C 
BRANCH  31  33
HETATM   33  C   UNL     1      43.540 -16.315   5.817  1.00  0.00    -0.005 A 
HETATM   34  C   UNL     1      43.694 -16.864   4.536  1.00  0.00     0.026 A 
HETATM   35  C   UNL     1      43.785 -18.253   4.346  1.00  0.00    -0.025 A 
HETATM   36  C   UNL     1      43.732 -19.111   5.467  1.00  0.00    -0.026 A 
HETATM   37  C   UNL     1      43.917 -18.808   3.062  1.00  0.00     0.012 A 
HETATM   38  C   UNL     1      43.613 -18.556   6.750  1.00  0.00     0.013 A 
HETATM   39  C   UNL     1      43.796 -20.499   5.273  1.00  0.00     0.012 A 
HETATM   40  C   UNL     1      43.520 -17.172   6.923  1.00  0.00     0.014 A 
HETATM   41  C   UNL     1      43.914 -21.035   3.989  1.00  0.00     0.001 A 
HETATM   42  C   UNL     1      43.978 -20.191   2.886  1.00  0.00     0.001 A 
ENDBRANCH  31  33
ENDBRANCH   1  27
TORSDOF 9
ENDMDL
