MODEL 1
REMARK VINA RESULT:      -9.0      0.000      0.000
REMARK  4 active torsions:
REMARK  status: ('A' for Active; 'I' for Inactive)
REMARK    1  A    between atoms: C_5  and  N_6 
REMARK       I    between atoms: N_6  and  C_7 
REMARK    2  A    between atoms: C_7  and  C_8 
REMARK    3  A    between atoms: C_8  and  N_9 
REMARK    4  A    between atoms: C_11  and  C_12 
REMARK       I    between atoms: C_12  and  N_13 
ROOT
HETATM    1  N   UNL     1      41.190 -15.890   2.452  1.00  0.00    -0.325 N 
HETATM    2  C   UNL     1      41.447 -14.674   1.839  1.00  0.00     0.240 C 
HETATM    3  O   UNL     1      42.551 -14.200   1.588  1.00  0.00    -0.271 OA
HETATM    4  H   UNL     1      40.235 -16.219   2.480  1.00  0.00     0.169 HD
ENDROOT
BRANCH   2   5
HETATM    5  C   UNL     1      40.192 -13.909   1.451  1.00  0.00     0.230 C 
BRANCH   5   6
HETATM    6  N   UNL     1      40.214 -13.635  -0.008  1.00  0.00    -0.357 N 
HETATM    7  C   UNL     1      39.508 -14.436  -0.844  1.00  0.00     0.108 A 
HETATM    8  C   UNL     1      39.438 -14.161  -2.209  1.00  0.00     0.047 A 
HETATM    9  C   UNL     1      40.123 -13.060  -2.717  1.00  0.00     0.020 A 
HETATM   10  C   UNL     1      40.842 -12.249  -1.843  1.00  0.00     0.018 A 
HETATM   11  C   UNL     1      40.865 -12.548  -0.484  1.00  0.00     0.091 A 
BRANCH   8  12
HETATM   12  C   UNL     1      38.644 -15.091  -3.033  1.00  0.00     0.250 C 
HETATM   13  N   UNL     1      38.316 -16.307  -2.514  1.00  0.00    -0.366 N 
HETATM   14  H   UNL     1      38.694 -16.699  -1.662  1.00  0.00     0.159 HD
HETATM   15  H   UNL     1      37.826 -16.951  -3.128  1.00  0.00     0.159 HD
HETATM   16  O   UNL     1      38.323 -14.760  -4.166  1.00  0.00    -0.268 OA
ENDBRANCH   8  12
ENDBRANCH   5   6
ENDBRANCH   2   5
BRANCH   1  17
HETATM   17  C   UNL     1      42.144 -16.783   3.023  1.00  0.00     0.045 A 
HETATM   18  C   UNL     1      42.391 -16.743   4.435  1.00  0.00     0.001 A 
HETATM   19  C   UNL     1      43.378 -17.612   4.973  1.00  0.00    -0.024 A 
HETATM   20  C   UNL     1      41.710 -15.906   5.364  1.00  0.00     0.014 A 
HETATM   21  C   UNL     1      43.657 -17.616   6.348  1.00  0.00     0.012 A 
HETATM   22  C   UNL     1      44.083 -18.482   4.135  1.00  0.00     0.012 A 
HETATM   23  C   UNL     1      42.974 -16.778   7.224  1.00  0.00     0.001 A 
HETATM   24  C   UNL     1      42.000 -15.924   6.733  1.00  0.00     0.001 A 
HETATM   25  C   UNL     1      43.832 -18.515   2.770  1.00  0.00     0.003 A 
HETATM   26  C   UNL     1      42.872 -17.672   2.219  1.00  0.00     0.030 A 
ENDBRANCH   1  17
TORSDOF 4
ENDMDL
MODEL 2
REMARK VINA RESULT:      -9.0      0.834      2.285
REMARK  4 active torsions:
REMARK  status: ('A' for Active; 'I' for Inactive)
REMARK    1  A    between atoms: C_5  and  N_6 
REMARK       I    between atoms: N_6  and  C_7 
REMARK    2  A    between atoms: C_7  and  C_8 
REMARK    3  A    between atoms: C_8  and  N_9 
REMARK    4  A    between atoms: C_11  and  C_12 
REMARK       I    between atoms: C_12  and  N_13 
ROOT
HETATM    1  N   UNL     1      41.231 -14.988   3.259  1.00  0.00    -0.325 N 
HETATM    2  C   UNL     1      41.380 -14.300   2.065  1.00  0.00     0.240 C 
HETATM    3  O   UNL     1      42.415 -14.171   1.419  1.00  0.00    -0.271 OA
HETATM    4  H   UNL     1      40.296 -15.128   3.617  1.00  0.00     0.169 HD
ENDROOT
BRANCH   2   5
HETATM    5  C   UNL     1      40.089 -13.682   1.552  1.00  0.00     0.230 C 
BRANCH   5   6
HETATM    6  N   UNL     1      40.191 -13.476   0.085  1.00  0.00    -0.357 N 
HETATM    7  C   UNL     1      39.506 -14.297  -0.749  1.00  0.00     0.108 A 
HETATM    8  C   UNL     1      39.512 -14.083  -2.127  1.00  0.00     0.047 A 
HETATM    9  C   UNL     1      40.250 -13.024  -2.647  1.00  0.00     0.020 A 
HETATM   10  C   UNL     1      40.946 -12.190  -1.775  1.00  0.00     0.018 A 
HETATM   11  C   UNL     1      40.893 -12.428  -0.405  1.00  0.00     0.091 A 
BRANCH   8  12
HETATM   12  C   UNL     1      38.735 -15.031  -2.948  1.00  0.00     0.250 C 
HETATM   13  N   UNL     1      38.415 -16.244  -2.418  1.00  0.00    -0.366 N 
HETATM   14  H   UNL     1      38.789 -16.622  -1.559  1.00  0.00     0.159 HD
HETATM   15  H   UNL     1      37.938 -16.900  -3.029  1.00  0.00     0.159 HD
HETATM   16  O   UNL     1      38.422 -14.716  -4.088  1.00  0.00    -0.268 OA
ENDBRANCH   8  12
ENDBRANCH   5   6
ENDBRANCH   2   5
BRANCH   1  17
HETATM   17  C   UNL     1      42.264 -15.582   4.041  1.00  0.00     0.045 A 
HETATM   18  C   UNL     1      42.798 -16.855   3.654  1.00  0.00     0.001 A 
HETATM   19  C   UNL     1      43.797 -17.446   4.475  1.00  0.00    -0.024 A 
HETATM   20  C   UNL     1      42.423 -17.583   2.491  1.00  0.00     0.014 A 
HETATM   21  C   UNL     1      44.356 -18.689   4.141  1.00  0.00     0.012 A 
HETATM   22  C   UNL     1      44.240 -16.791   5.629  1.00  0.00     0.012 A 
HETATM   23  C   UNL     1      43.957 -19.375   2.997  1.00  0.00     0.001 A 
HETATM   24  C   UNL     1      42.992 -18.821   2.171  1.00  0.00     0.001 A 
HETATM   25  C   UNL     1      43.718 -15.557   5.991  1.00  0.00     0.003 A 
HETATM   26  C   UNL     1      42.738 -14.958   5.204  1.00  0.00     0.030 A 
ENDBRANCH   1  17
TORSDOF 4
ENDMDL
MODEL 3
REMARK VINA RESULT:      -8.5      1.903      3.187
REMARK  4 active torsions:
REMARK  status: ('A' for Active; 'I' for Inactive)
REMARK    1  A    between atoms: C_5  and  N_6 
REMARK       I    between atoms: N_6  and  C_7 
REMARK    2  A    between atoms: C_7  and  C_8 
REMARK    3  A    between atoms: C_8  and  N_9 
REMARK    4  A    between atoms: C_11  and  C_12 
REMARK       I    between atoms: C_12  and  N_13 
ROOT
HETATM    1  N   UNL     1      41.955 -14.389   3.871  1.00  0.00    -0.325 N 
HETATM    2  C   UNL     1      42.316 -13.331   3.052  1.00  0.00     0.240 C 
HETATM    3  O   UNL     1      43.456 -13.016   2.724  1.00  0.00    -0.271 OA
HETATM    4  H   UNL     1      40.973 -14.617   3.953  1.00  0.00     0.169 HD
ENDROOT
BRANCH   2   5
HETATM    5  C   UNL     1      41.133 -12.532   2.529  1.00  0.00     0.230 C 
BRANCH   5   6
HETATM    6  N   UNL     1      40.692 -13.099   1.229  1.00  0.00    -0.357 N 
HETATM    7  C   UNL     1      40.923 -12.402   0.090  1.00  0.00     0.108 A 
HETATM    8  C   UNL     1      40.598 -12.939  -1.155  1.00  0.00     0.047 A 
HETATM    9  C   UNL     1      40.009 -14.198  -1.220  1.00  0.00     0.020 A 
HETATM   10  C   UNL     1      39.781 -14.900  -0.039  1.00  0.00     0.018 A 
HETATM   11  C   UNL     1      40.142 -14.335   1.180  1.00  0.00     0.091 A 
BRANCH   8  12
HETATM   12  C   UNL     1      40.890 -12.102  -2.335  1.00  0.00     0.250 C 
HETATM   13  N   UNL     1      41.683 -12.613  -3.318  1.00  0.00    -0.366 N 
HETATM   14  H   UNL     1      42.218 -13.466  -3.251  1.00  0.00     0.159 HD
HETATM   15  H   UNL     1      41.919 -11.990  -4.085  1.00  0.00     0.159 HD
HETATM   16  O   UNL     1      40.438 -10.966  -2.388  1.00  0.00    -0.268 OA
ENDBRANCH   8  12
ENDBRANCH   5   6
ENDBRANCH   2   5
BRANCH   1  17
HETATM   17  C   UNL     1      42.829 -15.252   4.595  1.00  0.00     0.045 A 
HETATM   18  C   UNL     1      43.167 -16.534   4.047  1.00  0.00     0.001 A 
HETATM   19  C   UNL     1      44.005 -17.393   4.808  1.00  0.00    -0.024 A 
HETATM   20  C   UNL     1      42.742 -17.023   2.780  1.00  0.00     0.014 A 
HETATM   21  C   UNL     1      44.369 -18.657   4.319  1.00  0.00     0.012 A 
HETATM   22  C   UNL     1      44.484 -16.986   6.058  1.00  0.00     0.012 A 
HETATM   23  C   UNL     1      43.928 -19.103   3.077  1.00  0.00     0.001 A 
HETATM   24  C   UNL     1      43.116 -18.286   2.306  1.00  0.00     0.001 A 
HETATM   25  C   UNL     1      44.154 -15.740   6.575  1.00  0.00     0.003 A 
HETATM   26  C   UNL     1      43.333 -14.881   5.850  1.00  0.00     0.030 A 
ENDBRANCH   1  17
TORSDOF 4
ENDMDL
MODEL 4
REMARK VINA RESULT:      -8.4      2.068      3.272
REMARK  4 active torsions:
REMARK  status: ('A' for Active; 'I' for Inactive)
REMARK    1  A    between atoms: C_5  and  N_6 
REMARK       I    between atoms: N_6  and  C_7 
REMARK    2  A    between atoms: C_7  and  C_8 
REMARK    3  A    between atoms: C_8  and  N_9 
REMARK    4  A    between atoms: C_11  and  C_12 
REMARK       I    between atoms: C_12  and  N_13 
ROOT
HETATM    1  N   UNL     1      41.933 -16.083   2.048  1.00  0.00    -0.325 N 
HETATM    2  C   UNL     1      40.570 -15.839   2.091  1.00  0.00     0.240 C 
HETATM    3  O   UNL     1      39.842 -15.922   3.076  1.00  0.00    -0.271 OA
HETATM    4  H   UNL     1      42.434 -15.850   1.202  1.00  0.00     0.169 HD
ENDROOT
BRANCH   2   5
HETATM    5  C   UNL     1      39.983 -15.415   0.754  1.00  0.00     0.230 C 
BRANCH   5   6
HETATM    6  N   UNL     1      40.334 -13.997   0.490  1.00  0.00    -0.357 N 
HETATM    7  C   UNL     1      40.568 -13.597  -0.784  1.00  0.00     0.108 A 
HETATM    8  C   UNL     1      40.818 -12.257  -1.079  1.00  0.00     0.047 A 
HETATM    9  C   UNL     1      40.848 -11.327  -0.043  1.00  0.00     0.020 A 
HETATM   10  C   UNL     1      40.604 -11.756   1.259  1.00  0.00     0.018 A 
HETATM   11  C   UNL     1      40.336 -13.100   1.504  1.00  0.00     0.091 A 
BRANCH   8  12
HETATM   12  C   UNL     1      41.059 -11.924  -2.495  1.00  0.00     0.250 C 
HETATM   13  N   UNL     1      41.733 -12.818  -3.271  1.00  0.00    -0.366 N 
HETATM   14  H   UNL     1      42.221 -13.635  -2.930  1.00  0.00     0.159 HD
HETATM   15  H   UNL     1      41.941 -12.533  -4.223  1.00  0.00     0.159 HD
HETATM   16  O   UNL     1      40.673 -10.847  -2.930  1.00  0.00    -0.268 OA
ENDBRANCH   8  12
ENDBRANCH   5   6
ENDBRANCH   2   5
BRANCH   1  17
HETATM   17  C   UNL     1      42.747 -16.593   3.102  1.00  0.00     0.045 A 
HETATM   18  C   UNL     1      43.121 -17.978   3.097  1.00  0.00     0.001 A 
HETATM   19  C   UNL     1      43.896 -18.471   4.181  1.00  0.00    -0.024 A 
HETATM   20  C   UNL     1      42.791 -18.913   2.077  1.00  0.00     0.014 A 
HETATM   21  C   UNL     1      44.292 -19.817   4.225  1.00  0.00     0.012 A 
HETATM   22  C   UNL     1      44.282 -17.617   5.220  1.00  0.00     0.012 A 
HETATM   23  C   UNL     1      43.943 -20.704   3.210  1.00  0.00     0.001 A 
HETATM   24  C   UNL     1      43.195 -20.252   2.135  1.00  0.00     0.001 A 
HETATM   25  C   UNL     1      43.918 -16.277   5.210  1.00  0.00     0.003 A 
HETATM   26  C   UNL     1      43.157 -15.770   4.161  1.00  0.00     0.030 A 
ENDBRANCH   1  17
TORSDOF 4
ENDMDL
MODEL 5
REMARK VINA RESULT:      -8.4      2.526      7.944
REMARK  4 active torsions:
REMARK  status: ('A' for Active; 'I' for Inactive)
REMARK    1  A    between atoms: C_5  and  N_6 
REMARK       I    between atoms: N_6  and  C_7 
REMARK    2  A    between atoms: C_7  and  C_8 
REMARK    3  A    between atoms: C_8  and  N_9 
REMARK    4  A    between atoms: C_11  and  C_12 
REMARK       I    between atoms: C_12  and  N_13 
ROOT
HETATM    1  N   UNL     1      41.670 -14.235   0.673  1.00  0.00    -0.325 N 
HETATM    2  C   UNL     1      41.793 -15.416   1.388  1.00  0.00     0.240 C 
HETATM    3  O   UNL     1      40.896 -16.010   1.980  1.00  0.00    -0.271 OA
HETATM    4  H   UNL     1      42.460 -13.924   0.125  1.00  0.00     0.169 HD
ENDROOT
BRANCH   2   5
HETATM    5  C   UNL     1      43.202 -15.987   1.386  1.00  0.00     0.230 C 
BRANCH   5   6
HETATM    6  N   UNL     1      43.373 -16.879   2.561  1.00  0.00    -0.357 N 
HETATM    7  C   UNL     1      43.484 -18.216   2.369  1.00  0.00     0.108 A 
HETATM    8  C   UNL     1      43.729 -19.075   3.440  1.00  0.00     0.047 A 
HETATM    9  C   UNL     1      43.838 -18.547   4.723  1.00  0.00     0.020 A 
HETATM   10  C   UNL     1      43.723 -17.171   4.901  1.00  0.00     0.018 A 
HETATM   11  C   UNL     1      43.501 -16.349   3.800  1.00  0.00     0.091 A 
BRANCH   8  12
HETATM   12  C   UNL     1      43.833 -20.513   3.126  1.00  0.00     0.250 C 
HETATM   13  N   UNL     1      44.038 -21.390   4.147  1.00  0.00    -0.366 N 
HETATM   14  H   UNL     1      44.276 -21.137   5.096  1.00  0.00     0.159 HD
HETATM   15  H   UNL     1      44.172 -22.365   3.893  1.00  0.00     0.159 HD
HETATM   16  O   UNL     1      43.761 -20.876   1.960  1.00  0.00    -0.268 OA
ENDBRANCH   8  12
ENDBRANCH   5   6
ENDBRANCH   2   5
BRANCH   1  17
HETATM   17  C   UNL     1      40.514 -13.407   0.576  1.00  0.00     0.045 A 
HETATM   18  C   UNL     1      39.694 -13.476  -0.598  1.00  0.00     0.001 A 
HETATM   19  C   UNL     1      38.572 -12.609  -0.689  1.00  0.00    -0.024 A 
HETATM   20  C   UNL     1      39.899 -14.363  -1.691  1.00  0.00     0.014 A 
HETATM   21  C   UNL     1      37.733 -12.636  -1.814  1.00  0.00     0.012 A 
HETATM   22  C   UNL     1      38.284 -11.716   0.349  1.00  0.00     0.012 A 
HETATM   23  C   UNL     1      37.971 -13.515  -2.868  1.00  0.00     0.001 A 
HETATM   24  C   UNL     1      39.052 -14.379  -2.805  1.00  0.00     0.001 A 
HETATM   25  C   UNL     1      39.083 -11.662   1.483  1.00  0.00     0.003 A 
HETATM   26  C   UNL     1      40.189 -12.500   1.595  1.00  0.00     0.030 A 
ENDBRANCH   1  17
TORSDOF 4
ENDMDL
MODEL 6
REMARK VINA RESULT:      -8.2      4.933      8.331
REMARK  4 active torsions:
REMARK  status: ('A' for Active; 'I' for Inactive)
REMARK    1  A    between atoms: C_5  and  N_6 
REMARK       I    between atoms: N_6  and  C_7 
REMARK    2  A    between atoms: C_7  and  C_8 
REMARK    3  A    between atoms: C_8  and  N_9 
REMARK    4  A    between atoms: C_11  and  C_12 
REMARK       I    between atoms: C_12  and  N_13 
ROOT
HETATM    1  N   UNL     1      43.285 -13.958   5.799  1.00  0.00    -0.325 N 
HETATM    2  C   UNL     1      42.135 -13.203   5.968  1.00  0.00     0.240 C 
HETATM    3  O   UNL     1      41.015 -13.626   6.240  1.00  0.00    -0.271 OA
HETATM    4  H   UNL     1      44.167 -13.472   5.708  1.00  0.00     0.169 HD
ENDROOT
BRANCH   2   5
HETATM    5  C   UNL     1      42.356 -11.708   5.801  1.00  0.00     0.230 C 
BRANCH   5   6
HETATM    6  N   UNL     1      43.566 -11.302   6.560  1.00  0.00    -0.357 N 
HETATM    7  C   UNL     1      43.446 -10.960   7.866  1.00  0.00     0.108 A 
HETATM    8  C   UNL     1      44.571 -10.653   8.631  1.00  0.00     0.047 A 
HETATM    9  C   UNL     1      45.828 -10.680   8.034  1.00  0.00     0.020 A 
HETATM   10  C   UNL     1      45.932 -11.035   6.691  1.00  0.00     0.018 A 
HETATM   11  C   UNL     1      44.784 -11.356   5.972  1.00  0.00     0.091 A 
BRANCH   8  12
HETATM   12  C   UNL     1      44.335 -10.294  10.043  1.00  0.00     0.250 C 
HETATM   13  N   UNL     1      43.237 -10.801  10.670  1.00  0.00    -0.366 N 
HETATM   14  H   UNL     1      42.478 -11.287  10.215  1.00  0.00     0.159 HD
HETATM   15  H   UNL     1      43.066 -10.484  11.620  1.00  0.00     0.159 HD
HETATM   16  O   UNL     1      45.112  -9.533  10.603  1.00  0.00    -0.268 OA
ENDBRANCH   8  12
ENDBRANCH   5   6
ENDBRANCH   2   5
BRANCH   1  17
HETATM   17  C   UNL     1      43.384 -15.380   5.787  1.00  0.00     0.045 A 
HETATM   18  C   UNL     1      43.334 -16.080   4.537  1.00  0.00     0.001 A 
HETATM   19  C   UNL     1      43.392 -17.499   4.555  1.00  0.00    -0.024 A 
HETATM   20  C   UNL     1      43.247 -15.466   3.256  1.00  0.00     0.014 A 
HETATM   21  C   UNL     1      43.349 -18.234   3.360  1.00  0.00     0.012 A 
HETATM   22  C   UNL     1      43.497 -18.186   5.769  1.00  0.00     0.012 A 
HETATM   23  C   UNL     1      43.257 -17.597   2.126  1.00  0.00     0.001 A 
HETATM   24  C   UNL     1      43.208 -16.213   2.073  1.00  0.00     0.001 A 
HETATM   25  C   UNL     1      43.549 -17.497   6.973  1.00  0.00     0.003 A 
HETATM   26  C   UNL     1      43.493 -16.106   6.982  1.00  0.00     0.030 A 
ENDBRANCH   1  17
TORSDOF 4
ENDMDL
MODEL 7
REMARK VINA RESULT:      -8.1      2.535      4.338
REMARK  4 active torsions:
REMARK  status: ('A' for Active; 'I' for Inactive)
REMARK    1  A    between atoms: C_5  and  N_6 
REMARK       I    between atoms: N_6  and  C_7 
REMARK    2  A    between atoms: C_7  and  C_8 
REMARK    3  A    between atoms: C_8  and  N_9 
REMARK    4  A    between atoms: C_11  and  C_12 
REMARK       I    between atoms: C_12  and  N_13 
ROOT
HETATM    1  N   UNL     1      42.263 -15.766   2.081  1.00  0.00    -0.325 N 
HETATM    2  C   UNL     1      40.908 -15.519   1.933  1.00  0.00     0.240 C 
HETATM    3  O   UNL     1      40.036 -15.689   2.781  1.00  0.00    -0.271 OA
HETATM    4  H   UNL     1      42.888 -15.457   1.348  1.00  0.00     0.169 HD
ENDROOT
BRANCH   2   5
HETATM    5  C   UNL     1      40.533 -14.968   0.567  1.00  0.00     0.230 C 
BRANCH   5   6
HETATM    6  N   UNL     1      40.279 -13.508   0.678  1.00  0.00    -0.357 N 
HETATM    7  C   UNL     1      41.097 -12.749   1.448  1.00  0.00     0.108 A 
HETATM    8  C   UNL     1      40.940 -11.366   1.510  1.00  0.00     0.047 A 
HETATM    9  C   UNL     1      39.913 -10.765   0.786  1.00  0.00     0.020 A 
HETATM   10  C   UNL     1      39.083 -11.560   0.000  1.00  0.00     0.018 A 
HETATM   11  C   UNL     1      39.291 -12.936  -0.050  1.00  0.00     0.091 A 
BRANCH   8  12
HETATM   12  C   UNL     1      41.881 -10.629   2.374  1.00  0.00     0.250 C 
HETATM   13  N   UNL     1      41.528  -9.391   2.818  1.00  0.00    -0.366 N 
HETATM   14  H   UNL     1      40.736  -8.857   2.489  1.00  0.00     0.159 HD
HETATM   15  H   UNL     1      42.223  -8.882   3.356  1.00  0.00     0.159 HD
HETATM   16  O   UNL     1      42.961 -11.135   2.648  1.00  0.00    -0.268 OA
ENDBRANCH   8  12
ENDBRANCH   5   6
ENDBRANCH   2   5
BRANCH   1  17
HETATM   17  C   UNL     1      42.908 -16.378   3.195  1.00  0.00     0.045 A 
HETATM   18  C   UNL     1      43.203 -17.781   3.156  1.00  0.00     0.001 A 
HETATM   19  C   UNL     1      43.807 -18.375   4.297  1.00  0.00    -0.024 A 
HETATM   20  C   UNL     1      42.956 -18.641   2.050  1.00  0.00     0.014 A 
HETATM   21  C   UNL     1      44.120 -19.744   4.311  1.00  0.00     0.012 A 
HETATM   22  C   UNL     1      44.103 -17.600   5.423  1.00  0.00     0.012 A 
HETATM   23  C   UNL     1      43.856 -20.554   3.211  1.00  0.00     0.001 A 
HETATM   24  C   UNL     1      43.276 -20.003   2.080  1.00  0.00     0.001 A 
HETATM   25  C   UNL     1      43.816 -16.242   5.447  1.00  0.00     0.003 A 
HETATM   26  C   UNL     1      43.224 -15.637   4.343  1.00  0.00     0.030 A 
ENDBRANCH   1  17
TORSDOF 4
ENDMDL
MODEL 8
REMARK VINA RESULT:      -8.0      2.155      3.500
REMARK  4 active torsions:
REMARK  status: ('A' for Active; 'I' for Inactive)
REMARK    1  A    between atoms: C_5  and  N_6 
REMARK       I    between atoms: N_6  and  C_7 
REMARK    2  A    between atoms: C_7  and  C_8 
REMARK    3  A    between atoms: C_8  and  N_9 
REMARK    4  A    between atoms: C_11  and  C_12 
REMARK       I    between atoms: C_12  and  N_13 
ROOT
HETATM    1  N   UNL     1      42.310 -13.762   4.707  1.00  0.00    -0.325 N 
HETATM    2  C   UNL     1      40.984 -13.455   4.969  1.00  0.00     0.240 C 
HETATM    3  O   UNL     1      40.217 -14.085   5.692  1.00  0.00    -0.271 OA
HETATM    4  H   UNL     1      42.865 -13.087   4.199  1.00  0.00     0.169 HD
ENDROOT
BRANCH   2   5
HETATM    5  C   UNL     1      40.501 -12.193   4.274  1.00  0.00     0.230 C 
BRANCH   5   6
HETATM    6  N   UNL     1      40.687 -12.336   2.808  1.00  0.00    -0.357 N 
HETATM    7  C   UNL     1      40.213 -13.443   2.184  1.00  0.00     0.108 A 
HETATM    8  C   UNL     1      40.296 -13.573   0.799  1.00  0.00     0.047 A 
HETATM    9  C   UNL     1      40.895 -12.560   0.055  1.00  0.00     0.020 A 
HETATM   10  C   UNL     1      41.374 -11.430   0.712  1.00  0.00     0.018 A 
HETATM   11  C   UNL     1      41.249 -11.332   2.095  1.00  0.00     0.091 A 
BRANCH   8  12
HETATM   12  C   UNL     1      39.751 -14.814   0.216  1.00  0.00     0.250 C 
HETATM   13  N   UNL     1      39.153 -14.754  -1.006  1.00  0.00    -0.366 N 
HETATM   14  H   UNL     1      38.910 -13.904  -1.495  1.00  0.00     0.159 HD
HETATM   15  H   UNL     1      38.729 -15.610  -1.351  1.00  0.00     0.159 HD
HETATM   16  O   UNL     1      39.826 -15.856   0.853  1.00  0.00    -0.268 OA
ENDBRANCH   8  12
ENDBRANCH   5   6
ENDBRANCH   2   5
BRANCH   1  17
HETATM   17  C   UNL     1      43.020 -14.927   5.120  1.00  0.00     0.045 A 
HETATM   18  C   UNL     1      43.149 -16.032   4.215  1.00  0.00     0.001 A 
HETATM   19  C   UNL     1      43.823 -17.199   4.666  1.00  0.00    -0.024 A 
HETATM   20  C   UNL     1      42.666 -16.057   2.876  1.00  0.00     0.014 A 
HETATM   21  C   UNL     1      43.980 -18.308   3.821  1.00  0.00     0.012 A 
HETATM   22  C   UNL     1      44.346 -17.255   5.962  1.00  0.00     0.012 A 
HETATM   23  C   UNL     1      43.488 -18.297   2.519  1.00  0.00     0.001 A 
HETATM   24  C   UNL     1      42.833 -17.172   2.046  1.00  0.00     0.001 A 
HETATM   25  C   UNL     1      44.219 -16.176   6.827  1.00  0.00     0.003 A 
HETATM   26  C   UNL     1      43.562 -15.023   6.410  1.00  0.00     0.030 A 
ENDBRANCH   1  17
TORSDOF 4
ENDMDL
MODEL 9
REMARK VINA RESULT:      -7.9      4.726      6.324
REMARK  4 active torsions:
REMARK  status: ('A' for Active; 'I' for Inactive)
REMARK    1  A    between atoms: C_5  and  N_6 
REMARK       I    between atoms: N_6  and  C_7 
REMARK    2  A    between atoms: C_7  and  C_8 
REMARK    3  A    between atoms: C_8  and  N_9 
REMARK    4  A    between atoms: C_11  and  C_12 
REMARK       I    between atoms: C_12  and  N_13 
ROOT
HETATM    1  N   UNL     1      43.577 -16.009   5.372  1.00  0.00    -0.325 N 
HETATM    2  C   UNL     1      42.599 -15.756   6.321  1.00  0.00     0.240 C 
HETATM    3  O   UNL     1      41.482 -16.263   6.374  1.00  0.00    -0.271 OA
HETATM    4  H   UNL     1      44.499 -15.622   5.521  1.00  0.00     0.169 HD
ENDROOT
BRANCH   2   5
HETATM    5  C   UNL     1      43.023 -14.752   7.381  1.00  0.00     0.230 C 
BRANCH   5   6
HETATM    6  N   UNL     1      43.163 -13.410   6.761  1.00  0.00    -0.357 N 
HETATM    7  C   UNL     1      42.091 -12.845   6.154  1.00  0.00     0.108 A 
HETATM    8  C   UNL     1      42.162 -11.553   5.634  1.00  0.00     0.047 A 
HETATM    9  C   UNL     1      43.361 -10.850   5.723  1.00  0.00     0.020 A 
HETATM   10  C   UNL     1      44.451 -11.447   6.350  1.00  0.00     0.018 A 
HETATM   11  C   UNL     1      44.327 -12.730   6.876  1.00  0.00     0.091 A 
BRANCH   8  12
HETATM   12  C   UNL     1      40.941 -11.027   4.995  1.00  0.00     0.250 C 
HETATM   13  N   UNL     1      40.682  -9.693   5.080  1.00  0.00    -0.366 N 
HETATM   14  H   UNL     1      41.176  -9.039   5.672  1.00  0.00     0.159 HD
HETATM   15  H   UNL     1      39.802  -9.371   4.688  1.00  0.00     0.159 HD
HETATM   16  O   UNL     1      40.181 -11.803   4.431  1.00  0.00    -0.268 OA
ENDBRANCH   8  12
ENDBRANCH   5   6
ENDBRANCH   2   5
BRANCH   1  17
HETATM   17  C   UNL     1      43.450 -16.813   4.201  1.00  0.00     0.045 A 
HETATM   18  C   UNL     1      43.634 -18.231   4.297  1.00  0.00     0.001 A 
HETATM   19  C   UNL     1      43.545 -19.005   3.108  1.00  0.00    -0.024 A 
HETATM   20  C   UNL     1      43.887 -18.947   5.500  1.00  0.00     0.014 A 
HETATM   21  C   UNL     1      43.714 -20.398   3.144  1.00  0.00     0.012 A 
HETATM   22  C   UNL     1      43.281 -18.386   1.881  1.00  0.00     0.012 A 
HETATM   23  C   UNL     1      43.967 -21.061   4.342  1.00  0.00     0.001 A 
HETATM   24  C   UNL     1      44.051 -20.337   5.520  1.00  0.00     0.001 A 
HETATM   25  C   UNL     1      43.100 -17.012   1.803  1.00  0.00     0.003 A 
HETATM   26  C   UNL     1      43.184 -16.232   2.953  1.00  0.00     0.030 A 
ENDBRANCH   1  17
TORSDOF 4
ENDMDL
MODEL 10
REMARK VINA RESULT:      -7.9      3.408      5.088
REMARK  4 active torsions:
REMARK  status: ('A' for Active; 'I' for Inactive)
REMARK    1  A    between atoms: C_5  and  N_6 
REMARK       I    between atoms: N_6  and  C_7 
REMARK    2  A    between atoms: C_7  and  C_8 
REMARK    3  A    between atoms: C_8  and  N_9 
REMARK    4  A    between atoms: C_11  and  C_12 
REMARK       I    between atoms: C_12  and  N_13 
ROOT
HETATM    1  N   UNL     1      43.146 -16.469   2.513  1.00  0.00    -0.325 N 
HETATM    2  C   UNL     1      41.956 -15.877   2.121  1.00  0.00     0.240 C 
HETATM    3  O   UNL     1      40.846 -16.401   2.111  1.00  0.00    -0.271 OA
HETATM    4  H   UNL     1      43.966 -15.884   2.597  1.00  0.00     0.169 HD
ENDROOT
BRANCH   2   5
HETATM    5  C   UNL     1      42.109 -14.428   1.687  1.00  0.00     0.230 C 
BRANCH   5   6
HETATM    6  N   UNL     1      42.253 -13.567   2.889  1.00  0.00    -0.357 N 
HETATM    7  C   UNL     1      41.314 -13.628   3.865  1.00  0.00     0.108 A 
HETATM    8  C   UNL     1      41.459 -12.897   5.043  1.00  0.00     0.047 A 
HETATM    9  C   UNL     1      42.574 -12.078   5.203  1.00  0.00     0.020 A 
HETATM   10  C   UNL     1      43.529 -12.030   4.190  1.00  0.00     0.018 A 
HETATM   11  C   UNL     1      43.354 -12.794   3.040  1.00  0.00     0.091 A 
BRANCH   8  12
HETATM   12  C   UNL     1      40.384 -13.032   6.044  1.00  0.00     0.250 C 
HETATM   13  N   UNL     1      39.950 -11.915   6.691  1.00  0.00    -0.366 N 
HETATM   14  H   UNL     1      40.400 -11.011   6.660  1.00  0.00     0.159 HD
HETATM   15  H   UNL     1      39.256 -12.049   7.420  1.00  0.00     0.159 HD
HETATM   16  O   UNL     1      39.930 -14.142   6.286  1.00  0.00    -0.268 OA
ENDBRANCH   8  12
ENDBRANCH   5   6
ENDBRANCH   2   5
BRANCH   1  17
HETATM   17  C   UNL     1      43.349 -17.834   2.868  1.00  0.00     0.045 A 
HETATM   18  C   UNL     1      43.422 -18.199   4.253  1.00  0.00     0.001 A 
HETATM   19  C   UNL     1      43.669 -19.560   4.581  1.00  0.00    -0.024 A 
HETATM   20  C   UNL     1      43.250 -17.305   5.347  1.00  0.00     0.014 A 
HETATM   21  C   UNL     1      43.747 -19.972   5.920  1.00  0.00     0.012 A 
HETATM   22  C   UNL     1      43.832 -20.511   3.568  1.00  0.00     0.012 A 
HETATM   23  C   UNL     1      43.580 -19.066   6.963  1.00  0.00     0.001 A 
HETATM   24  C   UNL     1      43.330 -17.733   6.677  1.00  0.00     0.001 A 
HETATM   25  C   UNL     1      43.755 -20.146   2.231  1.00  0.00     0.003 A 
HETATM   26  C   UNL     1      43.516 -18.820   1.884  1.00  0.00     0.030 A 
ENDBRANCH   1  17
TORSDOF 4
ENDMDL
