MODEL 1
REMARK VINA RESULT:      -8.2      0.000      0.000
REMARK  6 active torsions:
REMARK  status: ('A' for Active; 'I' for Inactive)
REMARK    1  A    between atoms: C_2  and  N_3 
REMARK       I    between atoms: N_3  and  C_4 
REMARK    2  A    between atoms: C_4  and  C_5 
REMARK    3  A    between atoms: C_7  and  N_8 
REMARK       I    between atoms: N_8  and  C_9 
REMARK    4  A    between atoms: C_9  and  C_10 
REMARK    5  A    between atoms: C_10  and  C_11 
REMARK    6  A    between atoms: C_15  and  O_16 
ROOT
HETATM    1  N   UNL     1      42.830 -12.872   7.120  1.00  0.00    -0.327 N 
HETATM    2  C   UNL     1      42.216 -13.232   5.931  1.00  0.00     0.226 C 
HETATM    3  O   UNL     1      42.309 -12.631   4.862  1.00  0.00    -0.273 OA
HETATM    4  H   UNL     1      42.549 -13.373   7.954  1.00  0.00     0.169 HD
ENDROOT
BRANCH   1   5
HETATM    5  C   UNL     1      43.805 -11.867   7.295  1.00  0.00     0.035 A 
HETATM    6  C   UNL     1      43.546 -10.650   7.933  1.00  0.00     0.046 A 
HETATM    7  C   UNL     1      44.551  -9.681   8.071  1.00  0.00     0.034 A 
HETATM    8  C   UNL     1      45.822  -9.935   7.540  1.00  0.00     0.017 A 
HETATM    9  C   UNL     1      46.084 -11.139   6.887  1.00  0.00     0.003 A 
HETATM   10  C   UNL     1      45.078 -12.098   6.762  1.00  0.00     0.029 A 
BRANCH   7  11
HETATM   11  C   UNL     1      44.304  -8.359   8.720  1.00  0.00     0.251 C 
HETATM   12  N   UNL     1      43.217  -8.265   9.565  1.00  0.00    -0.357 N 
HETATM   13  H   UNL     1      42.724  -9.100   9.852  1.00  0.00     0.162 HD
HETATM   14  O   UNL     1      45.061  -7.419   8.498  1.00  0.00    -0.268 OA
BRANCH  12  15
HETATM   15  C   UNL     1      42.893  -7.036  10.261  1.00  0.00     0.118 C 
HETATM   16  C   UNL     1      42.645  -7.282  11.737  1.00  0.00     0.026 C 
ENDBRANCH  12  15
ENDBRANCH   7  11
ENDBRANCH   1   5
BRANCH   2  17
HETATM   17  C   UNL     1      41.359 -14.482   6.045  1.00  0.00     0.144 C 
BRANCH  17  18
HETATM   18  C   UNL     1      42.162 -15.740   6.019  1.00  0.00    -0.014 A 
HETATM   19  C   UNL     1      42.568 -16.520   4.887  1.00  0.00     0.006 A 
HETATM   20  C   UNL     1      43.299 -17.586   5.395  1.00  0.00     0.088 A 
HETATM   21  C   UNL     1      42.406 -16.441   3.491  1.00  0.00     0.017 A 
HETATM   22  C   UNL     1      43.892 -18.574   4.614  1.00  0.00     0.074 A 
HETATM   23  O   UNL     1      43.348 -17.519   6.752  1.00  0.00    -0.321 OA
HETATM   24  C   UNL     1      43.746 -18.464   3.227  1.00  0.00     0.070 A 
HETATM   25  C   UNL     1      43.005 -17.416   2.675  1.00  0.00     0.038 A 
HETATM   26  C   UNL     1      42.658 -16.412   7.121  1.00  0.00     0.151 A 
BRANCH  24  27
HETATM   27  O   UNL     1      44.370 -19.456   2.514  1.00  0.00    -0.356 OA
HETATM   28  C   UNL     1      43.533 -20.417   1.883  1.00  0.00     0.210 C 
ENDBRANCH  24  27
ENDBRANCH  17  18
ENDBRANCH   2  17
TORSDOF 6
ENDMDL
MODEL 2
REMARK VINA RESULT:      -8.2      1.158      1.769
REMARK  6 active torsions:
REMARK  status: ('A' for Active; 'I' for Inactive)
REMARK    1  A    between atoms: C_2  and  N_3 
REMARK       I    between atoms: N_3  and  C_4 
REMARK    2  A    between atoms: C_4  and  C_5 
REMARK    3  A    between atoms: C_7  and  N_8 
REMARK       I    between atoms: N_8  and  C_9 
REMARK    4  A    between atoms: C_9  and  C_10 
REMARK    5  A    between atoms: C_10  and  C_11 
REMARK    6  A    between atoms: C_15  and  O_16 
ROOT
HETATM    1  N   UNL     1      42.514 -12.869   6.772  1.00  0.00    -0.327 N 
HETATM    2  C   UNL     1      41.806 -13.009   5.589  1.00  0.00     0.226 C 
HETATM    3  O   UNL     1      41.871 -12.257   4.618  1.00  0.00    -0.273 OA
HETATM    4  H   UNL     1      42.255 -13.476   7.540  1.00  0.00     0.169 HD
ENDROOT
BRANCH   1   5
HETATM    5  C   UNL     1      43.561 -11.956   7.026  1.00  0.00     0.035 A 
HETATM    6  C   UNL     1      43.384 -10.767   7.740  1.00  0.00     0.046 A 
HETATM    7  C   UNL     1      44.457  -9.890   7.954  1.00  0.00     0.034 A 
HETATM    8  C   UNL     1      45.715 -10.206   7.423  1.00  0.00     0.017 A 
HETATM    9  C   UNL     1      45.895 -11.382   6.695  1.00  0.00     0.003 A 
HETATM   10  C   UNL     1      44.821 -12.250   6.494  1.00  0.00     0.029 A 
BRANCH   7  11
HETATM   11  C   UNL     1      44.301  -8.598   8.687  1.00  0.00     0.251 C 
HETATM   12  N   UNL     1      43.323  -8.539   9.659  1.00  0.00    -0.357 N 
HETATM   13  H   UNL     1      42.860  -9.385   9.964  1.00  0.00     0.162 HD
HETATM   14  O   UNL     1      45.035  -7.652   8.419  1.00  0.00    -0.268 OA
BRANCH  12  15
HETATM   15  C   UNL     1      43.095  -7.343  10.443  1.00  0.00     0.118 C 
HETATM   16  C   UNL     1      42.673  -7.679  11.860  1.00  0.00     0.026 C 
ENDBRANCH  12  15
ENDBRANCH   7  11
ENDBRANCH   1   5
BRANCH   2  17
HETATM   17  C   UNL     1      40.881 -14.214   5.575  1.00  0.00     0.144 C 
BRANCH  17  18
HETATM   18  C   UNL     1      41.098 -15.100   4.393  1.00  0.00    -0.014 A 
HETATM   19  C   UNL     1      42.076 -16.133   4.217  1.00  0.00     0.006 A 
HETATM   20  C   UNL     1      41.856 -16.659   2.950  1.00  0.00     0.088 A 
HETATM   21  C   UNL     1      43.117 -16.686   4.986  1.00  0.00     0.017 A 
HETATM   22  C   UNL     1      42.589 -17.706   2.398  1.00  0.00     0.074 A 
HETATM   23  O   UNL     1      40.830 -16.008   2.341  1.00  0.00    -0.321 OA
HETATM   24  C   UNL     1      43.600 -18.264   3.187  1.00  0.00     0.070 A 
HETATM   25  C   UNL     1      43.865 -17.754   4.461  1.00  0.00     0.038 A 
HETATM   26  C   UNL     1      40.384 -15.067   3.210  1.00  0.00     0.151 A 
BRANCH  24  27
HETATM   27  O   UNL     1      44.270 -19.303   2.594  1.00  0.00    -0.356 OA
HETATM   28  C   UNL     1      43.477 -20.300   1.962  1.00  0.00     0.210 C 
ENDBRANCH  24  27
ENDBRANCH  17  18
ENDBRANCH   2  17
TORSDOF 6
ENDMDL
MODEL 3
REMARK VINA RESULT:      -7.7      6.069      8.804
REMARK  6 active torsions:
REMARK  status: ('A' for Active; 'I' for Inactive)
REMARK    1  A    between atoms: C_2  and  N_3 
REMARK       I    between atoms: N_3  and  C_4 
REMARK    2  A    between atoms: C_4  and  C_5 
REMARK    3  A    between atoms: C_7  and  N_8 
REMARK       I    between atoms: N_8  and  C_9 
REMARK    4  A    between atoms: C_9  and  C_10 
REMARK    5  A    between atoms: C_10  and  C_11 
REMARK    6  A    between atoms: C_15  and  O_16 
ROOT
HETATM    1  N   UNL     1      41.293 -13.090   0.399  1.00  0.00    -0.327 N 
HETATM    2  C   UNL     1      41.280 -13.377   1.755  1.00  0.00     0.226 C 
HETATM    3  O   UNL     1      40.289 -13.676   2.418  1.00  0.00    -0.273 OA
HETATM    4  H   UNL     1      42.153 -12.718   0.015  1.00  0.00     0.169 HD
ENDROOT
BRANCH   1   5
HETATM    5  C   UNL     1      40.225 -13.255  -0.508  1.00  0.00     0.035 A 
HETATM    6  C   UNL     1      39.312 -12.240  -0.810  1.00  0.00     0.046 A 
HETATM    7  C   UNL     1      38.261 -12.461  -1.711  1.00  0.00     0.034 A 
HETATM    8  C   UNL     1      38.117 -13.726  -2.297  1.00  0.00     0.017 A 
HETATM    9  C   UNL     1      39.013 -14.749  -1.988  1.00  0.00     0.003 A 
HETATM   10  C   UNL     1      40.059 -14.515  -1.094  1.00  0.00     0.029 A 
BRANCH   7  11
HETATM   11  C   UNL     1      37.251 -11.411  -2.037  1.00  0.00     0.251 C 
HETATM   12  N   UNL     1      36.605 -11.512  -3.253  1.00  0.00    -0.357 N 
HETATM   13  H   UNL     1      36.699 -12.351  -3.808  1.00  0.00     0.162 HD
HETATM   14  O   UNL     1      37.019 -10.515  -1.231  1.00  0.00    -0.268 OA
BRANCH  12  15
HETATM   15  C   UNL     1      35.596 -10.558  -3.664  1.00  0.00     0.118 C 
HETATM   16  C   UNL     1      34.256 -11.231  -3.891  1.00  0.00     0.026 C 
ENDBRANCH  12  15
ENDBRANCH   7  11
ENDBRANCH   1   5
BRANCH   2  17
HETATM   17  C   UNL     1      42.648 -13.277   2.409  1.00  0.00     0.144 C 
BRANCH  17  18
HETATM   18  C   UNL     1      42.903 -14.371   3.393  1.00  0.00    -0.014 A 
HETATM   19  C   UNL     1      43.109 -15.767   3.144  1.00  0.00     0.006 A 
HETATM   20  C   UNL     1      43.308 -16.354   4.388  1.00  0.00     0.088 A 
HETATM   21  C   UNL     1      43.154 -16.600   2.010  1.00  0.00     0.017 A 
HETATM   22  C   UNL     1      43.564 -17.708   4.583  1.00  0.00     0.074 A 
HETATM   23  O   UNL     1      43.220 -15.418   5.370  1.00  0.00    -0.321 OA
HETATM   24  C   UNL     1      43.635 -18.517   3.443  1.00  0.00     0.070 A 
HETATM   25  C   UNL     1      43.424 -17.969   2.175  1.00  0.00     0.038 A 
HETATM   26  C   UNL     1      42.970 -14.230   4.767  1.00  0.00     0.151 A 
BRANCH  24  27
HETATM   27  O   UNL     1      43.909 -19.834   3.703  1.00  0.00    -0.356 OA
HETATM   28  C   UNL     1      44.268 -20.165   5.039  1.00  0.00     0.210 C 
ENDBRANCH  24  27
ENDBRANCH  17  18
ENDBRANCH   2  17
TORSDOF 6
ENDMDL
MODEL 4
REMARK VINA RESULT:      -7.6      4.630      7.141
REMARK  6 active torsions:
REMARK  status: ('A' for Active; 'I' for Inactive)
REMARK    1  A    between atoms: C_2  and  N_3 
REMARK       I    between atoms: N_3  and  C_4 
REMARK    2  A    between atoms: C_4  and  C_5 
REMARK    3  A    between atoms: C_7  and  N_8 
REMARK       I    between atoms: N_8  and  C_9 
REMARK    4  A    between atoms: C_9  and  C_10 
REMARK    5  A    between atoms: C_10  and  C_11 
REMARK    6  A    between atoms: C_15  and  O_16 
ROOT
HETATM    1  N   UNL     1      39.465 -13.409   4.336  1.00  0.00    -0.327 N 
HETATM    2  C   UNL     1      40.630 -13.572   5.070  1.00  0.00     0.226 C 
HETATM    3  O   UNL     1      41.695 -12.992   4.866  1.00  0.00    -0.273 OA
HETATM    4  H   UNL     1      38.709 -14.056   4.523  1.00  0.00     0.169 HD
ENDROOT
BRANCH   1   5
HETATM    5  C   UNL     1      39.222 -12.435   3.344  1.00  0.00     0.035 A 
HETATM    6  C   UNL     1      39.186 -12.727   1.977  1.00  0.00     0.046 A 
HETATM    7  C   UNL     1      38.951 -11.718   1.032  1.00  0.00     0.034 A 
HETATM    8  C   UNL     1      38.773 -10.399   1.469  1.00  0.00     0.017 A 
HETATM    9  C   UNL     1      38.825 -10.097   2.829  1.00  0.00     0.003 A 
HETATM   10  C   UNL     1      39.053 -11.111   3.762  1.00  0.00     0.029 A 
BRANCH   7  11
HETATM   11  C   UNL     1      38.933 -11.986  -0.438  1.00  0.00     0.251 C 
HETATM   12  N   UNL     1      38.295 -13.135  -0.861  1.00  0.00    -0.357 N 
HETATM   13  H   UNL     1      37.728 -13.667  -0.215  1.00  0.00     0.162 HD
HETATM   14  O   UNL     1      39.464 -11.193  -1.209  1.00  0.00    -0.268 OA
BRANCH  12  15
HETATM   15  C   UNL     1      38.203 -13.485  -2.263  1.00  0.00     0.118 C 
HETATM   16  C   UNL     1      39.155 -14.610  -2.618  1.00  0.00     0.026 C 
ENDBRANCH  12  15
ENDBRANCH   7  11
ENDBRANCH   1   5
BRANCH   2  17
HETATM   17  C   UNL     1      40.500 -14.582   6.197  1.00  0.00     0.144 C 
BRANCH  17  18
HETATM   18  C   UNL     1      41.569 -15.625   6.168  1.00  0.00    -0.014 A 
HETATM   19  C   UNL     1      42.036 -16.396   5.054  1.00  0.00     0.006 A 
HETATM   20  C   UNL     1      43.040 -17.219   5.549  1.00  0.00     0.088 A 
HETATM   21  C   UNL     1      41.729 -16.488   3.683  1.00  0.00     0.017 A 
HETATM   22  C   UNL     1      43.770 -18.118   4.776  1.00  0.00     0.074 A 
HETATM   23  O   UNL     1      43.200 -17.015   6.884  1.00  0.00    -0.321 OA
HETATM   24  C   UNL     1      43.473 -18.174   3.410  1.00  0.00     0.070 A 
HETATM   25  C   UNL     1      42.459 -17.375   2.874  1.00  0.00     0.038 A 
HETATM   26  C   UNL     1      42.309 -16.062   7.251  1.00  0.00     0.151 A 
BRANCH  24  27
HETATM   27  O   UNL     1      44.240 -19.063   2.703  1.00  0.00    -0.356 OA
HETATM   28  C   UNL     1      43.553 -20.109   2.027  1.00  0.00     0.210 C 
ENDBRANCH  24  27
ENDBRANCH  17  18
ENDBRANCH   2  17
TORSDOF 6
ENDMDL
MODEL 5
REMARK VINA RESULT:      -7.6      2.653      9.506
REMARK  6 active torsions:
REMARK  status: ('A' for Active; 'I' for Inactive)
REMARK    1  A    between atoms: C_2  and  N_3 
REMARK       I    between atoms: N_3  and  C_4 
REMARK    2  A    between atoms: C_4  and  C_5 
REMARK    3  A    between atoms: C_7  and  N_8 
REMARK       I    between atoms: N_8  and  C_9 
REMARK    4  A    between atoms: C_9  and  C_10 
REMARK    5  A    between atoms: C_10  and  C_11 
REMARK    6  A    between atoms: C_15  and  O_16 
ROOT
HETATM    1  N   UNL     1      43.960 -12.395   7.405  1.00  0.00    -0.327 N 
HETATM    2  C   UNL     1      45.034 -11.544   7.194  1.00  0.00     0.226 C 
HETATM    3  O   UNL     1      45.764 -11.540   6.205  1.00  0.00    -0.273 OA
HETATM    4  H   UNL     1      43.538 -12.385   8.326  1.00  0.00     0.169 HD
ENDROOT
BRANCH   1   5
HETATM    5  C   UNL     1      43.393 -13.286   6.469  1.00  0.00     0.035 A 
HETATM    6  C   UNL     1      43.708 -14.647   6.418  1.00  0.00     0.046 A 
HETATM    7  C   UNL     1      43.122 -15.486   5.459  1.00  0.00     0.034 A 
HETATM    8  C   UNL     1      42.227 -14.941   4.529  1.00  0.00     0.017 A 
HETATM    9  C   UNL     1      41.920 -13.581   4.563  1.00  0.00     0.003 A 
HETATM   10  C   UNL     1      42.504 -12.757   5.526  1.00  0.00     0.029 A 
BRANCH   7  11
HETATM   11  C   UNL     1      43.456 -16.938   5.356  1.00  0.00     0.251 C 
HETATM   12  N   UNL     1      43.915 -17.394   4.136  1.00  0.00    -0.357 N 
HETATM   13  H   UNL     1      44.168 -16.736   3.411  1.00  0.00     0.162 HD
HETATM   14  O   UNL     1      43.326 -17.666   6.335  1.00  0.00    -0.268 OA
BRANCH  12  15
HETATM   15  C   UNL     1      44.283 -18.779   3.927  1.00  0.00     0.118 C 
HETATM   16  C   UNL     1      43.617 -19.350   2.690  1.00  0.00     0.026 C 
ENDBRANCH  12  15
ENDBRANCH   7  11
ENDBRANCH   1   5
BRANCH   2  17
HETATM   17  C   UNL     1      45.272 -10.573   8.338  1.00  0.00     0.144 C 
BRANCH  17  18
HETATM   18  C   UNL     1      44.009  -9.973   8.863  1.00  0.00    -0.014 A 
HETATM   19  C   UNL     1      43.446 -10.081  10.177  1.00  0.00     0.006 A 
HETATM   20  C   UNL     1      42.272  -9.339  10.154  1.00  0.00     0.088 A 
HETATM   21  C   UNL     1      43.798 -10.717  11.382  1.00  0.00     0.017 A 
HETATM   22  C   UNL     1      41.429  -9.172  11.249  1.00  0.00     0.074 A 
HETATM   23  O   UNL     1      42.075  -8.806   8.919  1.00  0.00    -0.321 OA
HETATM   24  C   UNL     1      41.809  -9.785  12.448  1.00  0.00     0.070 A 
HETATM   25  C   UNL     1      42.975 -10.555  12.509  1.00  0.00     0.038 A 
HETATM   26  C   UNL     1      43.118  -9.196   8.146  1.00  0.00     0.151 A 
BRANCH  24  27
HETATM   27  O   UNL     1      40.948  -9.566  13.492  1.00  0.00    -0.356 OA
HETATM   28  C   UNL     1      41.433  -8.772  14.567  1.00  0.00     0.210 C 
ENDBRANCH  24  27
ENDBRANCH  17  18
ENDBRANCH   2  17
TORSDOF 6
ENDMDL
MODEL 6
REMARK VINA RESULT:      -7.5      1.811      2.319
REMARK  6 active torsions:
REMARK  status: ('A' for Active; 'I' for Inactive)
REMARK    1  A    between atoms: C_2  and  N_3 
REMARK       I    between atoms: N_3  and  C_4 
REMARK    2  A    between atoms: C_4  and  C_5 
REMARK    3  A    between atoms: C_7  and  N_8 
REMARK       I    between atoms: N_8  and  C_9 
REMARK    4  A    between atoms: C_9  and  C_10 
REMARK    5  A    between atoms: C_10  and  C_11 
REMARK    6  A    between atoms: C_15  and  O_16 
ROOT
HETATM    1  N   UNL     1      43.709 -12.067   7.763  1.00  0.00    -0.327 N 
HETATM    2  C   UNL     1      43.985 -12.719   6.571  1.00  0.00     0.226 C 
HETATM    3  O   UNL     1      44.436 -12.197   5.553  1.00  0.00    -0.273 OA
HETATM    4  H   UNL     1      43.205 -12.590   8.469  1.00  0.00     0.169 HD
ENDROOT
BRANCH   1   5
HETATM    5  C   UNL     1      44.051 -10.740   8.097  1.00  0.00     0.035 A 
HETATM    6  C   UNL     1      43.145  -9.676   8.037  1.00  0.00     0.046 A 
HETATM    7  C   UNL     1      43.542  -8.373   8.370  1.00  0.00     0.034 A 
HETATM    8  C   UNL     1      44.870  -8.137   8.746  1.00  0.00     0.017 A 
HETATM    9  C   UNL     1      45.785  -9.190   8.792  1.00  0.00     0.003 A 
HETATM   10  C   UNL     1      45.377 -10.484   8.465  1.00  0.00     0.029 A 
BRANCH   7  11
HETATM   11  C   UNL     1      42.610  -7.208   8.291  1.00  0.00     0.251 C 
HETATM   12  N   UNL     1      41.836  -6.944   9.403  1.00  0.00    -0.357 N 
HETATM   13  H   UNL     1      42.023  -7.418  10.275  1.00  0.00     0.162 HD
HETATM   14  O   UNL     1      42.567  -6.529   7.270  1.00  0.00    -0.268 OA
BRANCH  12  15
HETATM   15  C   UNL     1      40.911  -5.830   9.442  1.00  0.00     0.118 C 
HETATM   16  C   UNL     1      41.561  -4.589  10.024  1.00  0.00     0.026 C 
ENDBRANCH  12  15
ENDBRANCH   7  11
ENDBRANCH   1   5
BRANCH   2  17
HETATM   17  C   UNL     1      43.660 -14.203   6.602  1.00  0.00     0.144 C 
BRANCH  17  18
HETATM   18  C   UNL     1      43.052 -14.692   5.329  1.00  0.00    -0.014 A 
HETATM   19  C   UNL     1      43.253 -15.946   4.665  1.00  0.00     0.006 A 
HETATM   20  C   UNL     1      42.458 -15.911   3.526  1.00  0.00     0.088 A 
HETATM   21  C   UNL     1      44.011 -17.109   4.901  1.00  0.00     0.017 A 
HETATM   22  C   UNL     1      42.352 -16.955   2.612  1.00  0.00     0.074 A 
HETATM   23  O   UNL     1      41.806 -14.721   3.444  1.00  0.00    -0.321 OA
HETATM   24  C   UNL     1      43.089 -18.114   2.877  1.00  0.00     0.070 A 
HETATM   25  C   UNL     1      43.914 -18.185   4.003  1.00  0.00     0.038 A 
HETATM   26  C   UNL     1      42.173 -13.990   4.525  1.00  0.00     0.151 A 
BRANCH  24  27
HETATM   27  O   UNL     1      42.926 -19.111   1.950  1.00  0.00    -0.356 OA
HETATM   28  C   UNL     1      43.736 -20.269   2.103  1.00  0.00     0.210 C 
ENDBRANCH  24  27
ENDBRANCH  17  18
ENDBRANCH   2  17
TORSDOF 6
ENDMDL
MODEL 7
REMARK VINA RESULT:      -7.5      2.480      9.520
REMARK  6 active torsions:
REMARK  status: ('A' for Active; 'I' for Inactive)
REMARK    1  A    between atoms: C_2  and  N_3 
REMARK       I    between atoms: N_3  and  C_4 
REMARK    2  A    between atoms: C_4  and  C_5 
REMARK    3  A    between atoms: C_7  and  N_8 
REMARK       I    between atoms: N_8  and  C_9 
REMARK    4  A    between atoms: C_9  and  C_10 
REMARK    5  A    between atoms: C_10  and  C_11 
REMARK    6  A    between atoms: C_15  and  O_16 
ROOT
HETATM    1  N   UNL     1      42.762 -13.019   3.850  1.00  0.00    -0.327 N 
HETATM    2  C   UNL     1      42.714 -12.491   5.131  1.00  0.00     0.226 C 
HETATM    3  O   UNL     1      42.141 -12.994   6.096  1.00  0.00    -0.273 OA
HETATM    4  H   UNL     1      43.143 -12.428   3.122  1.00  0.00     0.169 HD
ENDROOT
BRANCH   1   5
HETATM    5  C   UNL     1      42.324 -14.300   3.449  1.00  0.00     0.035 A 
HETATM    6  C   UNL     1      43.124 -15.443   3.531  1.00  0.00     0.046 A 
HETATM    7  C   UNL     1      42.642 -16.690   3.109  1.00  0.00     0.034 A 
HETATM    8  C   UNL     1      41.349 -16.780   2.578  1.00  0.00     0.017 A 
HETATM    9  C   UNL     1      40.551 -15.641   2.477  1.00  0.00     0.003 A 
HETATM   10  C   UNL     1      41.039 -14.406   2.907  1.00  0.00     0.029 A 
BRANCH   7  11
HETATM   11  C   UNL     1      43.477 -17.928   3.155  1.00  0.00     0.251 C 
HETATM   12  N   UNL     1      43.128 -18.956   2.300  1.00  0.00    -0.357 N 
HETATM   13  H   UNL     1      42.448 -18.798   1.570  1.00  0.00     0.162 HD
HETATM   14  O   UNL     1      44.431 -17.994   3.923  1.00  0.00    -0.268 OA
BRANCH  12  15
HETATM   15  C   UNL     1      43.877 -20.194   2.249  1.00  0.00     0.118 C 
HETATM   16  C   UNL     1      43.743 -20.978   3.541  1.00  0.00     0.026 C 
ENDBRANCH  12  15
ENDBRANCH   7  11
ENDBRANCH   1   5
BRANCH   2  17
HETATM   17  C   UNL     1      43.445 -11.166   5.268  1.00  0.00     0.144 C 
BRANCH  17  18
HETATM   18  C   UNL     1      44.141 -11.020   6.581  1.00  0.00    -0.014 A 
HETATM   19  C   UNL     1      43.695 -10.337   7.759  1.00  0.00     0.006 A 
HETATM   20  C   UNL     1      44.702 -10.499   8.703  1.00  0.00     0.088 A 
HETATM   21  C   UNL     1      42.553  -9.607   8.137  1.00  0.00     0.017 A 
HETATM   22  C   UNL     1      44.648  -9.999  10.000  1.00  0.00     0.074 A 
HETATM   23  O   UNL     1      45.731 -11.214   8.175  1.00  0.00    -0.321 OA
HETATM   24  C   UNL     1      43.493  -9.301  10.369  1.00  0.00     0.070 A 
HETATM   25  C   UNL     1      42.463  -9.101   9.445  1.00  0.00     0.038 A 
HETATM   26  C   UNL     1      45.392 -11.517   6.898  1.00  0.00     0.151 A 
BRANCH  24  27
HETATM   27  O   UNL     1      43.494  -8.852  11.664  1.00  0.00    -0.356 OA
HETATM   28  C   UNL     1      42.701  -9.576  12.596  1.00  0.00     0.210 C 
ENDBRANCH  24  27
ENDBRANCH  17  18
ENDBRANCH   2  17
TORSDOF 6
ENDMDL
MODEL 8
REMARK VINA RESULT:      -7.3      5.902      8.344
REMARK  6 active torsions:
REMARK  status: ('A' for Active; 'I' for Inactive)
REMARK    1  A    between atoms: C_2  and  N_3 
REMARK       I    between atoms: N_3  and  C_4 
REMARK    2  A    between atoms: C_4  and  C_5 
REMARK    3  A    between atoms: C_7  and  N_8 
REMARK       I    between atoms: N_8  and  C_9 
REMARK    4  A    between atoms: C_9  and  C_10 
REMARK    5  A    between atoms: C_10  and  C_11 
REMARK    6  A    between atoms: C_15  and  O_16 
ROOT
HETATM    1  N   UNL     1      39.734 -13.837   1.059  1.00  0.00    -0.327 N 
HETATM    2  C   UNL     1      40.782 -13.497   1.899  1.00  0.00     0.226 C 
HETATM    3  O   UNL     1      41.857 -13.013   1.548  1.00  0.00    -0.273 OA
HETATM    4  H   UNL     1      38.968 -14.360   1.466  1.00  0.00     0.169 HD
ENDROOT
BRANCH   1   5
HETATM    5  C   UNL     1      39.623 -13.538  -0.316  1.00  0.00     0.035 A 
HETATM    6  C   UNL     1      39.620 -12.233  -0.819  1.00  0.00     0.046 A 
HETATM    7  C   UNL     1      39.497 -11.993  -2.194  1.00  0.00     0.034 A 
HETATM    8  C   UNL     1      39.354 -13.078  -3.069  1.00  0.00     0.017 A 
HETATM    9  C   UNL     1      39.338 -14.382  -2.573  1.00  0.00     0.003 A 
HETATM   10  C   UNL     1      39.468 -14.609  -1.202  1.00  0.00     0.029 A 
BRANCH   7  11
HETATM   11  C   UNL     1      39.461 -10.613  -2.766  1.00  0.00     0.251 C 
HETATM   12  N   UNL     1      40.463 -10.272  -3.653  1.00  0.00    -0.357 N 
HETATM   13  H   UNL     1      41.082 -10.984  -4.017  1.00  0.00     0.162 HD
HETATM   14  O   UNL     1      38.561  -9.843  -2.447  1.00  0.00    -0.268 OA
BRANCH  12  15
HETATM   15  C   UNL     1      40.517  -8.968  -4.280  1.00  0.00     0.118 C 
HETATM   16  C   UNL     1      41.618  -8.111  -3.685  1.00  0.00     0.026 C 
ENDBRANCH  12  15
ENDBRANCH   7  11
ENDBRANCH   1   5
BRANCH   2  17
HETATM   17  C   UNL     1      40.506 -13.790   3.364  1.00  0.00     0.144 C 
BRANCH  17  18
HETATM   18  C   UNL     1      41.551 -14.654   3.991  1.00  0.00    -0.014 A 
HETATM   19  C   UNL     1      42.054 -15.918   3.541  1.00  0.00     0.006 A 
HETATM   20  C   UNL     1      43.014 -16.302   4.469  1.00  0.00     0.088 A 
HETATM   21  C   UNL     1      41.811 -16.778   2.454  1.00  0.00     0.017 A 
HETATM   22  C   UNL     1      43.761 -17.474   4.386  1.00  0.00     0.074 A 
HETATM   23  O   UNL     1      43.115 -15.372   5.456  1.00  0.00    -0.321 OA
HETATM   24  C   UNL     1      43.528 -18.303   3.283  1.00  0.00     0.070 A 
HETATM   25  C   UNL     1      42.559 -17.961   2.335  1.00  0.00     0.038 A 
HETATM   26  C   UNL     1      42.228 -14.388   5.167  1.00  0.00     0.151 A 
BRANCH  24  27
HETATM   27  O   UNL     1      44.309 -19.429   3.249  1.00  0.00    -0.356 OA
HETATM   28  C   UNL     1      43.839 -20.512   2.456  1.00  0.00     0.210 C 
ENDBRANCH  24  27
ENDBRANCH  17  18
ENDBRANCH   2  17
TORSDOF 6
ENDMDL
MODEL 9
REMARK VINA RESULT:      -7.1      2.543      3.083
REMARK  6 active torsions:
REMARK  status: ('A' for Active; 'I' for Inactive)
REMARK    1  A    between atoms: C_2  and  N_3 
REMARK       I    between atoms: N_3  and  C_4 
REMARK    2  A    between atoms: C_4  and  C_5 
REMARK    3  A    between atoms: C_7  and  N_8 
REMARK       I    between atoms: N_8  and  C_9 
REMARK    4  A    between atoms: C_9  and  C_10 
REMARK    5  A    between atoms: C_10  and  C_11 
REMARK    6  A    between atoms: C_15  and  O_16 
ROOT
HETATM    1  N   UNL     1      41.692 -11.937   3.931  1.00  0.00    -0.327 N 
HETATM    2  C   UNL     1      42.785 -12.448   3.249  1.00  0.00     0.226 C 
HETATM    3  O   UNL     1      43.851 -11.865   3.057  1.00  0.00    -0.273 OA
HETATM    4  H   UNL     1      40.831 -12.469   3.887  1.00  0.00     0.169 HD
ENDROOT
BRANCH   1   5
HETATM    5  C   UNL     1      41.648 -10.741   4.678  1.00  0.00     0.035 A 
HETATM    6  C   UNL     1      41.764 -10.702   6.071  1.00  0.00     0.046 A 
HETATM    7  C   UNL     1      41.703  -9.485   6.765  1.00  0.00     0.034 A 
HETATM    8  C   UNL     1      41.501  -8.298   6.048  1.00  0.00     0.017 A 
HETATM    9  C   UNL     1      41.367  -8.330   4.660  1.00  0.00     0.003 A 
HETATM   10  C   UNL     1      41.436  -9.547   3.980  1.00  0.00     0.029 A 
BRANCH   7  11
HETATM   11  C   UNL     1      41.795  -9.407   8.253  1.00  0.00     0.251 C 
HETATM   12  N   UNL     1      42.928  -9.931   8.843  1.00  0.00    -0.357 N 
HETATM   13  H   UNL     1      43.720 -10.195   8.274  1.00  0.00     0.162 HD
HETATM   14  O   UNL     1      40.889  -8.884   8.895  1.00  0.00    -0.268 OA
BRANCH  12  15
HETATM   15  C   UNL     1      43.130  -9.894  10.277  1.00  0.00     0.118 C 
HETATM   16  C   UNL     1      44.603  -9.823  10.629  1.00  0.00     0.026 C 
ENDBRANCH  12  15
ENDBRANCH   7  11
ENDBRANCH   1   5
BRANCH   2  17
HETATM   17  C   UNL     1      42.563 -13.852   2.711  1.00  0.00     0.144 C 
BRANCH  17  18
HETATM   18  C   UNL     1      42.968 -14.915   3.678  1.00  0.00    -0.014 A 
HETATM   19  C   UNL     1      43.196 -16.309   3.431  1.00  0.00     0.006 A 
HETATM   20  C   UNL     1      43.557 -16.862   4.654  1.00  0.00     0.088 A 
HETATM   21  C   UNL     1      43.144 -17.163   2.314  1.00  0.00     0.017 A 
HETATM   22  C   UNL     1      43.884 -18.202   4.842  1.00  0.00     0.074 A 
HETATM   23  O   UNL     1      43.546 -15.909   5.624  1.00  0.00    -0.321 OA
HETATM   24  C   UNL     1      43.856 -19.031   3.715  1.00  0.00     0.070 A 
HETATM   25  C   UNL     1      43.482 -18.518   2.470  1.00  0.00     0.038 A 
HETATM   26  C   UNL     1      43.184 -14.744   5.033  1.00  0.00     0.151 A 
BRANCH  24  27
HETATM   27  O   UNL     1      44.207 -20.332   3.964  1.00  0.00    -0.356 OA
HETATM   28  C   UNL     1      44.055 -20.794   5.300  1.00  0.00     0.210 C 
ENDBRANCH  24  27
ENDBRANCH  17  18
ENDBRANCH   2  17
TORSDOF 6
ENDMDL
MODEL 10
REMARK VINA RESULT:      -7.1      3.268     10.677
REMARK  6 active torsions:
REMARK  status: ('A' for Active; 'I' for Inactive)
REMARK    1  A    between atoms: C_2  and  N_3 
REMARK       I    between atoms: N_3  and  C_4 
REMARK    2  A    between atoms: C_4  and  C_5 
REMARK    3  A    between atoms: C_7  and  N_8 
REMARK       I    between atoms: N_8  and  C_9 
REMARK    4  A    between atoms: C_9  and  C_10 
REMARK    5  A    between atoms: C_10  and  C_11 
REMARK    6  A    between atoms: C_15  and  O_16 
ROOT
HETATM    1  N   UNL     1      44.331  -9.671   9.370  1.00  0.00    -0.327 N 
HETATM    2  C   UNL     1      44.221 -10.018  10.708  1.00  0.00     0.226 C 
HETATM    3  O   UNL     1      44.173 -11.163  11.153  1.00  0.00    -0.273 OA
HETATM    4  H   UNL     1      44.213  -8.693   9.136  1.00  0.00     0.169 HD
ENDROOT
BRANCH   1   5
HETATM    5  C   UNL     1      44.584 -10.545   8.291  1.00  0.00     0.035 A 
HETATM    6  C   UNL     1      43.733 -11.597   7.941  1.00  0.00     0.046 A 
HETATM    7  C   UNL     1      44.038 -12.442   6.865  1.00  0.00     0.034 A 
HETATM    8  C   UNL     1      45.224 -12.236   6.148  1.00  0.00     0.017 A 
HETATM    9  C   UNL     1      46.087 -11.199   6.501  1.00  0.00     0.003 A 
HETATM   10  C   UNL     1      45.770 -10.360   7.570  1.00  0.00     0.029 A 
BRANCH   7  11
HETATM   11  C   UNL     1      43.169 -13.594   6.479  1.00  0.00     0.251 C 
HETATM   12  N   UNL     1      42.865 -14.512   7.465  1.00  0.00    -0.357 N 
HETATM   13  H   UNL     1      43.087 -14.311   8.430  1.00  0.00     0.162 HD
HETATM   14  O   UNL     1      42.750 -13.685   5.330  1.00  0.00    -0.268 OA
BRANCH  12  15
HETATM   15  C   UNL     1      42.018 -15.658   7.207  1.00  0.00     0.118 C 
HETATM   16  C   UNL     1      42.825 -16.850   6.730  1.00  0.00     0.026 C 
ENDBRANCH  12  15
ENDBRANCH   7  11
ENDBRANCH   1   5
BRANCH   2  17
HETATM   17  C   UNL     1      44.145  -8.820  11.640  1.00  0.00     0.144 C 
BRANCH  17  18
HETATM   18  C   UNL     1      42.761  -8.552  12.130  1.00  0.00    -0.014 A 
HETATM   19  C   UNL     1      42.349  -7.893  13.334  1.00  0.00     0.006 A 
HETATM   20  C   UNL     1      40.960  -7.895  13.319  1.00  0.00     0.088 A 
HETATM   21  C   UNL     1      42.994  -7.290  14.431  1.00  0.00     0.017 A 
HETATM   22  C   UNL     1      40.165  -7.328  14.311  1.00  0.00     0.074 A 
HETATM   23  O   UNL     1      40.502  -8.523  12.204  1.00  0.00    -0.321 OA
HETATM   24  C   UNL     1      40.821  -6.706  15.379  1.00  0.00     0.070 A 
HETATM   25  C   UNL     1      42.217  -6.696  15.441  1.00  0.00     0.038 A 
HETATM   26  C   UNL     1      41.588  -8.923  11.498  1.00  0.00     0.151 A 
BRANCH  24  27
HETATM   27  O   UNL     1      39.982  -6.151  16.310  1.00  0.00    -0.356 OA
HETATM   28  C   UNL     1      39.873  -6.823  17.559  1.00  0.00     0.210 C 
ENDBRANCH  24  27
ENDBRANCH  17  18
ENDBRANCH   2  17
TORSDOF 6
ENDMDL
