MODEL 1
REMARK VINA RESULT:      -9.4      0.000      0.000
REMARK  3 active torsions:
REMARK  status: ('A' for Active; 'I' for Inactive)
REMARK    1  A    between atoms: O_2  and  C_3 
REMARK    2  A    between atoms: C_4  and  N_5 
REMARK       I    between atoms: N_5  and  C_6 
REMARK       I    between atoms: C_6  and  N_7 
REMARK    3  A    between atoms: C_8  and  C_9 
ROOT
HETATM    1  N   UNL     1      42.175 -15.569   3.245  1.00  0.00    -0.306 N 
HETATM    2  C   UNL     1      42.625 -14.423   2.639  1.00  0.00     0.323 C 
HETATM    3  N   UNL     1      41.684 -13.395   2.592  1.00  0.00    -0.324 N 
HETATM    4  C   UNL     1      40.224 -13.614   2.551  1.00  0.00     0.139 C 
HETATM    5  C   UNL     1      39.499 -12.493   3.312  1.00  0.00     0.032 C 
HETATM    6  C   UNL     1      39.931 -11.096   2.862  1.00  0.00     0.004 C 
HETATM    7  C   UNL     1      41.448 -10.958   2.918  1.00  0.00     0.020 C 
HETATM    8  C   UNL     1      42.144 -12.076   2.150  1.00  0.00     0.128 C 
HETATM    9  O   UNL     1      43.749 -14.291   2.163  1.00  0.00    -0.247 OA
HETATM   10  H   UNL     1      41.453 -15.452   3.943  1.00  0.00     0.171 HD
ENDROOT
BRANCH   4  11
HETATM   11  C   UNL     1      39.773 -13.773   1.118  1.00  0.00     0.033 A 
HETATM   12  N   UNL     1      38.935 -12.857   0.514  1.00  0.00    -0.357 N 
HETATM   13  H   UNL     1      38.537 -12.049   0.975  1.00  0.00     0.166 HD
HETATM   14  C   UNL     1      38.669 -13.215  -0.786  1.00  0.00     0.042 A 
HETATM   15  C   UNL     1      39.372 -14.388  -1.040  1.00  0.00    -0.007 A 
HETATM   16  C   UNL     1      37.861 -12.593  -1.746  1.00  0.00     0.030 A 
HETATM   17  C   UNL     1      40.072 -14.720   0.152  1.00  0.00     0.041 A 
HETATM   18  C   UNL     1      39.270 -14.979  -2.314  1.00  0.00     0.014 A 
HETATM   19  C   UNL     1      38.465 -14.373  -3.286  1.00  0.00     0.001 A 
HETATM   20  C   UNL     1      37.772 -13.198  -3.003  1.00  0.00     0.002 A 
ENDBRANCH   4  11
BRANCH   1  21
HETATM   21  C   UNL     1      42.812 -16.826   3.310  1.00  0.00     0.072 A 
HETATM   22  C   UNL     1      43.539 -17.109   4.484  1.00  0.00     0.095 A 
HETATM   23  C   UNL     1      44.221 -18.320   4.629  1.00  0.00     0.042 A 
HETATM   24  C   UNL     1      44.137 -19.277   3.620  1.00  0.00     0.045 A 
HETATM   25  C   UNL     1      43.386 -19.011   2.479  1.00  0.00     0.118 A 
HETATM   26  C   UNL     1      42.725 -17.797   2.312  1.00  0.00     0.074 A 
HETATM   27  F   UNL     1      43.303 -19.942   1.520  1.00  0.00    -0.206 F 
BRANCH  22  28
HETATM   28  O   UNL     1      43.601 -16.116   5.436  1.00  0.00    -0.354 OA
HETATM   29  C   UNL     1      44.555 -16.397   6.460  1.00  0.00     0.210 C 
ENDBRANCH  22  28
ENDBRANCH   1  21
TORSDOF 3
ENDMDL
MODEL 2
REMARK VINA RESULT:      -9.3      2.604      7.038
REMARK  3 active torsions:
REMARK  status: ('A' for Active; 'I' for Inactive)
REMARK    1  A    between atoms: O_2  and  C_3 
REMARK    2  A    between atoms: C_4  and  N_5 
REMARK       I    between atoms: N_5  and  C_6 
REMARK       I    between atoms: C_6  and  N_7 
REMARK    3  A    between atoms: C_8  and  C_9 
ROOT
HETATM    1  N   UNL     1      41.064 -13.549   1.163  1.00  0.00    -0.306 N 
HETATM    2  C   UNL     1      40.432 -14.029   2.282  1.00  0.00     0.323 C 
HETATM    3  N   UNL     1      41.263 -14.152   3.396  1.00  0.00    -0.324 N 
HETATM    4  C   UNL     1      42.715 -14.403   3.319  1.00  0.00     0.139 C 
HETATM    5  C   UNL     1      43.438 -13.693   4.476  1.00  0.00     0.032 C 
HETATM    6  C   UNL     1      42.824 -14.008   5.840  1.00  0.00     0.004 C 
HETATM    7  C   UNL     1      41.323 -13.739   5.831  1.00  0.00     0.020 C 
HETATM    8  C   UNL     1      40.629 -14.460   4.681  1.00  0.00     0.128 C 
HETATM    9  O   UNL     1      39.246 -14.339   2.324  1.00  0.00    -0.247 OA
HETATM   10  H   UNL     1      41.865 -12.951   1.322  1.00  0.00     0.171 HD
ENDROOT
BRANCH   4  11
HETATM   11  C   UNL     1      42.972 -15.891   3.258  1.00  0.00     0.033 A 
HETATM   12  N   UNL     1      43.464 -16.588   4.344  1.00  0.00    -0.357 N 
HETATM   13  H   UNL     1      43.719 -16.171   5.229  1.00  0.00     0.166 HD
HETATM   14  C   UNL     1      43.612 -17.922   4.047  1.00  0.00     0.042 A 
HETATM   15  C   UNL     1      43.184 -18.099   2.734  1.00  0.00    -0.007 A 
HETATM   16  C   UNL     1      44.093 -18.975   4.835  1.00  0.00     0.030 A 
HETATM   17  C   UNL     1      42.771 -16.826   2.257  1.00  0.00     0.041 A 
HETATM   18  C   UNL     1      43.234 -19.388   2.172  1.00  0.00     0.014 A 
HETATM   19  C   UNL     1      43.714 -20.454   2.943  1.00  0.00     0.001 A 
HETATM   20  C   UNL     1      44.137 -20.247   4.255  1.00  0.00     0.002 A 
ENDBRANCH   4  11
BRANCH   1  21
HETATM   21  C   UNL     1      40.558 -13.460  -0.152  1.00  0.00     0.072 A 
HETATM   22  C   UNL     1      40.701 -12.220  -0.804  1.00  0.00     0.095 A 
HETATM   23  C   UNL     1      40.210 -12.032  -2.099  1.00  0.00     0.042 A 
HETATM   24  C   UNL     1      39.617 -13.102  -2.768  1.00  0.00     0.045 A 
HETATM   25  C   UNL     1      39.513 -14.336  -2.135  1.00  0.00     0.118 A 
HETATM   26  C   UNL     1      39.974 -14.527  -0.835  1.00  0.00     0.074 A 
HETATM   27  F   UNL     1      38.953 -15.360  -2.791  1.00  0.00    -0.206 F 
BRANCH  22  28
HETATM   28  O   UNL     1      41.276 -11.196  -0.085  1.00  0.00    -0.354 OA
HETATM   29  C   UNL     1      41.454 -10.012  -0.861  1.00  0.00     0.210 C 
ENDBRANCH  22  28
ENDBRANCH   1  21
TORSDOF 3
ENDMDL
MODEL 3
REMARK VINA RESULT:      -9.0      3.940      6.858
REMARK  3 active torsions:
REMARK  status: ('A' for Active; 'I' for Inactive)
REMARK    1  A    between atoms: O_2  and  C_3 
REMARK    2  A    between atoms: C_4  and  N_5 
REMARK       I    between atoms: N_5  and  C_6 
REMARK       I    between atoms: C_6  and  N_7 
REMARK    3  A    between atoms: C_8  and  C_9 
ROOT
HETATM    1  N   UNL     1      42.871 -11.570   5.335  1.00  0.00    -0.306 N 
HETATM    2  C   UNL     1      43.032 -11.660   3.976  1.00  0.00     0.323 C 
HETATM    3  N   UNL     1      42.007 -12.346   3.325  1.00  0.00    -0.324 N 
HETATM    4  C   UNL     1      41.203 -13.415   3.950  1.00  0.00     0.139 C 
HETATM    5  C   UNL     1      39.763 -13.378   3.412  1.00  0.00     0.032 C 
HETATM    6  C   UNL     1      39.702 -13.367   1.884  1.00  0.00     0.004 C 
HETATM    7  C   UNL     1      40.570 -12.248   1.318  1.00  0.00     0.020 C 
HETATM    8  C   UNL     1      41.993 -12.312   1.860  1.00  0.00     0.128 C 
HETATM    9  O   UNL     1      43.988 -11.194   3.363  1.00  0.00    -0.247 OA
HETATM   10  H   UNL     1      41.919 -11.590   5.676  1.00  0.00     0.171 HD
ENDROOT
BRANCH   4  11
HETATM   11  C   UNL     1      41.892 -14.746   3.764  1.00  0.00     0.033 A 
HETATM   12  N   UNL     1      42.751 -15.259   4.716  1.00  0.00    -0.357 N 
HETATM   13  H   UNL     1      43.010 -14.787   5.572  1.00  0.00     0.166 HD
HETATM   14  C   UNL     1      43.251 -16.477   4.323  1.00  0.00     0.042 A 
HETATM   15  C   UNL     1      42.684 -16.773   3.087  1.00  0.00    -0.007 A 
HETATM   16  C   UNL     1      44.160 -17.330   4.963  1.00  0.00     0.030 A 
HETATM   17  C   UNL     1      41.824 -15.692   2.755  1.00  0.00     0.041 A 
HETATM   18  C   UNL     1      43.035 -17.979   2.450  1.00  0.00     0.014 A 
HETATM   19  C   UNL     1      43.943 -18.843   3.074  1.00  0.00     0.001 A 
HETATM   20  C   UNL     1      44.496 -18.520   4.312  1.00  0.00     0.002 A 
ENDBRANCH   4  11
BRANCH   1  21
HETATM   21  C   UNL     1      43.793 -11.090   6.291  1.00  0.00     0.072 A 
HETATM   22  C   UNL     1      43.264 -10.346   7.364  1.00  0.00     0.095 A 
HETATM   23  C   UNL     1      44.102  -9.813   8.346  1.00  0.00     0.042 A 
HETATM   24  C   UNL     1      45.472 -10.063   8.287  1.00  0.00     0.045 A 
HETATM   25  C   UNL     1      45.986 -10.831   7.246  1.00  0.00     0.118 A 
HETATM   26  C   UNL     1      45.163 -11.345   6.248  1.00  0.00     0.074 A 
HETATM   27  F   UNL     1      47.302 -11.075   7.205  1.00  0.00    -0.206 F 
BRANCH  22  28
HETATM   28  O   UNL     1      41.906 -10.115   7.358  1.00  0.00    -0.354 OA
HETATM   29  C   UNL     1      41.583  -8.745   7.128  1.00  0.00     0.210 C 
ENDBRANCH  22  28
ENDBRANCH   1  21
TORSDOF 3
ENDMDL
MODEL 4
REMARK VINA RESULT:      -8.9      3.543      6.561
REMARK  3 active torsions:
REMARK  status: ('A' for Active; 'I' for Inactive)
REMARK    1  A    between atoms: O_2  and  C_3 
REMARK    2  A    between atoms: C_4  and  N_5 
REMARK       I    between atoms: N_5  and  C_6 
REMARK       I    between atoms: C_6  and  N_7 
REMARK    3  A    between atoms: C_8  and  C_9 
ROOT
HETATM    1  N   UNL     1      41.989 -12.002   4.741  1.00  0.00    -0.306 N 
HETATM    2  C   UNL     1      42.473 -12.103   3.461  1.00  0.00     0.323 C 
HETATM    3  N   UNL     1      41.682 -12.877   2.613  1.00  0.00    -0.324 N 
HETATM    4  C   UNL     1      40.830 -13.992   3.068  1.00  0.00     0.139 C 
HETATM    5  C   UNL     1      39.560 -14.075   2.206  1.00  0.00     0.032 C 
HETATM    6  C   UNL     1      39.862 -14.095   0.706  1.00  0.00     0.004 C 
HETATM    7  C   UNL     1      40.759 -12.923   0.322  1.00  0.00     0.020 C 
HETATM    8  C   UNL     1      42.014 -12.869   1.185  1.00  0.00     0.128 C 
HETATM    9  O   UNL     1      43.513 -11.577   3.074  1.00  0.00    -0.247 OA
HETATM   10  H   UNL     1      40.987 -12.089   4.849  1.00  0.00     0.171 HD
ENDROOT
BRANCH   4  11
HETATM   11  C   UNL     1      41.635 -15.271   3.096  1.00  0.00     0.033 A 
HETATM   12  N   UNL     1      42.514 -15.553   4.122  1.00  0.00    -0.357 N 
HETATM   13  H   UNL     1      42.713 -14.934   4.897  1.00  0.00     0.166 HD
HETATM   14  C   UNL     1      43.126 -16.769   3.927  1.00  0.00     0.042 A 
HETATM   15  C   UNL     1      42.613 -17.300   2.747  1.00  0.00    -0.007 A 
HETATM   16  C   UNL     1      44.090 -17.429   4.699  1.00  0.00     0.030 A 
HETATM   17  C   UNL     1      41.670 -16.363   2.244  1.00  0.00     0.041 A 
HETATM   18  C   UNL     1      43.080 -18.553   2.307  1.00  0.00     0.014 A 
HETATM   19  C   UNL     1      44.045 -19.228   3.064  1.00  0.00     0.001 A 
HETATM   20  C   UNL     1      44.541 -18.671   4.242  1.00  0.00     0.002 A 
ENDBRANCH   4  11
BRANCH   1  21
HETATM   21  C   UNL     1      42.622 -11.437   5.869  1.00  0.00     0.072 A 
HETATM   22  C   UNL     1      43.469 -12.283   6.612  1.00  0.00     0.095 A 
HETATM   23  C   UNL     1      44.121 -11.817   7.756  1.00  0.00     0.042 A 
HETATM   24  C   UNL     1      43.969 -10.485   8.136  1.00  0.00     0.045 A 
HETATM   25  C   UNL     1      43.163  -9.642   7.378  1.00  0.00     0.118 A 
HETATM   26  C   UNL     1      42.487 -10.103   6.251  1.00  0.00     0.074 A 
HETATM   27  F   UNL     1      43.032  -8.361   7.745  1.00  0.00    -0.206 F 
BRANCH  22  28
HETATM   28  O   UNL     1      43.564 -13.593   6.199  1.00  0.00    -0.354 OA
HETATM   29  C   UNL     1      43.189 -14.519   7.218  1.00  0.00     0.210 C 
ENDBRANCH  22  28
ENDBRANCH   1  21
TORSDOF 3
ENDMDL
MODEL 5
REMARK VINA RESULT:      -8.8      2.855      6.853
REMARK  3 active torsions:
REMARK  status: ('A' for Active; 'I' for Inactive)
REMARK    1  A    between atoms: O_2  and  C_3 
REMARK    2  A    between atoms: C_4  and  N_5 
REMARK       I    between atoms: N_5  and  C_6 
REMARK       I    between atoms: C_6  and  N_7 
REMARK    3  A    between atoms: C_8  and  C_9 
ROOT
HETATM    1  N   UNL     1      40.367 -12.487   1.459  1.00  0.00    -0.306 N 
HETATM    2  C   UNL     1      39.965 -12.708   2.752  1.00  0.00     0.323 C 
HETATM    3  N   UNL     1      40.966 -12.504   3.702  1.00  0.00    -0.324 N 
HETATM    4  C   UNL     1      42.406 -12.685   3.436  1.00  0.00     0.139 C 
HETATM    5  C   UNL     1      43.227 -11.671   4.249  1.00  0.00     0.032 C 
HETATM    6  C   UNL     1      42.864 -11.671   5.735  1.00  0.00     0.004 C 
HETATM    7  C   UNL     1      41.361 -11.496   5.923  1.00  0.00     0.020 C 
HETATM    8  C   UNL     1      40.571 -12.518   5.113  1.00  0.00     0.128 C 
HETATM    9  O   UNL     1      38.835 -13.064   3.071  1.00  0.00    -0.247 OA
HETATM   10  H   UNL     1      41.121 -11.825   1.332  1.00  0.00     0.171 HD
ENDROOT
BRANCH   4  11
HETATM   11  C   UNL     1      42.793 -14.125   3.684  1.00  0.00     0.033 A 
HETATM   12  N   UNL     1      42.828 -15.053   2.663  1.00  0.00    -0.357 N 
HETATM   13  H   UNL     1      42.572 -14.864   1.702  1.00  0.00     0.166 HD
HETATM   14  C   UNL     1      43.208 -16.288   3.132  1.00  0.00     0.042 A 
HETATM   15  C   UNL     1      43.446 -16.151   4.497  1.00  0.00    -0.007 A 
HETATM   16  C   UNL     1      43.353 -17.506   2.456  1.00  0.00     0.030 A 
HETATM   17  C   UNL     1      43.200 -14.791   4.827  1.00  0.00     0.041 A 
HETATM   18  C   UNL     1      43.850 -17.282   5.232  1.00  0.00     0.014 A 
HETATM   19  C   UNL     1      43.999 -18.509   4.574  1.00  0.00     0.001 A 
HETATM   20  C   UNL     1      43.753 -18.616   3.206  1.00  0.00     0.002 A 
ENDBRANCH   4  11
BRANCH   1  21
HETATM   21  C   UNL     1      39.657 -12.756   0.269  1.00  0.00     0.072 A 
HETATM   22  C   UNL     1      39.796 -14.049  -0.273  1.00  0.00     0.095 A 
HETATM   23  C   UNL     1      39.148 -14.400  -1.460  1.00  0.00     0.042 A 
HETATM   24  C   UNL     1      38.317 -13.473  -2.086  1.00  0.00     0.045 A 
HETATM   25  C   UNL     1      38.152 -12.210  -1.527  1.00  0.00     0.118 A 
HETATM   26  C   UNL     1      38.813 -11.841  -0.359  1.00  0.00     0.074 A 
HETATM   27  F   UNL     1      37.342 -11.330  -2.130  1.00  0.00    -0.206 F 
BRANCH  22  28
HETATM   28  O   UNL     1      40.646 -14.914   0.379  1.00  0.00    -0.354 OA
HETATM   29  C   UNL     1      39.952 -15.963   1.053  1.00  0.00     0.210 C 
ENDBRANCH  22  28
ENDBRANCH   1  21
TORSDOF 3
ENDMDL
MODEL 6
REMARK VINA RESULT:      -8.8      2.474      6.958
REMARK  3 active torsions:
REMARK  status: ('A' for Active; 'I' for Inactive)
REMARK    1  A    between atoms: O_2  and  C_3 
REMARK    2  A    between atoms: C_4  and  N_5 
REMARK       I    between atoms: N_5  and  C_6 
REMARK       I    between atoms: C_6  and  N_7 
REMARK    3  A    between atoms: C_8  and  C_9 
ROOT
HETATM    1  N   UNL     1      40.398 -12.932   1.013  1.00  0.00    -0.306 N 
HETATM    2  C   UNL     1      40.046 -13.093   2.329  1.00  0.00     0.323 C 
HETATM    3  N   UNL     1      41.091 -12.881   3.228  1.00  0.00    -0.324 N 
HETATM    4  C   UNL     1      42.514 -13.110   2.909  1.00  0.00     0.139 C 
HETATM    5  C   UNL     1      43.394 -12.089   3.647  1.00  0.00     0.032 C 
HETATM    6  C   UNL     1      43.096 -12.023   5.145  1.00  0.00     0.004 C 
HETATM    7  C   UNL     1      41.608 -11.800   5.389  1.00  0.00     0.020 C 
HETATM    8  C   UNL     1      40.757 -12.831   4.654  1.00  0.00     0.128 C 
HETATM    9  O   UNL     1      38.922 -13.406   2.709  1.00  0.00    -0.247 OA
HETATM   10  H   UNL     1      41.162 -12.296   0.828  1.00  0.00     0.171 HD
ENDROOT
BRANCH   4  11
HETATM   11  C   UNL     1      42.874 -14.550   3.196  1.00  0.00     0.033 A 
HETATM   12  N   UNL     1      42.768 -15.532   2.232  1.00  0.00    -0.357 N 
HETATM   13  H   UNL     1      42.417 -15.383   1.294  1.00  0.00     0.166 HD
HETATM   14  C   UNL     1      43.151 -16.754   2.728  1.00  0.00     0.042 A 
HETATM   15  C   UNL     1      43.539 -16.556   4.050  1.00  0.00    -0.007 A 
HETATM   16  C   UNL     1      43.181 -18.011   2.111  1.00  0.00     0.030 A 
HETATM   17  C   UNL     1      43.377 -15.171   4.327  1.00  0.00     0.041 A 
HETATM   18  C   UNL     1      43.979 -17.661   4.802  1.00  0.00     0.014 A 
HETATM   19  C   UNL     1      44.013 -18.927   4.204  1.00  0.00     0.001 A 
HETATM   20  C   UNL     1      43.619 -19.096   2.878  1.00  0.00     0.002 A 
ENDBRANCH   4  11
BRANCH   1  21
HETATM   21  C   UNL     1      39.631 -13.227  -0.135  1.00  0.00     0.072 A 
HETATM   22  C   UNL     1      38.838 -12.184  -0.653  1.00  0.00     0.095 A 
HETATM   23  C   UNL     1      38.029 -12.389  -1.774  1.00  0.00     0.042 A 
HETATM   24  C   UNL     1      38.047 -13.627  -2.413  1.00  0.00     0.045 A 
HETATM   25  C   UNL     1      38.862 -14.643  -1.922  1.00  0.00     0.118 A 
HETATM   26  C   UNL     1      39.651 -14.458  -0.790  1.00  0.00     0.074 A 
HETATM   27  F   UNL     1      38.880 -15.825  -2.550  1.00  0.00    -0.206 F 
BRANCH  22  28
HETATM   28  O   UNL     1      38.847 -10.990   0.033  1.00  0.00    -0.354 OA
HETATM   29  C   UNL     1      37.981 -10.016  -0.548  1.00  0.00     0.210 C 
ENDBRANCH  22  28
ENDBRANCH   1  21
TORSDOF 3
ENDMDL
MODEL 7
REMARK VINA RESULT:      -8.3      2.595      6.975
REMARK  3 active torsions:
REMARK  status: ('A' for Active; 'I' for Inactive)
REMARK    1  A    between atoms: O_2  and  C_3 
REMARK    2  A    between atoms: C_4  and  N_5 
REMARK       I    between atoms: N_5  and  C_6 
REMARK       I    between atoms: C_6  and  N_7 
REMARK    3  A    between atoms: C_8  and  C_9 
ROOT
HETATM    1  N   UNL     1      41.879 -13.734   3.012  1.00  0.00    -0.306 N 
HETATM    2  C   UNL     1      41.136 -14.454   3.913  1.00  0.00     0.323 C 
HETATM    3  N   UNL     1      41.868 -14.942   4.995  1.00  0.00    -0.324 N 
HETATM    4  C   UNL     1      43.305 -15.273   4.936  1.00  0.00     0.139 C 
HETATM    5  C   UNL     1      43.975 -14.967   6.285  1.00  0.00     0.032 C 
HETATM    6  C   UNL     1      43.240 -15.598   7.468  1.00  0.00     0.004 C 
HETATM    7  C   UNL     1      41.762 -15.221   7.447  1.00  0.00     0.020 C 
HETATM    8  C   UNL     1      41.120 -15.543   6.102  1.00  0.00     0.128 C 
HETATM    9  O   UNL     1      39.933 -14.671   3.796  1.00  0.00    -0.247 OA
HETATM   10  H   UNL     1      42.698 -13.267   3.379  1.00  0.00     0.171 HD
ENDROOT
BRANCH   4  11
HETATM   11  C   UNL     1      43.481 -16.702   4.476  1.00  0.00     0.033 A 
HETATM   12  N   UNL     1      43.201 -17.087   3.180  1.00  0.00    -0.357 N 
HETATM   13  H   UNL     1      42.833 -16.475   2.463  1.00  0.00     0.166 HD
HETATM   14  C   UNL     1      43.438 -18.429   3.003  1.00  0.00     0.042 A 
HETATM   15  C   UNL     1      43.905 -18.926   4.216  1.00  0.00    -0.007 A 
HETATM   16  C   UNL     1      43.270 -19.234   1.869  1.00  0.00     0.030 A 
HETATM   17  C   UNL     1      43.943 -17.835   5.125  1.00  0.00     0.041 A 
HETATM   18  C   UNL     1      44.224 -20.294   4.312  1.00  0.00     0.014 A 
HETATM   19  C   UNL     1      44.061 -21.115   3.189  1.00  0.00     0.001 A 
HETATM   20  C   UNL     1      43.591 -20.590   1.987  1.00  0.00     0.002 A 
ENDBRANCH   4  11
BRANCH   1  21
HETATM   21  C   UNL     1      41.482 -13.248   1.747  1.00  0.00     0.072 A 
HETATM   22  C   UNL     1      41.603 -11.860   1.535  1.00  0.00     0.095 A 
HETATM   23  C   UNL     1      41.214 -11.287   0.322  1.00  0.00     0.042 A 
HETATM   24  C   UNL     1      40.749 -12.106  -0.705  1.00  0.00     0.045 A 
HETATM   25  C   UNL     1      40.668 -13.481  -0.505  1.00  0.00     0.118 A 
HETATM   26  C   UNL     1      41.028 -14.060   0.709  1.00  0.00     0.074 A 
HETATM   27  F   UNL     1      40.231 -14.260  -1.502  1.00  0.00    -0.206 F 
BRANCH  22  28
HETATM   28  O   UNL     1      42.050 -11.101   2.593  1.00  0.00    -0.354 OA
HETATM   29  C   UNL     1      41.183 -10.007   2.888  1.00  0.00     0.210 C 
ENDBRANCH  22  28
ENDBRANCH   1  21
TORSDOF 3
ENDMDL
MODEL 8
REMARK VINA RESULT:      -8.3      3.252      7.282
REMARK  3 active torsions:
REMARK  status: ('A' for Active; 'I' for Inactive)
REMARK    1  A    between atoms: O_2  and  C_3 
REMARK    2  A    between atoms: C_4  and  N_5 
REMARK       I    between atoms: N_5  and  C_6 
REMARK       I    between atoms: C_6  and  N_7 
REMARK    3  A    between atoms: C_8  and  C_9 
ROOT
HETATM    1  N   UNL     1      42.325 -13.294   3.711  1.00  0.00    -0.306 N 
HETATM    2  C   UNL     1      41.553 -14.100   4.509  1.00  0.00     0.323 C 
HETATM    3  N   UNL     1      42.282 -14.877   5.409  1.00  0.00    -0.324 N 
HETATM    4  C   UNL     1      43.663 -15.341   5.169  1.00  0.00     0.139 C 
HETATM    5  C   UNL     1      44.442 -15.393   6.493  1.00  0.00     0.032 C 
HETATM    6  C   UNL     1      43.704 -16.171   7.584  1.00  0.00     0.004 C 
HETATM    7  C   UNL     1      42.285 -15.642   7.757  1.00  0.00     0.020 C 
HETATM    8  C   UNL     1      41.531 -15.608   6.432  1.00  0.00     0.128 C 
HETATM    9  O   UNL     1      40.328 -14.158   4.449  1.00  0.00    -0.247 OA
HETATM   10  H   UNL     1      43.214 -13.003   4.095  1.00  0.00     0.171 HD
ENDROOT
BRANCH   4  11
HETATM   11  C   UNL     1      43.636 -16.654   4.422  1.00  0.00     0.033 A 
HETATM   12  N   UNL     1      43.994 -17.842   5.028  1.00  0.00    -0.357 N 
HETATM   13  H   UNL     1      44.327 -17.925   5.980  1.00  0.00     0.166 HD
HETATM   14  C   UNL     1      43.888 -18.895   4.151  1.00  0.00     0.042 A 
HETATM   15  C   UNL     1      43.427 -18.377   2.944  1.00  0.00    -0.007 A 
HETATM   16  C   UNL     1      44.167 -20.255   4.334  1.00  0.00     0.030 A 
HETATM   17  C   UNL     1      43.257 -16.978   3.130  1.00  0.00     0.041 A 
HETATM   18  C   UNL     1      43.232 -19.253   1.860  1.00  0.00     0.014 A 
HETATM   19  C   UNL     1      43.508 -20.616   2.023  1.00  0.00     0.001 A 
HETATM   20  C   UNL     1      43.968 -21.106   3.243  1.00  0.00     0.002 A 
ENDBRANCH   4  11
BRANCH   1  21
HETATM   21  C   UNL     1      41.918 -12.518   2.604  1.00  0.00     0.072 A 
HETATM   22  C   UNL     1      41.583 -13.218   1.428  1.00  0.00     0.095 A 
HETATM   23  C   UNL     1      41.190 -12.533   0.275  1.00  0.00     0.042 A 
HETATM   24  C   UNL     1      41.082 -11.144   0.308  1.00  0.00     0.045 A 
HETATM   25  C   UNL     1      41.375 -10.459   1.483  1.00  0.00     0.118 A 
HETATM   26  C   UNL     1      41.794 -11.129   2.629  1.00  0.00     0.074 A 
HETATM   27  F   UNL     1      41.257  -9.125   1.508  1.00  0.00    -0.206 F 
BRANCH  22  28
HETATM   28  O   UNL     1      41.729 -14.587   1.450  1.00  0.00    -0.354 OA
HETATM   29  C   UNL     1      40.542 -15.273   1.057  1.00  0.00     0.210 C 
ENDBRANCH  22  28
ENDBRANCH   1  21
TORSDOF 3
ENDMDL
MODEL 9
REMARK VINA RESULT:      -8.3     14.983     16.361
REMARK  3 active torsions:
REMARK  status: ('A' for Active; 'I' for Inactive)
REMARK    1  A    between atoms: O_2  and  C_3 
REMARK    2  A    between atoms: C_4  and  N_5 
REMARK       I    between atoms: N_5  and  C_6 
REMARK       I    between atoms: C_6  and  N_7 
REMARK    3  A    between atoms: C_8  and  C_9 
ROOT
HETATM    1  N   UNL     1      46.879 -30.640   2.530  1.00  0.00    -0.306 N 
HETATM    2  C   UNL     1      45.923 -29.657   2.493  1.00  0.00     0.323 C 
HETATM    3  N   UNL     1      44.665 -30.101   2.087  1.00  0.00    -0.324 N 
HETATM    4  C   UNL     1      44.447 -31.245   1.180  1.00  0.00     0.139 C 
HETATM    5  C   UNL     1      43.153 -31.983   1.560  1.00  0.00     0.032 C 
HETATM    6  C   UNL     1      41.950 -31.047   1.680  1.00  0.00     0.004 C 
HETATM    7  C   UNL     1      42.262 -29.887   2.619  1.00  0.00     0.020 C 
HETATM    8  C   UNL     1      43.544 -29.166   2.216  1.00  0.00     0.128 C 
HETATM    9  O   UNL     1      46.132 -28.481   2.779  1.00  0.00    -0.247 OA
HETATM   10  H   UNL     1      46.548 -31.581   2.694  1.00  0.00     0.171 HD
ENDROOT
BRANCH   4  11
HETATM   11  C   UNL     1      44.483 -30.771  -0.255  1.00  0.00     0.033 A 
HETATM   12  N   UNL     1      45.014 -29.545  -0.602  1.00  0.00    -0.357 N 
HETATM   13  H   UNL     1      45.379 -28.869   0.055  1.00  0.00     0.166 HD
HETATM   14  C   UNL     1      44.935 -29.340  -1.959  1.00  0.00     0.042 A 
HETATM   15  C   UNL     1      44.353 -30.477  -2.511  1.00  0.00    -0.007 A 
HETATM   16  C   UNL     1      45.330 -28.240  -2.731  1.00  0.00     0.030 A 
HETATM   17  C   UNL     1      44.089 -31.372  -1.439  1.00  0.00     0.041 A 
HETATM   18  C   UNL     1      44.149 -30.528  -3.903  1.00  0.00     0.014 A 
HETATM   19  C   UNL     1      44.535 -29.436  -4.692  1.00  0.00     0.001 A 
HETATM   20  C   UNL     1      45.116 -28.311  -4.111  1.00  0.00     0.002 A 
ENDBRANCH   4  11
BRANCH   1  21
HETATM   21  C   UNL     1      48.268 -30.496   2.738  1.00  0.00     0.072 A 
HETATM   22  C   UNL     1      49.071 -30.356   1.589  1.00  0.00     0.095 A 
HETATM   23  C   UNL     1      50.458 -30.229   1.697  1.00  0.00     0.042 A 
HETATM   24  C   UNL     1      51.046 -30.192   2.960  1.00  0.00     0.045 A 
HETATM   25  C   UNL     1      50.246 -30.291   4.094  1.00  0.00     0.118 A 
HETATM   26  C   UNL     1      48.865 -30.445   3.997  1.00  0.00     0.074 A 
HETATM   27  F   UNL     1      50.819 -30.243   5.303  1.00  0.00    -0.206 F 
BRANCH  22  28
HETATM   28  O   UNL     1      48.435 -30.420   0.369  1.00  0.00    -0.354 OA
HETATM   29  C   UNL     1      48.614 -29.236  -0.407  1.00  0.00     0.210 C 
ENDBRANCH  22  28
ENDBRANCH   1  21
TORSDOF 3
ENDMDL
MODEL 10
REMARK VINA RESULT:      -8.0      1.912      2.770
REMARK  3 active torsions:
REMARK  status: ('A' for Active; 'I' for Inactive)
REMARK    1  A    between atoms: O_2  and  C_3 
REMARK    2  A    between atoms: C_4  and  N_5 
REMARK       I    between atoms: N_5  and  C_6 
REMARK       I    between atoms: C_6  and  N_7 
REMARK    3  A    between atoms: C_8  and  C_9 
ROOT
HETATM    1  N   UNL     1      41.958 -13.857   4.234  1.00  0.00    -0.306 N 
HETATM    2  C   UNL     1      42.380 -12.750   3.543  1.00  0.00     0.323 C 
HETATM    3  N   UNL     1      41.375 -11.816   3.295  1.00  0.00    -0.324 N 
HETATM    4  C   UNL     1      39.946 -12.159   3.151  1.00  0.00     0.139 C 
HETATM    5  C   UNL     1      39.070 -11.026   3.710  1.00  0.00     0.032 C 
HETATM    6  C   UNL     1      39.441  -9.655   3.143  1.00  0.00     0.004 C 
HETATM    7  C   UNL     1      40.931  -9.385   3.316  1.00  0.00     0.020 C 
HETATM    8  C   UNL     1      41.778 -10.518   2.746  1.00  0.00     0.128 C 
HETATM    9  O   UNL     1      43.532 -12.577   3.156  1.00  0.00    -0.247 OA
HETATM   10  H   UNL     1      41.164 -13.726   4.847  1.00  0.00     0.171 HD
ENDROOT
BRANCH   4  11
HETATM   11  C   UNL     1      39.649 -12.508   1.711  1.00  0.00     0.033 A 
HETATM   12  N   UNL     1      39.836 -13.785   1.220  1.00  0.00    -0.357 N 
HETATM   13  H   UNL     1      40.209 -14.559   1.754  1.00  0.00     0.166 HD
HETATM   14  C   UNL     1      39.498 -13.856  -0.111  1.00  0.00     0.042 A 
HETATM   15  C   UNL     1      39.059 -12.590  -0.489  1.00  0.00    -0.007 A 
HETATM   16  C   UNL     1      39.552 -14.936  -1.000  1.00  0.00     0.030 A 
HETATM   17  C   UNL     1      39.142 -11.760   0.661  1.00  0.00     0.041 A 
HETATM   18  C   UNL     1      38.650 -12.384  -1.820  1.00  0.00     0.014 A 
HETATM   19  C   UNL     1      38.699 -13.451  -2.725  1.00  0.00     0.001 A 
HETATM   20  C   UNL     1      39.144 -14.708  -2.317  1.00  0.00     0.002 A 
ENDBRANCH   4  11
BRANCH   1  21
HETATM   21  C   UNL     1      42.676 -15.043   4.500  1.00  0.00     0.072 A 
HETATM   22  C   UNL     1      42.657 -16.034   3.498  1.00  0.00     0.095 A 
HETATM   23  C   UNL     1      43.321 -17.249   3.682  1.00  0.00     0.042 A 
HETATM   24  C   UNL     1      44.051 -17.461   4.851  1.00  0.00     0.045 A 
HETATM   25  C   UNL     1      44.099 -16.465   5.821  1.00  0.00     0.118 A 
HETATM   26  C   UNL     1      43.418 -15.261   5.660  1.00  0.00     0.074 A 
HETATM   27  F   UNL     1      44.811 -16.674   6.935  1.00  0.00    -0.206 F 
BRANCH  22  28
HETATM   28  O   UNL     1      41.904 -15.775   2.375  1.00  0.00    -0.354 OA
HETATM   29  C   UNL     1      42.686 -15.752   1.182  1.00  0.00     0.210 C 
ENDBRANCH  22  28
ENDBRANCH   1  21
TORSDOF 3
ENDMDL
