MODEL 1
REMARK VINA RESULT:     -10.2      0.000      0.000
REMARK  8 active torsions:
REMARK  status: ('A' for Active; 'I' for Inactive)
REMARK    1  A    between atoms: C_2  and  N_3 
REMARK    2  A    between atoms: N_7  and  C_8 
REMARK    3  A    between atoms: C_8  and  C_9 
REMARK    4  A    between atoms: C_10  and  C_11 
REMARK    5  A    between atoms: C_16  and  C_17 
REMARK       I    between atoms: C_17  and  N_18 
REMARK    6  A    between atoms: N_18  and  C_19 
REMARK    7  A    between atoms: C_21  and  O_22 
REMARK    8  A    between atoms: O_22  and  C_23 
ROOT
HETATM    1  C   UNL     1      43.884 -10.930   8.260  1.00  0.00     0.256 C 
HETATM    2  N   UNL     1      42.852 -11.054   7.347  1.00  0.00    -0.323 N 
HETATM    3  O   UNL     1      44.996 -11.438   8.157  1.00  0.00    -0.267 OA
HETATM    4  H   UNL     1      41.981 -10.590   7.538  1.00  0.00     0.169 HD
ENDROOT
BRANCH   1   5
HETATM    5  C   UNL     1      43.615 -10.092   9.481  1.00  0.00     0.033 A 
HETATM    6  C   UNL     1      43.096  -8.799   9.288  1.00  0.00     0.034 A 
HETATM    7  C   UNL     1      42.812  -7.933  10.366  1.00  0.00     0.056 A 
HETATM    8  C   UNL     1      43.068  -8.381  11.680  1.00  0.00    -0.015 A 
HETATM    9  C   UNL     1      43.577  -9.679  11.871  1.00  0.00     0.011 A 
HETATM   10  C   UNL     1      43.853 -10.520  10.789  1.00  0.00     0.017 A 
BRANCH   7  11
HETATM   11  C   UNL     1      42.293  -6.541  10.049  1.00  0.00     0.418 C 
HETATM   12  F   UNL     1      41.105  -6.245  10.648  1.00  0.00    -0.166 F 
HETATM   13  F   UNL     1      43.162  -5.564  10.426  1.00  0.00    -0.166 F 
HETATM   14  F   UNL     1      42.072  -6.351   8.718  1.00  0.00    -0.166 F 
ENDBRANCH   7  11
BRANCH   8  15
HETATM   15  C   UNL     1      42.852  -7.507  12.900  1.00  0.00     0.312 C 
BRANCH  15  16
HETATM   16  N   UNL     1      42.060  -8.174  13.947  1.00  0.00     0.096 N 
HETATM   17  C   UNL     1      40.649  -8.401  13.582  1.00  0.00     0.300 C 
HETATM   18  C   UNL     1      39.784  -7.127  13.521  1.00  0.00     0.265 C 
HETATM   19  N   UNL     1      39.873  -6.352  14.831  1.00  0.00    -0.068 N 
HETATM   20  H   UNL     1      39.453  -6.949  15.557  1.00  0.00     0.280 HD
HETATM   21  C   UNL     1      41.324  -6.123  15.258  1.00  0.00     0.265 C 
HETATM   22  C   UNL     1      42.127  -7.440  15.226  1.00  0.00     0.300 C 
BRANCH  19  23
HETATM   23  C   UNL     1      39.115  -5.043  14.810  1.00  0.00     0.230 C 
HETATM   24  C   UNL     1      38.336  -4.831  16.094  1.00  0.00     0.034 C 
ENDBRANCH  19  23
ENDBRANCH  15  16
ENDBRANCH   8  15
ENDBRANCH   1   5
BRANCH   2  25
HETATM   25  C   UNL     1      42.879 -11.723   6.102  1.00  0.00     0.037 A 
HETATM   26  C   UNL     1      42.207 -12.914   5.832  1.00  0.00     0.067 A 
HETATM   27  C   UNL     1      42.367 -13.548   4.590  1.00  0.00     0.084 A 
HETATM   28  C   UNL     1      43.142 -12.965   3.577  1.00  0.00    -0.028 A 
HETATM   29  C   UNL     1      43.263 -13.604   2.224  1.00  0.00     0.051 C 
HETATM   30  C   UNL     1      43.780 -11.749   3.839  1.00  0.00     0.012 A 
HETATM   31  C   UNL     1      43.659 -11.143   5.092  1.00  0.00     0.030 A 
BRANCH  27  32
HETATM   32  O   UNL     1      41.712 -14.724   4.291  1.00  0.00    -0.310 OA
BRANCH  32  33
HETATM   33  C   UNL     1      42.424 -15.905   4.301  1.00  0.00     0.076 A 
HETATM   34  C   UNL     1      42.173 -16.768   3.227  1.00  0.00     0.047 A 
HETATM   35  C   UNL     1      42.870 -17.961   3.176  1.00  0.00    -0.020 A 
HETATM   36  C   UNL     1      43.797 -18.286   4.162  1.00  0.00     0.041 A 
HETATM   37  C   UNL     1      42.807 -19.067   2.166  1.00  0.00     0.144 A 
HETATM   38  N   UNL     1      44.345 -19.530   3.895  1.00  0.00    -0.326 N 
HETATM   39  C   UNL     1      44.084 -17.447   5.217  1.00  0.00     0.033 A 
HETATM   40  C   UNL     1      43.815 -20.074   2.733  1.00  0.00     0.226 A 
HETATM   41  H   UNL     1      45.037 -20.006   4.454  1.00  0.00     0.169 HD
HETATM   42  O   UNL     1      44.106 -21.160   2.257  1.00  0.00    -0.273 OA
HETATM   43  C   UNL     1      43.396 -16.231   5.273  1.00  0.00     0.039 A 
ENDBRANCH  32  33
ENDBRANCH  27  32
ENDBRANCH   2  25
TORSDOF 8
ENDMDL
MODEL 2
REMARK VINA RESULT:      -9.9      2.082      2.676
REMARK  8 active torsions:
REMARK  status: ('A' for Active; 'I' for Inactive)
REMARK    1  A    between atoms: C_2  and  N_3 
REMARK    2  A    between atoms: N_7  and  C_8 
REMARK    3  A    between atoms: C_8  and  C_9 
REMARK    4  A    between atoms: C_10  and  C_11 
REMARK    5  A    between atoms: C_16  and  C_17 
REMARK       I    between atoms: C_17  and  N_18 
REMARK    6  A    between atoms: N_18  and  C_19 
REMARK    7  A    between atoms: C_21  and  O_22 
REMARK    8  A    between atoms: O_22  and  C_23 
ROOT
HETATM    1  C   UNL     1      41.601 -10.088   6.781  1.00  0.00     0.256 C 
HETATM    2  N   UNL     1      41.137 -11.389   6.707  1.00  0.00    -0.323 N 
HETATM    3  O   UNL     1      42.049  -9.434   5.845  1.00  0.00    -0.267 OA
HETATM    4  H   UNL     1      40.789 -11.825   7.544  1.00  0.00     0.169 HD
ENDROOT
BRANCH   1   5
HETATM    5  C   UNL     1      41.541  -9.419   8.128  1.00  0.00     0.033 A 
HETATM    6  C   UNL     1      42.567  -9.704   9.048  1.00  0.00     0.034 A 
HETATM    7  C   UNL     1      42.601  -9.131  10.338  1.00  0.00     0.056 A 
HETATM    8  C   UNL     1      41.562  -8.254  10.717  1.00  0.00    -0.015 A 
HETATM    9  C   UNL     1      40.543  -7.964   9.792  1.00  0.00     0.011 A 
HETATM   10  C   UNL     1      40.527  -8.542   8.519  1.00  0.00     0.017 A 
BRANCH   7  11
HETATM   11  C   UNL     1      43.730  -9.534  11.271  1.00  0.00     0.418 C 
HETATM   12  F   UNL     1      44.773 -10.148  10.643  1.00  0.00    -0.166 F 
HETATM   13  F   UNL     1      44.259  -8.471  11.935  1.00  0.00    -0.166 F 
HETATM   14  F   UNL     1      43.331 -10.414  12.232  1.00  0.00    -0.166 F 
ENDBRANCH   7  11
BRANCH   8  15
HETATM   15  C   UNL     1      41.476  -7.634  12.098  1.00  0.00     0.312 C 
BRANCH  15  16
HETATM   16  N   UNL     1      40.368  -8.178  12.900  1.00  0.00     0.096 N 
HETATM   17  C   UNL     1      39.501  -7.150  13.506  1.00  0.00     0.300 C 
HETATM   18  C   UNL     1      40.149  -6.353  14.656  1.00  0.00     0.265 C 
HETATM   19  N   UNL     1      40.681  -7.295  15.730  1.00  0.00    -0.068 N 
HETATM   20  H   UNL     1      39.865  -7.772  16.136  1.00  0.00     0.280 HD
HETATM   21  C   UNL     1      41.562  -8.395  15.135  1.00  0.00     0.265 C 
HETATM   22  C   UNL     1      40.859  -9.092  13.952  1.00  0.00     0.300 C 
BRANCH  19  23
HETATM   23  C   UNL     1      41.409  -6.583  16.849  1.00  0.00     0.230 C 
HETATM   24  C   UNL     1      41.630  -7.498  18.038  1.00  0.00     0.034 C 
ENDBRANCH  19  23
ENDBRANCH  15  16
ENDBRANCH   8  15
ENDBRANCH   1   5
BRANCH   2  25
HETATM   25  C   UNL     1      41.025 -12.200   5.555  1.00  0.00     0.037 A 
HETATM   26  C   UNL     1      42.082 -12.906   4.982  1.00  0.00     0.067 A 
HETATM   27  C   UNL     1      41.891 -13.614   3.785  1.00  0.00     0.084 A 
HETATM   28  C   UNL     1      40.625 -13.686   3.184  1.00  0.00    -0.028 A 
HETATM   29  C   UNL     1      40.399 -14.496   1.940  1.00  0.00     0.051 C 
HETATM   30  C   UNL     1      39.560 -13.011   3.787  1.00  0.00     0.012 A 
HETATM   31  C   UNL     1      39.762 -12.266   4.951  1.00  0.00     0.030 A 
BRANCH  27  32
HETATM   32  O   UNL     1      42.915 -14.325   3.196  1.00  0.00    -0.310 OA
BRANCH  32  33
HETATM   33  C   UNL     1      43.190 -15.599   3.649  1.00  0.00     0.076 A 
HETATM   34  C   UNL     1      43.156 -16.603   2.674  1.00  0.00     0.047 A 
HETATM   35  C   UNL     1      43.439 -17.898   3.067  1.00  0.00    -0.020 A 
HETATM   36  C   UNL     1      43.753 -18.187   4.392  1.00  0.00     0.041 A 
HETATM   37  C   UNL     1      43.473 -19.161   2.259  1.00  0.00     0.144 A 
HETATM   38  N   UNL     1      43.979 -19.547   4.532  1.00  0.00    -0.326 N 
HETATM   39  C   UNL     1      43.818 -17.217   5.368  1.00  0.00     0.033 A 
HETATM   40  C   UNL     1      43.831 -20.209   3.320  1.00  0.00     0.226 A 
HETATM   41  H   UNL     1      44.218 -20.023   5.388  1.00  0.00     0.169 HD
HETATM   42  O   UNL     1      43.964 -21.409   3.143  1.00  0.00    -0.273 OA
HETATM   43  C   UNL     1      43.548 -15.900   4.981  1.00  0.00     0.039 A 
ENDBRANCH  32  33
ENDBRANCH  27  32
ENDBRANCH   2  25
TORSDOF 8
ENDMDL
MODEL 3
REMARK VINA RESULT:      -9.7      2.824      4.638
REMARK  8 active torsions:
REMARK  status: ('A' for Active; 'I' for Inactive)
REMARK    1  A    between atoms: C_2  and  N_3 
REMARK    2  A    between atoms: N_7  and  C_8 
REMARK    3  A    between atoms: C_8  and  C_9 
REMARK    4  A    between atoms: C_10  and  C_11 
REMARK    5  A    between atoms: C_16  and  C_17 
REMARK       I    between atoms: C_17  and  N_18 
REMARK    6  A    between atoms: N_18  and  C_19 
REMARK    7  A    between atoms: C_21  and  O_22 
REMARK    8  A    between atoms: O_22  and  C_23 
ROOT
HETATM    1  C   UNL     1      43.699 -12.155   6.605  1.00  0.00     0.256 C 
HETATM    2  N   UNL     1      43.220 -13.424   6.878  1.00  0.00    -0.323 N 
HETATM    3  O   UNL     1      44.456 -11.859   5.686  1.00  0.00    -0.267 OA
HETATM    4  H   UNL     1      42.601 -13.547   7.661  1.00  0.00     0.169 HD
ENDROOT
BRANCH   1   5
HETATM    5  C   UNL     1      43.242 -11.045   7.513  1.00  0.00     0.033 A 
HETATM    6  C   UNL     1      43.929 -10.868   8.728  1.00  0.00     0.034 A 
HETATM    7  C   UNL     1      43.577  -9.858   9.651  1.00  0.00     0.056 A 
HETATM    8  C   UNL     1      42.491  -9.009   9.345  1.00  0.00    -0.015 A 
HETATM    9  C   UNL     1      41.813  -9.183   8.124  1.00  0.00     0.011 A 
HETATM   10  C   UNL     1      42.177 -10.190   7.225  1.00  0.00     0.017 A 
BRANCH   7  11
HETATM   11  C   UNL     1      44.356  -9.775  10.953  1.00  0.00     0.418 C 
HETATM   12  F   UNL     1      43.981 -10.701  11.881  1.00  0.00    -0.166 F 
HETATM   13  F   UNL     1      45.694  -9.941  10.769  1.00  0.00    -0.166 F 
HETATM   14  F   UNL     1      44.211  -8.573  11.577  1.00  0.00    -0.166 F 
ENDBRANCH   7  11
BRANCH   8  15
HETATM   15  C   UNL     1      41.999  -7.935  10.294  1.00  0.00     0.312 C 
BRANCH  15  16
HETATM   16  N   UNL     1      40.638  -8.193  10.792  1.00  0.00     0.096 N 
HETATM   17  C   UNL     1      40.056  -7.077  11.561  1.00  0.00     0.300 C 
HETATM   18  C   UNL     1      40.689  -6.848  12.949  1.00  0.00     0.265 C 
HETATM   19  N   UNL     1      40.658  -8.130  13.773  1.00  0.00    -0.068 N 
HETATM   20  H   UNL     1      39.667  -8.349  13.942  1.00  0.00     0.280 HD
HETATM   21  C   UNL     1      41.228  -9.318  12.995  1.00  0.00     0.265 C 
HETATM   22  C   UNL     1      40.583  -9.429  11.598  1.00  0.00     0.300 C 
BRANCH  19  23
HETATM   23  C   UNL     1      41.343  -8.000  15.116  1.00  0.00     0.230 C 
HETATM   24  C   UNL     1      42.575  -7.120  15.027  1.00  0.00     0.034 C 
ENDBRANCH  19  23
ENDBRANCH  15  16
ENDBRANCH   8  15
ENDBRANCH   1   5
BRANCH   2  25
HETATM   25  C   UNL     1      43.444 -14.607   6.138  1.00  0.00     0.037 A 
HETATM   26  C   UNL     1      43.307 -14.709   4.754  1.00  0.00     0.067 A 
HETATM   27  C   UNL     1      43.467 -15.951   4.119  1.00  0.00     0.084 A 
HETATM   28  C   UNL     1      43.835 -17.091   4.848  1.00  0.00    -0.028 A 
HETATM   29  C   UNL     1      44.072 -18.408   4.166  1.00  0.00     0.051 C 
HETATM   30  C   UNL     1      44.012 -16.973   6.229  1.00  0.00     0.012 A 
HETATM   31  C   UNL     1      43.806 -15.748   6.867  1.00  0.00     0.030 A 
BRANCH  27  32
HETATM   32  O   UNL     1      43.342 -16.083   2.753  1.00  0.00    -0.310 OA
BRANCH  32  33
HETATM   33  C   UNL     1      42.212 -15.588   2.134  1.00  0.00     0.076 A 
HETATM   34  C   UNL     1      42.363 -14.341   1.516  1.00  0.00     0.047 A 
HETATM   35  C   UNL     1      41.269 -13.801   0.866  1.00  0.00    -0.020 A 
HETATM   36  C   UNL     1      40.057 -14.485   0.827  1.00  0.00     0.041 A 
HETATM   37  C   UNL     1      41.132 -12.502   0.131  1.00  0.00     0.144 A 
HETATM   38  N   UNL     1      39.120 -13.734   0.136  1.00  0.00    -0.326 N 
HETATM   39  C   UNL     1      39.885 -15.724   1.405  1.00  0.00     0.033 A 
HETATM   40  C   UNL     1      39.665 -12.537  -0.311  1.00  0.00     0.226 A 
HETATM   41  H   UNL     1      38.160 -13.994  -0.034  1.00  0.00     0.169 HD
HETATM   42  O   UNL     1      39.072 -11.677  -0.942  1.00  0.00    -0.273 OA
HETATM   43  C   UNL     1      40.989 -16.287   2.053  1.00  0.00     0.039 A 
ENDBRANCH  32  33
ENDBRANCH  27  32
ENDBRANCH   2  25
TORSDOF 8
ENDMDL
MODEL 4
REMARK VINA RESULT:      -9.6      1.947      2.468
REMARK  8 active torsions:
REMARK  status: ('A' for Active; 'I' for Inactive)
REMARK    1  A    between atoms: C_2  and  N_3 
REMARK    2  A    between atoms: N_7  and  C_8 
REMARK    3  A    between atoms: C_8  and  C_9 
REMARK    4  A    between atoms: C_10  and  C_11 
REMARK    5  A    between atoms: C_16  and  C_17 
REMARK       I    between atoms: C_17  and  N_18 
REMARK    6  A    between atoms: N_18  and  C_19 
REMARK    7  A    between atoms: C_21  and  O_22 
REMARK    8  A    between atoms: O_22  and  C_23 
ROOT
HETATM    1  C   UNL     1      41.564 -10.011   6.758  1.00  0.00     0.256 C 
HETATM    2  N   UNL     1      41.429 -11.388   6.752  1.00  0.00    -0.323 N 
HETATM    3  O   UNL     1      41.550  -9.286   5.769  1.00  0.00    -0.267 OA
HETATM    4  H   UNL     1      41.454 -11.879   7.629  1.00  0.00     0.169 HD
ENDROOT
BRANCH   1   5
HETATM    5  C   UNL     1      41.735  -9.350   8.100  1.00  0.00     0.033 A 
HETATM    6  C   UNL     1      40.573  -8.975   8.799  1.00  0.00     0.034 A 
HETATM    7  C   UNL     1      40.624  -8.347  10.063  1.00  0.00     0.056 A 
HETATM    8  C   UNL     1      41.888  -8.079  10.635  1.00  0.00    -0.015 A 
HETATM    9  C   UNL     1      43.047  -8.466   9.938  1.00  0.00     0.011 A 
HETATM   10  C   UNL     1      42.974  -9.085   8.687  1.00  0.00     0.017 A 
BRANCH   7  11
HETATM   11  C   UNL     1      39.314  -7.944  10.717  1.00  0.00     0.418 C 
HETATM   12  F   UNL     1      39.101  -8.525  11.932  1.00  0.00    -0.166 F 
HETATM   13  F   UNL     1      39.226  -6.601  10.918  1.00  0.00    -0.166 F 
HETATM   14  F   UNL     1      38.227  -8.283   9.970  1.00  0.00    -0.166 F 
ENDBRANCH   7  11
BRANCH   8  15
HETATM   15  C   UNL     1      42.051  -7.358  11.958  1.00  0.00     0.312 C 
BRANCH  15  16
HETATM   16  N   UNL     1      42.857  -8.119  12.927  1.00  0.00     0.096 N 
HETATM   17  C   UNL     1      42.135  -9.235  13.567  1.00  0.00     0.300 C 
HETATM   18  C   UNL     1      41.045  -8.809  14.571  1.00  0.00     0.265 C 
HETATM   19  N   UNL     1      41.624  -7.878  15.631  1.00  0.00    -0.068 N 
HETATM   20  H   UNL     1      42.308  -8.429  16.166  1.00  0.00     0.280 HD
HETATM   21  C   UNL     1      42.407  -6.722  15.004  1.00  0.00     0.265 C 
HETATM   22  C   UNL     1      43.426  -7.239  13.967  1.00  0.00     0.300 C 
BRANCH  19  23
HETATM   23  C   UNL     1      40.588  -7.351  16.600  1.00  0.00     0.230 C 
HETATM   24  C   UNL     1      40.859  -7.827  18.014  1.00  0.00     0.034 C 
ENDBRANCH  19  23
ENDBRANCH  15  16
ENDBRANCH   8  15
ENDBRANCH   1   5
BRANCH   2  25
HETATM   25  C   UNL     1      41.189 -12.225   5.639  1.00  0.00     0.037 A 
HETATM   26  C   UNL     1      42.177 -12.941   4.964  1.00  0.00     0.067 A 
HETATM   27  C   UNL     1      41.853 -13.677   3.813  1.00  0.00     0.084 A 
HETATM   28  C   UNL     1      40.527 -13.765   3.364  1.00  0.00    -0.028 A 
HETATM   29  C   UNL     1      40.164 -14.604   2.172  1.00  0.00     0.051 C 
HETATM   30  C   UNL     1      39.535 -13.079   4.069  1.00  0.00     0.012 A 
HETATM   31  C   UNL     1      39.866 -12.308   5.186  1.00  0.00     0.030 A 
BRANCH  27  32
HETATM   32  O   UNL     1      42.806 -14.398   3.126  1.00  0.00    -0.310 OA
BRANCH  32  33
HETATM   33  C   UNL     1      43.134 -15.663   3.570  1.00  0.00     0.076 A 
HETATM   34  C   UNL     1      43.059 -16.676   2.606  1.00  0.00     0.047 A 
HETATM   35  C   UNL     1      43.391 -17.962   2.989  1.00  0.00    -0.020 A 
HETATM   36  C   UNL     1      43.793 -18.234   4.293  1.00  0.00     0.041 A 
HETATM   37  C   UNL     1      43.399 -19.230   2.189  1.00  0.00     0.144 A 
HETATM   38  N   UNL     1      44.054 -19.588   4.428  1.00  0.00    -0.326 N 
HETATM   39  C   UNL     1      43.901 -17.255   5.256  1.00  0.00     0.033 A 
HETATM   40  C   UNL     1      43.843 -20.262   3.232  1.00  0.00     0.226 A 
HETATM   41  H   UNL     1      44.356 -20.053   5.271  1.00  0.00     0.169 HD
HETATM   42  O   UNL     1      43.988 -21.461   3.056  1.00  0.00    -0.273 OA
HETATM   43  C   UNL     1      43.581 -15.947   4.879  1.00  0.00     0.039 A 
ENDBRANCH  32  33
ENDBRANCH  27  32
ENDBRANCH   2  25
TORSDOF 8
ENDMDL
MODEL 5
REMARK VINA RESULT:      -9.2      1.693      2.252
REMARK  8 active torsions:
REMARK  status: ('A' for Active; 'I' for Inactive)
REMARK    1  A    between atoms: C_2  and  N_3 
REMARK    2  A    between atoms: N_7  and  C_8 
REMARK    3  A    between atoms: C_8  and  C_9 
REMARK    4  A    between atoms: C_10  and  C_11 
REMARK    5  A    between atoms: C_16  and  C_17 
REMARK       I    between atoms: C_17  and  N_18 
REMARK    6  A    between atoms: N_18  and  C_19 
REMARK    7  A    between atoms: C_21  and  O_22 
REMARK    8  A    between atoms: O_22  and  C_23 
ROOT
HETATM    1  C   UNL     1      43.322 -10.070   7.355  1.00  0.00     0.256 C 
HETATM    2  N   UNL     1      42.348 -10.614   6.536  1.00  0.00    -0.323 N 
HETATM    3  O   UNL     1      44.524 -10.301   7.287  1.00  0.00    -0.267 OA
HETATM    4  H   UNL     1      41.390 -10.348   6.685  1.00  0.00     0.169 HD
ENDROOT
BRANCH   1   5
HETATM    5  C   UNL     1      42.859  -9.105   8.414  1.00  0.00     0.033 A 
HETATM    6  C   UNL     1      43.092  -9.446   9.758  1.00  0.00     0.034 A 
HETATM    7  C   UNL     1      42.695  -8.612  10.826  1.00  0.00     0.056 A 
HETATM    8  C   UNL     1      42.031  -7.401  10.529  1.00  0.00    -0.015 A 
HETATM    9  C   UNL     1      41.809  -7.059   9.182  1.00  0.00     0.011 A 
HETATM   10  C   UNL     1      42.209  -7.900   8.140  1.00  0.00     0.017 A 
BRANCH   7  11
HETATM   11  C   UNL     1      42.957  -9.089  12.244  1.00  0.00     0.418 C 
HETATM   12  F   UNL     1      43.566 -10.307  12.313  1.00  0.00    -0.166 F 
HETATM   13  F   UNL     1      43.745  -8.229  12.944  1.00  0.00    -0.166 F 
HETATM   14  F   UNL     1      41.814  -9.226  12.973  1.00  0.00    -0.166 F 
ENDBRANCH   7  11
BRANCH   8  15
HETATM   15  C   UNL     1      41.513  -6.466  11.604  1.00  0.00     0.312 C 
BRANCH  15  16
HETATM   16  N   UNL     1      40.122  -6.045  11.372  1.00  0.00     0.096 N 
HETATM   17  C   UNL     1      39.770  -4.756  11.996  1.00  0.00     0.300 C 
HETATM   18  C   UNL     1      39.669  -4.789  13.535  1.00  0.00     0.265 C 
HETATM   19  N   UNL     1      38.701  -5.876  13.987  1.00  0.00    -0.068 N 
HETATM   20  H   UNL     1      37.769  -5.605  13.644  1.00  0.00     0.280 HD
HETATM   21  C   UNL     1      39.016  -7.224  13.335  1.00  0.00     0.265 C 
HETATM   22  C   UNL     1      39.164  -7.081  11.806  1.00  0.00     0.300 C 
BRANCH  19  23
HETATM   23  C   UNL     1      38.619  -6.023  15.491  1.00  0.00     0.230 C 
HETATM   24  C   UNL     1      38.366  -4.688  16.166  1.00  0.00     0.034 C 
ENDBRANCH  19  23
ENDBRANCH  15  16
ENDBRANCH   8  15
ENDBRANCH   1   5
BRANCH   2  25
HETATM   25  C   UNL     1      42.534 -11.481   5.435  1.00  0.00     0.037 A 
HETATM   26  C   UNL     1      41.886 -12.705   5.278  1.00  0.00     0.067 A 
HETATM   27  C   UNL     1      42.203 -13.537   4.193  1.00  0.00     0.084 A 
HETATM   28  C   UNL     1      43.118 -13.126   3.213  1.00  0.00    -0.028 A 
HETATM   29  C   UNL     1      43.412 -13.982   2.014  1.00  0.00     0.051 C 
HETATM   30  C   UNL     1      43.733 -11.879   3.353  1.00  0.00     0.012 A 
HETATM   31  C   UNL     1      43.453 -11.073   4.459  1.00  0.00     0.030 A 
BRANCH  27  32
HETATM   32  O   UNL     1      41.576 -14.751   4.007  1.00  0.00    -0.310 OA
BRANCH  32  33
HETATM   33  C   UNL     1      42.321 -15.908   4.106  1.00  0.00     0.076 A 
HETATM   34  C   UNL     1      42.104 -16.851   3.093  1.00  0.00     0.047 A 
HETATM   35  C   UNL     1      42.835 -18.024   3.131  1.00  0.00    -0.020 A 
HETATM   36  C   UNL     1      43.761 -18.253   4.145  1.00  0.00     0.041 A 
HETATM   37  C   UNL     1      42.812 -19.200   2.201  1.00  0.00     0.144 A 
HETATM   38  N   UNL     1      44.346 -19.496   3.970  1.00  0.00    -0.326 N 
HETATM   39  C   UNL     1      44.014 -17.334   5.140  1.00  0.00     0.033 A 
HETATM   40  C   UNL     1      43.842 -20.135   2.844  1.00  0.00     0.226 A 
HETATM   41  H   UNL     1      45.046 -19.912   4.566  1.00  0.00     0.169 HD
HETATM   42  O   UNL     1      44.168 -21.243   2.448  1.00  0.00    -0.273 OA
HETATM   43  C   UNL     1      43.292 -16.137   5.105  1.00  0.00     0.039 A 
ENDBRANCH  32  33
ENDBRANCH  27  32
ENDBRANCH   2  25
TORSDOF 8
ENDMDL
MODEL 6
REMARK VINA RESULT:      -8.9      4.020     12.794
REMARK  8 active torsions:
REMARK  status: ('A' for Active; 'I' for Inactive)
REMARK    1  A    between atoms: C_2  and  N_3 
REMARK    2  A    between atoms: N_7  and  C_8 
REMARK    3  A    between atoms: C_8  and  C_9 
REMARK    4  A    between atoms: C_10  and  C_11 
REMARK    5  A    between atoms: C_16  and  C_17 
REMARK       I    between atoms: C_17  and  N_18 
REMARK    6  A    between atoms: N_18  and  C_19 
REMARK    7  A    between atoms: C_21  and  O_22 
REMARK    8  A    between atoms: O_22  and  C_23 
ROOT
HETATM    1  C   UNL     1      42.348  -8.502   9.632  1.00  0.00     0.256 C 
HETATM    2  N   UNL     1      42.042  -9.111  10.836  1.00  0.00    -0.323 N 
HETATM    3  O   UNL     1      42.600  -7.312   9.476  1.00  0.00    -0.267 OA
HETATM    4  H   UNL     1      41.854 -10.099  10.843  1.00  0.00     0.169 HD
ENDROOT
BRANCH   1   5
HETATM    5  C   UNL     1      42.380  -9.385   8.413  1.00  0.00     0.033 A 
HETATM    6  C   UNL     1      43.579 -10.061   8.124  1.00  0.00     0.034 A 
HETATM    7  C   UNL     1      43.713 -10.910   7.003  1.00  0.00     0.056 A 
HETATM    8  C   UNL     1      42.607 -11.072   6.141  1.00  0.00    -0.015 A 
HETATM    9  C   UNL     1      41.406 -10.403   6.438  1.00  0.00     0.011 A 
HETATM   10  C   UNL     1      41.294  -9.566   7.553  1.00  0.00     0.017 A 
BRANCH   7  11
HETATM   11  C   UNL     1      45.063 -11.562   6.756  1.00  0.00     0.418 C 
HETATM   12  F   UNL     1      46.002 -11.262   7.697  1.00  0.00    -0.166 F 
HETATM   13  F   UNL     1      44.983 -12.920   6.717  1.00  0.00    -0.166 F 
HETATM   14  F   UNL     1      45.620 -11.186   5.571  1.00  0.00    -0.166 F 
ENDBRANCH   7  11
BRANCH   8  15
HETATM   15  C   UNL     1      42.667 -11.914   4.881  1.00  0.00     0.312 C 
BRANCH  15  16
HETATM   16  N   UNL     1      41.539 -12.852   4.767  1.00  0.00     0.096 N 
HETATM   17  C   UNL     1      41.431 -13.805   5.887  1.00  0.00     0.300 C 
HETATM   18  C   UNL     1      42.530 -14.887   5.924  1.00  0.00     0.265 C 
HETATM   19  N   UNL     1      42.592 -15.636   4.598  1.00  0.00    -0.068 N 
HETATM   20  H   UNL     1      41.698 -16.137   4.499  1.00  0.00     0.280 HD
HETATM   21  C   UNL     1      42.673 -14.677   3.408  1.00  0.00     0.265 C 
HETATM   22  C   UNL     1      41.579 -13.593   3.490  1.00  0.00     0.300 C 
BRANCH  19  23
HETATM   23  C   UNL     1      43.708 -16.655   4.533  1.00  0.00     0.230 C 
HETATM   24  C   UNL     1      44.426 -16.777   5.863  1.00  0.00     0.034 C 
ENDBRANCH  19  23
ENDBRANCH  15  16
ENDBRANCH   8  15
ENDBRANCH   1   5
BRANCH   2  25
HETATM   25  C   UNL     1      42.018  -8.519  12.119  1.00  0.00     0.037 A 
HETATM   26  C   UNL     1      40.862  -8.323  12.875  1.00  0.00     0.067 A 
HETATM   27  C   UNL     1      40.929  -7.645  14.103  1.00  0.00     0.084 A 
HETATM   28  C   UNL     1      42.159  -7.218  14.624  1.00  0.00    -0.028 A 
HETATM   29  C   UNL     1      42.245  -6.551  15.967  1.00  0.00     0.051 C 
HETATM   30  C   UNL     1      43.319  -7.454  13.881  1.00  0.00     0.012 A 
HETATM   31  C   UNL     1      43.245  -8.086  12.637  1.00  0.00     0.030 A 
BRANCH  27  32
HETATM   32  O   UNL     1      39.806  -7.440  14.875  1.00  0.00    -0.310 OA
BRANCH  32  33
HETATM   33  C   UNL     1      38.892  -6.484  14.483  1.00  0.00     0.076 A 
HETATM   34  C   UNL     1      38.611  -5.494  15.433  1.00  0.00     0.047 A 
HETATM   35  C   UNL     1      37.715  -4.500  15.090  1.00  0.00    -0.020 A 
HETATM   36  C   UNL     1      37.116  -4.485  13.834  1.00  0.00     0.041 A 
HETATM   37  C   UNL     1      37.223  -3.332  15.891  1.00  0.00     0.144 A 
HETATM   38  N   UNL     1      36.252  -3.406  13.741  1.00  0.00    -0.326 N 
HETATM   39  C   UNL     1      37.390  -5.430  12.870  1.00  0.00     0.033 A 
HETATM   40  C   UNL     1      36.245  -2.665  14.917  1.00  0.00     0.226 A 
HETATM   41  H   UNL     1      35.687  -3.165  12.941  1.00  0.00     0.169 HD
HETATM   42  O   UNL     1      35.576  -1.666  15.125  1.00  0.00    -0.273 OA
HETATM   43  C   UNL     1      38.306  -6.434  13.199  1.00  0.00     0.039 A 
ENDBRANCH  32  33
ENDBRANCH  27  32
ENDBRANCH   2  25
TORSDOF 8
ENDMDL
MODEL 7
REMARK VINA RESULT:      -8.9      7.826     11.329
REMARK  8 active torsions:
REMARK  status: ('A' for Active; 'I' for Inactive)
REMARK    1  A    between atoms: C_2  and  N_3 
REMARK    2  A    between atoms: N_7  and  C_8 
REMARK    3  A    between atoms: C_8  and  C_9 
REMARK    4  A    between atoms: C_10  and  C_11 
REMARK    5  A    between atoms: C_16  and  C_17 
REMARK       I    between atoms: C_17  and  N_18 
REMARK    6  A    between atoms: N_18  and  C_19 
REMARK    7  A    between atoms: C_21  and  O_22 
REMARK    8  A    between atoms: O_22  and  C_23 
ROOT
HETATM    1  C   UNL     1      41.362 -12.261   1.357  1.00  0.00     0.256 C 
HETATM    2  N   UNL     1      41.390 -11.958   2.707  1.00  0.00    -0.323 N 
HETATM    3  O   UNL     1      41.420 -13.387   0.875  1.00  0.00    -0.267 OA
HETATM    4  H   UNL     1      41.334 -10.994   2.986  1.00  0.00     0.169 HD
ENDROOT
BRANCH   1   5
HETATM    5  C   UNL     1      41.243 -11.103   0.403  1.00  0.00     0.033 A 
HETATM    6  C   UNL     1      40.790 -11.372  -0.902  1.00  0.00     0.034 A 
HETATM    7  C   UNL     1      40.646 -10.357  -1.873  1.00  0.00     0.056 A 
HETATM    8  C   UNL     1      40.979  -9.030  -1.521  1.00  0.00    -0.015 A 
HETATM    9  C   UNL     1      41.422  -8.763  -0.212  1.00  0.00     0.011 A 
HETATM   10  C   UNL     1      41.559  -9.783   0.734  1.00  0.00     0.017 A 
BRANCH   7  11
HETATM   11  C   UNL     1      40.189 -10.756  -3.265  1.00  0.00     0.418 C 
HETATM   12  F   UNL     1      39.842 -12.070  -3.377  1.00  0.00    -0.166 F 
HETATM   13  F   UNL     1      39.109 -10.041  -3.682  1.00  0.00    -0.166 F 
HETATM   14  F   UNL     1      41.151 -10.566  -4.210  1.00  0.00    -0.166 F 
ENDBRANCH   7  11
BRANCH   8  15
HETATM   15  C   UNL     1      40.915  -7.880  -2.507  1.00  0.00     0.312 C 
BRANCH  15  16
HETATM   16  N   UNL     1      41.895  -6.821  -2.213  1.00  0.00     0.096 N 
HETATM   17  C   UNL     1      41.422  -5.460  -2.527  1.00  0.00     0.300 C 
HETATM   18  C   UNL     1      41.303  -5.148  -4.033  1.00  0.00     0.265 C 
HETATM   19  N   UNL     1      42.620  -5.428  -4.747  1.00  0.00    -0.068 N 
HETATM   20  H   UNL     1      43.308  -4.762  -4.370  1.00  0.00     0.280 HD
HETATM   21  C   UNL     1      43.157  -6.823  -4.420  1.00  0.00     0.265 C 
HETATM   22  C   UNL     1      43.179  -7.068  -2.897  1.00  0.00     0.300 C 
BRANCH  19  23
HETATM   23  C   UNL     1      42.548  -5.227  -6.245  1.00  0.00     0.230 C 
HETATM   24  C   UNL     1      43.191  -6.380  -6.991  1.00  0.00     0.034 C 
ENDBRANCH  19  23
ENDBRANCH  15  16
ENDBRANCH   8  15
ENDBRANCH   1   5
BRANCH   2  25
HETATM   25  C   UNL     1      41.427 -12.863   3.792  1.00  0.00     0.037 A 
HETATM   26  C   UNL     1      42.546 -13.609   4.158  1.00  0.00     0.067 A 
HETATM   27  C   UNL     1      42.459 -14.548   5.198  1.00  0.00     0.084 A 
HETATM   28  C   UNL     1      41.273 -14.703   5.931  1.00  0.00    -0.028 A 
HETATM   29  C   UNL     1      41.193 -15.658   7.087  1.00  0.00     0.051 C 
HETATM   30  C   UNL     1      40.167 -13.921   5.587  1.00  0.00     0.012 A 
HETATM   31  C   UNL     1      40.241 -13.022   4.521  1.00  0.00     0.030 A 
BRANCH  27  32
HETATM   32  O   UNL     1      43.548 -15.298   5.586  1.00  0.00    -0.310 OA
BRANCH  32  33
HETATM   33  C   UNL     1      43.634 -16.613   5.177  1.00  0.00     0.076 A 
HETATM   34  C   UNL     1      43.446 -16.830   3.806  1.00  0.00     0.047 A 
HETATM   35  C   UNL     1      43.536 -18.126   3.335  1.00  0.00    -0.020 A 
HETATM   36  C   UNL     1      43.811 -19.180   4.202  1.00  0.00     0.041 A 
HETATM   37  C   UNL     1      43.379 -18.655   1.941  1.00  0.00     0.144 A 
HETATM   38  N   UNL     1      43.834 -20.371   3.495  1.00  0.00    -0.326 N 
HETATM   39  C   UNL     1      44.025 -18.995   5.550  1.00  0.00     0.033 A 
HETATM   40  C   UNL     1      43.582 -20.160   2.146  1.00  0.00     0.226 A 
HETATM   41  H   UNL     1      44.004 -21.287   3.882  1.00  0.00     0.169 HD
HETATM   42  O   UNL     1      43.534 -21.026   1.286  1.00  0.00    -0.273 OA
HETATM   43  C   UNL     1      43.950 -17.687   6.038  1.00  0.00     0.039 A 
ENDBRANCH  32  33
ENDBRANCH  27  32
ENDBRANCH   2  25
TORSDOF 8
ENDMDL
MODEL 8
REMARK VINA RESULT:      -8.8      2.773      4.364
REMARK  8 active torsions:
REMARK  status: ('A' for Active; 'I' for Inactive)
REMARK    1  A    between atoms: C_2  and  N_3 
REMARK    2  A    between atoms: N_7  and  C_8 
REMARK    3  A    between atoms: C_8  and  C_9 
REMARK    4  A    between atoms: C_10  and  C_11 
REMARK    5  A    between atoms: C_16  and  C_17 
REMARK       I    between atoms: C_17  and  N_18 
REMARK    6  A    between atoms: N_18  and  C_19 
REMARK    7  A    between atoms: C_21  and  O_22 
REMARK    8  A    between atoms: O_22  and  C_23 
ROOT
HETATM    1  C   UNL     1      44.156 -11.421   7.471  1.00  0.00     0.256 C 
HETATM    2  N   UNL     1      43.264 -12.468   7.323  1.00  0.00    -0.323 N 
HETATM    3  O   UNL     1      45.132 -11.207   6.760  1.00  0.00    -0.267 OA
HETATM    4  H   UNL     1      42.496 -12.542   7.967  1.00  0.00     0.169 HD
ENDROOT
BRANCH   1   5
HETATM    5  C   UNL     1      43.896 -10.460   8.600  1.00  0.00     0.033 A 
HETATM    6  C   UNL     1      42.712  -9.702   8.556  1.00  0.00     0.034 A 
HETATM    7  C   UNL     1      42.375  -8.772   9.564  1.00  0.00     0.056 A 
HETATM    8  C   UNL     1      43.267  -8.592  10.644  1.00  0.00    -0.015 A 
HETATM    9  C   UNL     1      44.445  -9.360  10.690  1.00  0.00     0.011 A 
HETATM   10  C   UNL     1      44.760 -10.275   9.681  1.00  0.00     0.017 A 
BRANCH   7  11
HETATM   11  C   UNL     1      41.093  -7.973   9.403  1.00  0.00     0.418 C 
HETATM   12  F   UNL     1      41.278  -6.622   9.425  1.00  0.00    -0.166 F 
HETATM   13  F   UNL     1      40.452  -8.250   8.235  1.00  0.00    -0.166 F 
HETATM   14  F   UNL     1      40.191  -8.221  10.393  1.00  0.00    -0.166 F 
ENDBRANCH   7  11
BRANCH   8  15
HETATM   15  C   UNL     1      43.026  -7.578  11.745  1.00  0.00     0.312 C 
BRANCH  15  16
HETATM   16  N   UNL     1      43.090  -8.170  13.091  1.00  0.00     0.096 N 
HETATM   17  C   UNL     1      41.960  -9.063  13.411  1.00  0.00     0.300 C 
HETATM   18  C   UNL     1      40.610  -8.347  13.619  1.00  0.00     0.265 C 
HETATM   19  N   UNL     1      40.737  -7.256  14.676  1.00  0.00    -0.068 N 
HETATM   20  H   UNL     1      40.952  -7.728  15.565  1.00  0.00     0.280 HD
HETATM   21  C   UNL     1      41.919  -6.327  14.394  1.00  0.00     0.265 C 
HETATM   22  C   UNL     1      43.210  -7.132  14.134  1.00  0.00     0.300 C 
BRANCH  19  23
HETATM   23  C   UNL     1      39.469  -6.454  14.870  1.00  0.00     0.230 C 
HETATM   24  C   UNL     1      39.234  -6.130  16.333  1.00  0.00     0.034 C 
ENDBRANCH  19  23
ENDBRANCH  15  16
ENDBRANCH   8  15
ENDBRANCH   1   5
BRANCH   2  25
HETATM   25  C   UNL     1      43.252 -13.452   6.308  1.00  0.00     0.037 A 
HETATM   26  C   UNL     1      43.026 -13.190   4.958  1.00  0.00     0.067 A 
HETATM   27  C   UNL     1      42.946 -14.247   4.037  1.00  0.00     0.084 A 
HETATM   28  C   UNL     1      43.162 -15.572   4.442  1.00  0.00    -0.028 A 
HETATM   29  C   UNL     1      43.144 -16.701   3.451  1.00  0.00     0.051 C 
HETATM   30  C   UNL     1      43.431 -15.825   5.790  1.00  0.00     0.012 A 
HETATM   31  C   UNL     1      43.462 -14.777   6.713  1.00  0.00     0.030 A 
BRANCH  27  32
HETATM   32  O   UNL     1      42.727 -14.019   2.695  1.00  0.00    -0.310 OA
BRANCH  32  33
HETATM   33  C   UNL     1      41.505 -13.520   2.294  1.00  0.00     0.076 A 
HETATM   34  C   UNL     1      41.356 -13.334   0.914  1.00  0.00     0.047 A 
HETATM   35  C   UNL     1      40.147 -12.851   0.450  1.00  0.00    -0.020 A 
HETATM   36  C   UNL     1      39.109 -12.566   1.334  1.00  0.00     0.041 A 
HETATM   37  C   UNL     1      39.706 -12.551  -0.951  1.00  0.00     0.144 A 
HETATM   38  N   UNL     1      38.017 -12.085   0.631  1.00  0.00    -0.326 N 
HETATM   39  C   UNL     1      39.218 -12.763   2.693  1.00  0.00     0.033 A 
HETATM   40  C   UNL     1      38.279 -12.035  -0.732  1.00  0.00     0.226 A 
HETATM   41  H   UNL     1      37.136 -11.797   1.029  1.00  0.00     0.169 HD
HETATM   42  O   UNL     1      37.504 -11.648  -1.592  1.00  0.00    -0.273 OA
HETATM   43  C   UNL     1      40.432 -13.264   3.174  1.00  0.00     0.039 A 
ENDBRANCH  32  33
ENDBRANCH  27  32
ENDBRANCH   2  25
TORSDOF 8
ENDMDL
MODEL 9
REMARK VINA RESULT:      -8.8      4.416     12.550
REMARK  8 active torsions:
REMARK  status: ('A' for Active; 'I' for Inactive)
REMARK    1  A    between atoms: C_2  and  N_3 
REMARK    2  A    between atoms: N_7  and  C_8 
REMARK    3  A    between atoms: C_8  and  C_9 
REMARK    4  A    between atoms: C_10  and  C_11 
REMARK    5  A    between atoms: C_16  and  C_17 
REMARK       I    between atoms: C_17  and  N_18 
REMARK    6  A    between atoms: N_18  and  C_19 
REMARK    7  A    between atoms: C_21  and  O_22 
REMARK    8  A    between atoms: O_22  and  C_23 
ROOT
HETATM    1  C   UNL     1      39.408 -11.650   6.466  1.00  0.00     0.256 C 
HETATM    2  N   UNL     1      40.335 -10.760   6.980  1.00  0.00    -0.323 N 
HETATM    3  O   UNL     1      38.190 -11.516   6.504  1.00  0.00    -0.267 OA
HETATM    4  H   UNL     1      41.312 -10.975   6.889  1.00  0.00     0.169 HD
ENDROOT
BRANCH   1   5
HETATM    5  C   UNL     1      39.950 -12.886   5.799  1.00  0.00     0.033 A 
HETATM    6  C   UNL     1      39.925 -12.936   4.393  1.00  0.00     0.034 A 
HETATM    7  C   UNL     1      40.406 -14.050   3.671  1.00  0.00     0.056 A 
HETATM    8  C   UNL     1      40.919 -15.152   4.390  1.00  0.00    -0.015 A 
HETATM    9  C   UNL     1      40.952 -15.094   5.795  1.00  0.00     0.011 A 
HETATM   10  C   UNL     1      40.469 -13.982   6.491  1.00  0.00     0.017 A 
BRANCH   7  11
HETATM   11  C   UNL     1      40.297 -14.024   2.156  1.00  0.00     0.418 C 
HETATM   12  F   UNL     1      39.647 -15.101   1.631  1.00  0.00    -0.166 F 
HETATM   13  F   UNL     1      39.639 -12.923   1.703  1.00  0.00    -0.166 F 
HETATM   14  F   UNL     1      41.513 -14.012   1.542  1.00  0.00    -0.166 F 
ENDBRANCH   7  11
BRANCH   8  15
HETATM   15  C   UNL     1      41.405 -16.418   3.711  1.00  0.00     0.312 C 
BRANCH  15  16
HETATM   16  N   UNL     1      42.823 -16.348   3.321  1.00  0.00     0.096 N 
HETATM   17  C   UNL     1      43.155 -17.127   2.114  1.00  0.00     0.300 C 
HETATM   18  C   UNL     1      43.122 -18.657   2.303  1.00  0.00     0.265 C 
HETATM   19  N   UNL     1      44.015 -19.076   3.465  1.00  0.00    -0.068 N 
HETATM   20  H   UNL     1      44.980 -18.841   3.196  1.00  0.00     0.280 HD
HETATM   21  C   UNL     1      43.719 -18.266   4.729  1.00  0.00     0.265 C 
HETATM   22  C   UNL     1      43.710 -16.753   4.430  1.00  0.00     0.300 C 
BRANCH  19  23
HETATM   23  C   UNL     1      43.962 -20.559   3.763  1.00  0.00     0.230 C 
HETATM   24  C   UNL     1      44.010 -20.827   5.255  1.00  0.00     0.034 C 
ENDBRANCH  19  23
ENDBRANCH  15  16
ENDBRANCH   8  15
ENDBRANCH   1   5
BRANCH   2  25
HETATM   25  C   UNL     1      40.082  -9.507   7.585  1.00  0.00     0.037 A 
HETATM   26  C   UNL     1      39.766  -9.332   8.931  1.00  0.00     0.067 A 
HETATM   27  C   UNL     1      39.445  -8.056   9.420  1.00  0.00     0.084 A 
HETATM   28  C   UNL     1      39.506  -6.929   8.588  1.00  0.00    -0.028 A 
HETATM   29  C   UNL     1      39.229  -5.552   9.120  1.00  0.00     0.051 C 
HETATM   30  C   UNL     1      39.866  -7.105   7.249  1.00  0.00     0.012 A 
HETATM   31  C   UNL     1      40.137  -8.382   6.752  1.00  0.00     0.030 A 
BRANCH  27  32
HETATM   32  O   UNL     1      39.132  -7.849  10.747  1.00  0.00    -0.310 OA
BRANCH  32  33
HETATM   33  C   UNL     1      40.152  -7.598  11.642  1.00  0.00     0.076 A 
HETATM   34  C   UNL     1      39.764  -7.504  12.984  1.00  0.00     0.047 A 
HETATM   35  C   UNL     1      40.746  -7.270  13.928  1.00  0.00    -0.020 A 
HETATM   36  C   UNL     1      42.079  -7.137  13.551  1.00  0.00     0.041 A 
HETATM   37  C   UNL     1      40.632  -7.117  15.416  1.00  0.00     0.144 A 
HETATM   38  N   UNL     1      42.859  -6.894  14.669  1.00  0.00    -0.326 N 
HETATM   39  C   UNL     1      42.494  -7.249  12.242  1.00  0.00     0.033 A 
HETATM   40  C   UNL     1      42.086  -6.858  15.823  1.00  0.00     0.226 A 
HETATM   41  H   UNL     1      43.858  -6.752  14.677  1.00  0.00     0.169 HD
HETATM   42  O   UNL     1      42.502  -6.658  16.953  1.00  0.00    -0.273 OA
HETATM   43  C   UNL     1      41.513  -7.501  11.278  1.00  0.00     0.039 A 
ENDBRANCH  32  33
ENDBRANCH  27  32
ENDBRANCH   2  25
TORSDOF 8
ENDMDL
MODEL 10
REMARK VINA RESULT:      -8.8     20.224     22.450
REMARK  8 active torsions:
REMARK  status: ('A' for Active; 'I' for Inactive)
REMARK    1  A    between atoms: C_2  and  N_3 
REMARK    2  A    between atoms: N_7  and  C_8 
REMARK    3  A    between atoms: C_8  and  C_9 
REMARK    4  A    between atoms: C_10  and  C_11 
REMARK    5  A    between atoms: C_16  and  C_17 
REMARK       I    between atoms: C_17  and  N_18 
REMARK    6  A    between atoms: N_18  and  C_19 
REMARK    7  A    between atoms: C_21  and  O_22 
REMARK    8  A    between atoms: O_22  and  C_23 
ROOT
HETATM    1  C   UNL     1      42.194 -29.869   1.808  1.00  0.00     0.256 C 
HETATM    2  N   UNL     1      43.490 -30.289   1.563  1.00  0.00    -0.323 N 
HETATM    3  O   UNL     1      41.720 -28.786   1.486  1.00  0.00    -0.267 OA
HETATM    4  H   UNL     1      43.768 -31.203   1.874  1.00  0.00     0.169 HD
ENDROOT
BRANCH   1   5
HETATM    5  C   UNL     1      41.292 -30.836   2.527  1.00  0.00     0.033 A 
HETATM    6  C   UNL     1      41.427 -30.945   3.923  1.00  0.00     0.034 A 
HETATM    7  C   UNL     1      40.631 -31.823   4.691  1.00  0.00     0.056 A 
HETATM    8  C   UNL     1      39.677 -32.626   4.027  1.00  0.00    -0.015 A 
HETATM    9  C   UNL     1      39.538 -32.508   2.632  1.00  0.00     0.011 A 
HETATM   10  C   UNL     1      40.336 -31.632   1.891  1.00  0.00     0.017 A 
BRANCH   7  11
HETATM   11  C   UNL     1      40.882 -31.896   6.187  1.00  0.00     0.418 C 
HETATM   12  F   UNL     1      39.776 -31.650   6.945  1.00  0.00    -0.166 F 
HETATM   13  F   UNL     1      41.346 -33.114   6.576  1.00  0.00    -0.166 F 
HETATM   14  F   UNL     1      41.808 -30.991   6.610  1.00  0.00    -0.166 F 
ENDBRANCH   7  11
BRANCH   8  15
HETATM   15  C   UNL     1      38.816 -33.642   4.752  1.00  0.00     0.312 C 
BRANCH  15  16
HETATM   16  N   UNL     1      37.596 -33.992   4.006  1.00  0.00     0.096 N 
HETATM   17  C   UNL     1      36.365 -33.380   4.541  1.00  0.00     0.300 C 
HETATM   18  C   UNL     1      35.892 -33.955   5.891  1.00  0.00     0.265 C 
HETATM   19  N   UNL     1      35.735 -35.469   5.807  1.00  0.00    -0.068 N 
HETATM   20  H   UNL     1      34.977 -35.651   5.136  1.00  0.00     0.280 HD
HETATM   21  C   UNL     1      36.984 -36.137   5.227  1.00  0.00     0.265 C 
HETATM   22  C   UNL     1      37.420 -35.455   3.914  1.00  0.00     0.300 C 
BRANCH  19  23
HETATM   23  C   UNL     1      35.357 -36.110   7.124  1.00  0.00     0.230 C 
HETATM   24  C   UNL     1      35.034 -35.066   8.177  1.00  0.00     0.034 C 
ENDBRANCH  19  23
ENDBRANCH  15  16
ENDBRANCH   8  15
ENDBRANCH   1   5
BRANCH   2  25
HETATM   25  C   UNL     1      44.498 -29.599   0.851  1.00  0.00     0.037 A 
HETATM   26  C   UNL     1      44.414 -29.252  -0.497  1.00  0.00     0.067 A 
HETATM   27  C   UNL     1      45.505 -28.645  -1.139  1.00  0.00     0.084 A 
HETATM   28  C   UNL     1      46.666 -28.312  -0.426  1.00  0.00    -0.028 A 
HETATM   29  C   UNL     1      47.811 -27.603  -1.091  1.00  0.00     0.051 C 
HETATM   30  C   UNL     1      46.728 -28.624   0.935  1.00  0.00     0.012 A 
HETATM   31  C   UNL     1      45.660 -29.272   1.561  1.00  0.00     0.030 A 
BRANCH  27  32
HETATM   32  O   UNL     1      45.451 -28.286  -2.469  1.00  0.00    -0.310 OA
BRANCH  32  33
HETATM   33  C   UNL     1      45.290 -29.273  -3.420  1.00  0.00     0.076 A 
HETATM   34  C   UNL     1      46.296 -30.247  -3.451  1.00  0.00     0.047 A 
HETATM   35  C   UNL     1      46.180 -31.270  -4.374  1.00  0.00    -0.020 A 
HETATM   36  C   UNL     1      45.091 -31.328  -5.239  1.00  0.00     0.041 A 
HETATM   37  C   UNL     1      47.090 -32.432  -4.639  1.00  0.00     0.144 A 
HETATM   38  N   UNL     1      45.213 -32.429  -6.070  1.00  0.00    -0.326 N 
HETATM   39  C   UNL     1      44.074 -30.398  -5.215  1.00  0.00     0.033 A 
HETATM   40  C   UNL     1      46.372 -33.143  -5.792  1.00  0.00     0.226 A 
HETATM   41  H   UNL     1      44.565 -32.701  -6.794  1.00  0.00     0.169 HD
HETATM   42  O   UNL     1      46.742 -34.153  -6.368  1.00  0.00    -0.273 OA
HETATM   43  C   UNL     1      44.172 -29.365  -4.277  1.00  0.00     0.039 A 
ENDBRANCH  32  33
ENDBRANCH  27  32
ENDBRANCH   2  25
TORSDOF 8
ENDMDL
