MODEL 1
REMARK VINA RESULT:      -7.9      0.000      0.000
REMARK  9 active torsions:
REMARK  status: ('A' for Active; 'I' for Inactive)
REMARK    1  A    between atoms: C_4  and  C_5 
REMARK    2  A    between atoms: C_7  and  O_8 
REMARK    3  A    between atoms: C_10  and  O_11 
REMARK    4  A    between atoms: C_16  and  C_17 
REMARK    5  A    between atoms: C_20  and  C_21 
REMARK    6  A    between atoms: C_21  and  N_22 
REMARK    7  A    between atoms: N_22  and  C_23 
REMARK    8  A    between atoms: C_23  and  N_24 
REMARK    9  A    between atoms: N_24  and  C_25 
ROOT
HETATM    1  C   UNL     1      40.659 -11.911   5.001  1.00  0.00     0.067 C 
HETATM    2  C   UNL     1      40.612 -13.390   5.445  1.00  0.00     0.001 C 
HETATM    3  C   UNL     1      41.778 -13.767   6.388  1.00  0.00     0.040 C 
HETATM    4  C   UNL     1      43.144 -13.549   5.710  1.00  0.00     0.206 C 
HETATM    5  N   UNL     1      42.874 -12.847   4.387  1.00  0.00    -0.065 N 
HETATM    6  H   UNL     1      43.800 -12.624   3.983  1.00  0.00     0.280 HD
HETATM    7  C   UNL     1      42.101 -11.558   4.570  1.00  0.00     0.246 C 
HETATM    8  C   UNL     1      40.839 -14.228   4.154  1.00  0.00     0.033 C 
HETATM    9  C   UNL     1      42.136 -13.788   3.452  1.00  0.00     0.236 C 
ENDROOT
BRANCH   4  10
HETATM   10  C   UNL     1      44.150 -12.779   6.600  1.00  0.00     0.155 C 
BRANCH  10  11
HETATM   11  N   UNL     1      43.588 -11.923   7.649  1.00  0.00    -0.365 N 
HETATM   12  H   UNL     1      42.852 -12.358   8.199  1.00  0.00     0.161 HD
BRANCH  11  13
HETATM   13  C   UNL     1      44.231 -10.920   8.324  1.00  0.00     0.172 C 
HETATM   14  S   UNL     1      45.751 -10.354   7.940  1.00  0.00    -0.041 SA
BRANCH  13  15
HETATM   15  N   UNL     1      43.487 -10.261   9.261  1.00  0.00    -0.333 N 
HETATM   16  H   UNL     1      42.921 -10.862   9.855  1.00  0.00     0.168 HD
BRANCH  15  17
HETATM   17  C   UNL     1      43.177  -8.875   9.357  1.00  0.00     0.045 A 
HETATM   18  C   UNL     1      43.016  -8.273  10.638  1.00  0.00     0.001 A 
HETATM   19  C   UNL     1      42.654  -6.902  10.702  1.00  0.00    -0.024 A 
HETATM   20  C   UNL     1      43.222  -8.946  11.869  1.00  0.00     0.014 A 
HETATM   21  C   UNL     1      42.495  -6.267  11.944  1.00  0.00     0.012 A 
HETATM   22  C   UNL     1      42.456  -6.171   9.523  1.00  0.00     0.012 A 
HETATM   23  C   UNL     1      42.693  -6.962  13.135  1.00  0.00     0.001 A 
HETATM   24  C   UNL     1      43.059  -8.300  13.098  1.00  0.00     0.001 A 
HETATM   25  C   UNL     1      42.595  -6.776   8.278  1.00  0.00     0.003 A 
HETATM   26  C   UNL     1      42.944  -8.120   8.196  1.00  0.00     0.030 A 
ENDBRANCH  15  17
ENDBRANCH  13  15
ENDBRANCH  11  13
ENDBRANCH  10  11
ENDBRANCH   4  10
BRANCH   1  27
HETATM   27  C   UNL     1      40.062 -10.806   5.828  1.00  0.00     0.038 C 
HETATM   28  N   UNL     1      39.124  -9.844   5.539  1.00  0.00    -0.277 N 
HETATM   29  C   UNL     1      38.504  -9.460   4.295  1.00  0.00     0.179 C 
HETATM   30  N   UNL     1      38.705  -9.175   6.628  1.00  0.00    -0.172 NA
HETATM   31  C   UNL     1      39.502  -9.562   7.628  1.00  0.00     0.089 C 
HETATM   32  C   UNL     1      40.372 -10.574   7.163  1.00  0.00     0.061 C 
BRANCH  31  33
HETATM   33  C   UNL     1      39.391  -9.010   8.983  1.00  0.00    -0.003 A 
HETATM   34  C   UNL     1      39.647  -9.816  10.104  1.00  0.00     0.053 A 
HETATM   35  C   UNL     1      39.579  -9.291  11.402  1.00  0.00     0.102 A 
HETATM   36  C   UNL     1      39.250  -7.934  11.590  1.00  0.00     0.101 A 
HETATM   37  C   UNL     1      38.976  -7.135  10.479  1.00  0.00     0.040 A 
HETATM   38  C   UNL     1      39.047  -7.668   9.188  1.00  0.00     0.017 A 
BRANCH  35  39
HETATM   39  O   UNL     1      39.830 -10.012  12.544  1.00  0.00    -0.353 OA
HETATM   40  C   UNL     1      39.078 -11.198  12.757  1.00  0.00     0.210 C 
ENDBRANCH  35  39
BRANCH  36  41
HETATM   41  O   UNL     1      39.214  -7.494  12.890  1.00  0.00    -0.353 OA
HETATM   42  C   UNL     1      37.982  -6.987  13.384  1.00  0.00     0.210 C 
ENDBRANCH  36  41
ENDBRANCH  31  33
ENDBRANCH   1  27
TORSDOF 9
ENDMDL
MODEL 2
REMARK VINA RESULT:      -7.7      0.883      1.850
REMARK  9 active torsions:
REMARK  status: ('A' for Active; 'I' for Inactive)
REMARK    1  A    between atoms: C_4  and  C_5 
REMARK    2  A    between atoms: C_7  and  O_8 
REMARK    3  A    between atoms: C_10  and  O_11 
REMARK    4  A    between atoms: C_16  and  C_17 
REMARK    5  A    between atoms: C_20  and  C_21 
REMARK    6  A    between atoms: C_21  and  N_22 
REMARK    7  A    between atoms: N_22  and  C_23 
REMARK    8  A    between atoms: C_23  and  N_24 
REMARK    9  A    between atoms: N_24  and  C_25 
ROOT
HETATM    1  C   UNL     1      40.281 -11.519   4.983  1.00  0.00     0.067 C 
HETATM    2  C   UNL     1      40.650 -12.921   5.515  1.00  0.00     0.001 C 
HETATM    3  C   UNL     1      42.100 -12.993   6.049  1.00  0.00     0.040 C 
HETATM    4  C   UNL     1      43.122 -12.651   4.949  1.00  0.00     0.206 C 
HETATM    5  N   UNL     1      42.331 -12.168   3.743  1.00  0.00    -0.065 N 
HETATM    6  H   UNL     1      43.027 -11.855   3.045  1.00  0.00     0.280 HD
HETATM    7  C   UNL     1      41.426 -11.002   4.082  1.00  0.00     0.246 C 
HETATM    8  C   UNL     1      40.618 -13.866   4.279  1.00  0.00     0.033 C 
HETATM    9  C   UNL     1      41.528 -13.319   3.165  1.00  0.00     0.236 C 
ENDROOT
BRANCH   4  10
HETATM   10  C   UNL     1      44.192 -11.631   5.410  1.00  0.00     0.155 C 
BRANCH  10  11
HETATM   11  N   UNL     1      44.717 -11.788   6.768  1.00  0.00    -0.365 N 
HETATM   12  H   UNL     1      45.435 -12.501   6.864  1.00  0.00     0.161 HD
BRANCH  11  13
HETATM   13  C   UNL     1      44.800 -10.821   7.735  1.00  0.00     0.172 C 
HETATM   14  S   UNL     1      46.098  -9.794   7.926  1.00  0.00    -0.041 SA
BRANCH  13  15
HETATM   15  N   UNL     1      43.665 -10.611   8.466  1.00  0.00    -0.333 N 
HETATM   16  H   UNL     1      42.817 -10.990   8.053  1.00  0.00     0.168 HD
BRANCH  15  17
HETATM   17  C   UNL     1      43.445  -9.724   9.558  1.00  0.00     0.045 A 
HETATM   18  C   UNL     1      43.011  -8.390   9.310  1.00  0.00     0.001 A 
HETATM   19  C   UNL     1      42.852  -7.513  10.415  1.00  0.00    -0.024 A 
HETATM   20  C   UNL     1      42.694  -7.879   8.026  1.00  0.00     0.014 A 
HETATM   21  C   UNL     1      42.417  -6.193  10.216  1.00  0.00     0.012 A 
HETATM   22  C   UNL     1      43.127  -7.961  11.713  1.00  0.00     0.012 A 
HETATM   23  C   UNL     1      42.126  -5.719   8.939  1.00  0.00     0.001 A 
HETATM   24  C   UNL     1      42.262  -6.562   7.844  1.00  0.00     0.001 A 
HETATM   25  C   UNL     1      43.571  -9.260  11.941  1.00  0.00     0.003 A 
HETATM   26  C   UNL     1      43.738 -10.131  10.870  1.00  0.00     0.030 A 
ENDBRANCH  15  17
ENDBRANCH  13  15
ENDBRANCH  11  13
ENDBRANCH  10  11
ENDBRANCH   4  10
BRANCH   1  27
HETATM   27  C   UNL     1      39.773 -10.427   5.884  1.00  0.00     0.038 C 
HETATM   28  N   UNL     1      38.899  -9.388   5.670  1.00  0.00    -0.277 N 
HETATM   29  C   UNL     1      38.287  -8.890   4.462  1.00  0.00     0.179 C 
HETATM   30  N   UNL     1      38.544  -8.758   6.803  1.00  0.00    -0.172 NA
HETATM   31  C   UNL     1      39.329  -9.256   7.764  1.00  0.00     0.089 C 
HETATM   32  C   UNL     1      40.120 -10.296   7.223  1.00  0.00     0.061 C 
BRANCH  31  33
HETATM   33  C   UNL     1      39.276  -8.780   9.150  1.00  0.00    -0.003 A 
HETATM   34  C   UNL     1      39.734  -9.591  10.201  1.00  0.00     0.053 A 
HETATM   35  C   UNL     1      39.723  -9.133  11.525  1.00  0.00     0.102 A 
HETATM   36  C   UNL     1      39.247  -7.838  11.813  1.00  0.00     0.101 A 
HETATM   37  C   UNL     1      38.774  -7.035  10.773  1.00  0.00     0.040 A 
HETATM   38  C   UNL     1      38.790  -7.502   9.454  1.00  0.00     0.017 A 
BRANCH  35  39
HETATM   39  O   UNL     1      40.166  -9.862  12.602  1.00  0.00    -0.353 OA
HETATM   40  C   UNL     1      39.379 -10.967  13.023  1.00  0.00     0.210 C 
ENDBRANCH  35  39
BRANCH  36  41
HETATM   41  O   UNL     1      39.278  -7.460  13.132  1.00  0.00    -0.353 OA
HETATM   42  C   UNL     1      40.035  -6.307  13.472  1.00  0.00     0.210 C 
ENDBRANCH  36  41
ENDBRANCH  31  33
ENDBRANCH   1  27
TORSDOF 9
ENDMDL
MODEL 3
REMARK VINA RESULT:      -7.7      3.081      7.601
REMARK  9 active torsions:
REMARK  status: ('A' for Active; 'I' for Inactive)
REMARK    1  A    between atoms: C_4  and  C_5 
REMARK    2  A    between atoms: C_7  and  O_8 
REMARK    3  A    between atoms: C_10  and  O_11 
REMARK    4  A    between atoms: C_16  and  C_17 
REMARK    5  A    between atoms: C_20  and  C_21 
REMARK    6  A    between atoms: C_21  and  N_22 
REMARK    7  A    between atoms: N_22  and  C_23 
REMARK    8  A    between atoms: C_23  and  N_24 
REMARK    9  A    between atoms: N_24  and  C_25 
ROOT
HETATM    1  C   UNL     1      43.161 -10.459   6.270  1.00  0.00     0.067 C 
HETATM    2  C   UNL     1      41.806 -10.118   5.610  1.00  0.00     0.001 C 
HETATM    3  C   UNL     1      40.736 -11.208   5.850  1.00  0.00     0.040 C 
HETATM    4  C   UNL     1      41.180 -12.568   5.280  1.00  0.00     0.206 C 
HETATM    5  N   UNL     1      42.626 -12.412   4.835  1.00  0.00    -0.065 N 
HETATM    6  H   UNL     1      42.942 -13.351   4.539  1.00  0.00     0.280 HD
HETATM    7  C   UNL     1      43.521 -11.929   5.957  1.00  0.00     0.246 C 
HETATM    8  C   UNL     1      42.068 -10.128   4.076  1.00  0.00     0.033 C 
HETATM    9  C   UNL     1      42.695 -11.467   3.649  1.00  0.00     0.236 C 
ENDROOT
BRANCH   4  10
HETATM   10  C   UNL     1      40.985 -13.739   6.276  1.00  0.00     0.155 C 
BRANCH  10  11
HETATM   11  N   UNL     1      41.631 -15.010   5.940  1.00  0.00    -0.365 N 
HETATM   12  H   UNL     1      41.454 -15.336   4.993  1.00  0.00     0.161 HD
BRANCH  11  13
HETATM   13  C   UNL     1      42.800 -15.501   6.459  1.00  0.00     0.172 C 
HETATM   14  S   UNL     1      43.058 -15.789   8.079  1.00  0.00    -0.041 SA
BRANCH  13  15
HETATM   15  N   UNL     1      43.728 -15.915   5.546  1.00  0.00    -0.333 N 
HETATM   16  H   UNL     1      44.664 -15.546   5.692  1.00  0.00     0.168 HD
BRANCH  15  17
HETATM   17  C   UNL     1      43.535 -16.555   4.289  1.00  0.00     0.045 A 
HETATM   18  C   UNL     1      43.684 -17.968   4.184  1.00  0.00     0.001 A 
HETATM   19  C   UNL     1      43.539 -18.571   2.907  1.00  0.00    -0.024 A 
HETATM   20  C   UNL     1      43.942 -18.828   5.281  1.00  0.00     0.014 A 
HETATM   21  C   UNL     1      43.669 -19.962   2.761  1.00  0.00     0.012 A 
HETATM   22  C   UNL     1      43.262 -17.782   1.784  1.00  0.00     0.012 A 
HETATM   23  C   UNL     1      43.935 -20.776   3.859  1.00  0.00     0.001 A 
HETATM   24  C   UNL     1      44.068 -20.210   5.119  1.00  0.00     0.001 A 
HETATM   25  C   UNL     1      43.140 -16.400   1.895  1.00  0.00     0.003 A 
HETATM   26  C   UNL     1      43.285 -15.792   3.137  1.00  0.00     0.030 A 
ENDBRANCH  15  17
ENDBRANCH  13  15
ENDBRANCH  11  13
ENDBRANCH  10  11
ENDBRANCH   4  10
BRANCH   1  27
HETATM   27  C   UNL     1      43.459 -10.128   7.706  1.00  0.00     0.038 C 
HETATM   28  N   UNL     1      44.635 -10.076   8.415  1.00  0.00    -0.277 N 
HETATM   29  C   UNL     1      45.977 -10.473   8.065  1.00  0.00     0.179 C 
HETATM   30  N   UNL     1      44.491  -9.527   9.634  1.00  0.00    -0.172 NA
HETATM   31  C   UNL     1      43.175  -9.381   9.819  1.00  0.00     0.089 C 
HETATM   32  C   UNL     1      42.496  -9.758   8.638  1.00  0.00     0.061 C 
BRANCH  31  33
HETATM   33  C   UNL     1      42.609  -8.853  11.065  1.00  0.00    -0.003 A 
HETATM   34  C   UNL     1      41.225  -8.654  11.192  1.00  0.00     0.053 A 
HETATM   35  C   UNL     1      40.669  -8.185  12.389  1.00  0.00     0.102 A 
HETATM   36  C   UNL     1      41.507  -7.909  13.488  1.00  0.00     0.101 A 
HETATM   37  C   UNL     1      42.886  -8.088  13.360  1.00  0.00     0.040 A 
HETATM   38  C   UNL     1      43.431  -8.556  12.160  1.00  0.00     0.017 A 
BRANCH  35  39
HETATM   39  O   UNL     1      39.326  -7.980  12.593  1.00  0.00    -0.353 OA
HETATM   40  C   UNL     1      38.650  -7.098  11.709  1.00  0.00     0.210 C 
ENDBRANCH  35  39
BRANCH  36  41
HETATM   41  O   UNL     1      40.885  -7.463  14.628  1.00  0.00    -0.353 OA
HETATM   42  C   UNL     1      41.224  -6.169  15.104  1.00  0.00     0.210 C 
ENDBRANCH  36  41
ENDBRANCH  31  33
ENDBRANCH   1  27
TORSDOF 9
ENDMDL
MODEL 4
REMARK VINA RESULT:      -7.6      4.009      8.041
REMARK  9 active torsions:
REMARK  status: ('A' for Active; 'I' for Inactive)
REMARK    1  A    between atoms: C_4  and  C_5 
REMARK    2  A    between atoms: C_7  and  O_8 
REMARK    3  A    between atoms: C_10  and  O_11 
REMARK    4  A    between atoms: C_16  and  C_17 
REMARK    5  A    between atoms: C_20  and  C_21 
REMARK    6  A    between atoms: C_21  and  N_22 
REMARK    7  A    between atoms: N_22  and  C_23 
REMARK    8  A    between atoms: C_23  and  N_24 
REMARK    9  A    between atoms: N_24  and  C_25 
ROOT
HETATM    1  C   UNL     1      40.377 -10.730  -0.218  1.00  0.00     0.067 C 
HETATM    2  C   UNL     1      38.976 -11.122  -0.738  1.00  0.00     0.001 C 
HETATM    3  C   UNL     1      38.617 -12.594  -0.430  1.00  0.00     0.040 C 
HETATM    4  C   UNL     1      39.620 -13.566  -1.078  1.00  0.00     0.206 C 
HETATM    5  N   UNL     1      40.749 -12.722  -1.652  1.00  0.00    -0.065 N 
HETATM    6  H   UNL     1      41.459 -13.386  -2.002  1.00  0.00     0.280 HD
HETATM    7  C   UNL     1      41.388 -11.834  -0.605  1.00  0.00     0.246 C 
HETATM    8  C   UNL     1      39.061 -11.034  -2.289  1.00  0.00     0.033 C 
HETATM    9  C   UNL     1      40.226 -11.893  -2.811  1.00  0.00     0.236 C 
ENDROOT
BRANCH   4  10
HETATM   10  C   UNL     1      40.128 -14.657  -0.102  1.00  0.00     0.155 C 
BRANCH  10  11
HETATM   11  N   UNL     1      39.690 -14.555   1.292  1.00  0.00    -0.365 N 
HETATM   12  H   UNL     1      38.968 -15.220   1.558  1.00  0.00     0.161 HD
BRANCH  11  13
HETATM   13  C   UNL     1      40.436 -14.129   2.359  1.00  0.00     0.172 C 
HETATM   14  S   UNL     1      39.801 -13.398   3.715  1.00  0.00    -0.041 SA
BRANCH  13  15
HETATM   15  N   UNL     1      41.754 -14.487   2.344  1.00  0.00    -0.333 N 
HETATM   16  H   UNL     1      42.353 -13.882   1.788  1.00  0.00     0.168 HD
BRANCH  15  17
HETATM   17  C   UNL     1      42.364 -15.706   2.755  1.00  0.00     0.045 A 
HETATM   18  C   UNL     1      42.997 -15.785   4.029  1.00  0.00     0.001 A 
HETATM   19  C   UNL     1      43.644 -16.997   4.389  1.00  0.00    -0.024 A 
HETATM   20  C   UNL     1      43.004 -14.738   4.985  1.00  0.00     0.014 A 
HETATM   21  C   UNL     1      44.272 -17.121   5.638  1.00  0.00     0.012 A 
HETATM   22  C   UNL     1      43.656 -18.079   3.500  1.00  0.00     0.012 A 
HETATM   23  C   UNL     1      44.271 -16.068   6.549  1.00  0.00     0.001 A 
HETATM   24  C   UNL     1      43.634 -14.878   6.225  1.00  0.00     0.001 A 
HETATM   25  C   UNL     1      43.052 -17.982   2.250  1.00  0.00     0.003 A 
HETATM   26  C   UNL     1      42.419 -16.801   1.878  1.00  0.00     0.030 A 
ENDBRANCH  15  17
ENDBRANCH  13  15
ENDBRANCH  11  13
ENDBRANCH  10  11
ENDBRANCH   4  10
BRANCH   1  27
HETATM   27  C   UNL     1      40.607 -10.265   1.194  1.00  0.00     0.038 C 
HETATM   28  N   UNL     1      39.887  -9.434   2.019  1.00  0.00    -0.277 N 
HETATM   29  C   UNL     1      38.743  -8.594   1.761  1.00  0.00     0.179 C 
HETATM   30  N   UNL     1      40.326  -9.444   3.289  1.00  0.00    -0.172 NA
HETATM   31  C   UNL     1      41.466 -10.143   3.280  1.00  0.00     0.089 C 
HETATM   32  C   UNL     1      41.680 -10.663   1.982  1.00  0.00     0.061 C 
BRANCH  31  33
HETATM   33  C   UNL     1      42.280 -10.338   4.484  1.00  0.00    -0.003 A 
HETATM   34  C   UNL     1      41.907  -9.746   5.701  1.00  0.00     0.053 A 
HETATM   35  C   UNL     1      42.657  -9.954   6.866  1.00  0.00     0.102 A 
HETATM   36  C   UNL     1      43.804 -10.772   6.822  1.00  0.00     0.101 A 
HETATM   37  C   UNL     1      44.188 -11.348   5.610  1.00  0.00     0.040 A 
HETATM   38  C   UNL     1      43.433 -11.134   4.452  1.00  0.00     0.017 A 
BRANCH  35  39
HETATM   39  O   UNL     1      42.347  -9.421   8.094  1.00  0.00    -0.353 OA
HETATM   40  C   UNL     1      40.981  -9.149   8.372  1.00  0.00     0.210 C 
ENDBRANCH  35  39
BRANCH  36  41
HETATM   41  O   UNL     1      44.478 -10.935   8.006  1.00  0.00    -0.353 OA
HETATM   42  C   UNL     1      45.887 -10.762   7.995  1.00  0.00     0.210 C 
ENDBRANCH  36  41
ENDBRANCH  31  33
ENDBRANCH   1  27
TORSDOF 9
ENDMDL
MODEL 5
REMARK VINA RESULT:      -7.6      3.806      7.235
REMARK  9 active torsions:
REMARK  status: ('A' for Active; 'I' for Inactive)
REMARK    1  A    between atoms: C_4  and  C_5 
REMARK    2  A    between atoms: C_7  and  O_8 
REMARK    3  A    between atoms: C_10  and  O_11 
REMARK    4  A    between atoms: C_16  and  C_17 
REMARK    5  A    between atoms: C_20  and  C_21 
REMARK    6  A    between atoms: C_21  and  N_22 
REMARK    7  A    between atoms: N_22  and  C_23 
REMARK    8  A    between atoms: C_23  and  N_24 
REMARK    9  A    between atoms: N_24  and  C_25 
ROOT
HETATM    1  C   UNL     1      40.164 -12.065   2.797  1.00  0.00     0.067 C 
HETATM    2  C   UNL     1      41.034 -10.795   2.672  1.00  0.00     0.001 C 
HETATM    3  C   UNL     1      41.867 -10.516   3.945  1.00  0.00     0.040 C 
HETATM    4  C   UNL     1      40.964 -10.318   5.177  1.00  0.00     0.206 C 
HETATM    5  N   UNL     1      39.545 -10.658   4.746  1.00  0.00    -0.065 N 
HETATM    6  H   UNL     1      38.963 -10.611   5.599  1.00  0.00     0.280 HD
HETATM    7  C   UNL     1      39.442 -12.052   4.164  1.00  0.00     0.246 C 
HETATM    8  C   UNL     1      40.036  -9.606   2.565  1.00  0.00     0.033 C 
HETATM    9  C   UNL     1      39.054  -9.624   3.749  1.00  0.00     0.236 C 
ENDROOT
BRANCH   4  10
HETATM   10  C   UNL     1      41.427 -11.137   6.408  1.00  0.00     0.155 C 
BRANCH  10  11
HETATM   11  N   UNL     1      42.786 -11.683   6.368  1.00  0.00    -0.365 N 
HETATM   12  H   UNL     1      43.088 -11.996   5.449  1.00  0.00     0.161 HD
BRANCH  11  13
HETATM   13  C   UNL     1      43.833 -11.342   7.183  1.00  0.00     0.172 C 
HETATM   14  S   UNL     1      45.416 -11.228   6.677  1.00  0.00    -0.041 SA
BRANCH  13  15
HETATM   15  N   UNL     1      43.498 -10.923   8.440  1.00  0.00    -0.333 N 
HETATM   16  H   UNL     1      43.075 -11.636   9.028  1.00  0.00     0.168 HD
BRANCH  15  17
HETATM   17  C   UNL     1      43.400  -9.599   8.954  1.00  0.00     0.045 A 
HETATM   18  C   UNL     1      43.173  -9.396  10.345  1.00  0.00     0.001 A 
HETATM   19  C   UNL     1      43.026  -8.066  10.821  1.00  0.00    -0.024 A 
HETATM   20  C   UNL     1      43.111 -10.438  11.305  1.00  0.00     0.014 A 
HETATM   21  C   UNL     1      42.810  -7.821  12.186  1.00  0.00     0.012 A 
HETATM   22  C   UNL     1      43.098  -6.989   9.929  1.00  0.00     0.012 A 
HETATM   23  C   UNL     1      42.743  -8.870  13.101  1.00  0.00     0.001 A 
HETATM   24  C   UNL     1      42.896 -10.177  12.662  1.00  0.00     0.001 A 
HETATM   25  C   UNL     1      43.298  -7.201   8.569  1.00  0.00     0.003 A 
HETATM   26  C   UNL     1      43.439  -8.497   8.084  1.00  0.00     0.030 A 
ENDBRANCH  15  17
ENDBRANCH  13  15
ENDBRANCH  11  13
ENDBRANCH  10  11
ENDBRANCH   4  10
BRANCH   1  27
HETATM   27  C   UNL     1      40.698 -13.436   2.486  1.00  0.00     0.038 C 
HETATM   28  N   UNL     1      40.780 -14.148   1.313  1.00  0.00    -0.277 N 
HETATM   29  C   UNL     1      40.237 -13.891   0.002  1.00  0.00     0.179 C 
HETATM   30  N   UNL     1      41.526 -15.262   1.425  1.00  0.00    -0.172 NA
HETATM   31  C   UNL     1      41.793 -15.397   2.728  1.00  0.00     0.089 C 
HETATM   32  C   UNL     1      41.281 -14.279   3.425  1.00  0.00     0.061 C 
BRANCH  31  33
HETATM   33  C   UNL     1      42.552 -16.533   3.262  1.00  0.00    -0.003 A 
HETATM   34  C   UNL     1      42.845 -16.613   4.633  1.00  0.00     0.053 A 
HETATM   35  C   UNL     1      43.538 -17.710   5.161  1.00  0.00     0.102 A 
HETATM   36  C   UNL     1      43.948 -18.754   4.308  1.00  0.00     0.101 A 
HETATM   37  C   UNL     1      43.674 -18.669   2.941  1.00  0.00     0.040 A 
HETATM   38  C   UNL     1      42.982 -17.569   2.424  1.00  0.00     0.017 A 
BRANCH  35  39
HETATM   39  O   UNL     1      43.848 -17.866   6.490  1.00  0.00    -0.353 OA
HETATM   40  C   UNL     1      43.846 -16.706   7.310  1.00  0.00     0.210 C 
ENDBRANCH  35  39
BRANCH  36  41
HETATM   41  O   UNL     1      44.611 -19.798   4.902  1.00  0.00    -0.353 OA
HETATM   42  C   UNL     1      43.895 -21.007   5.107  1.00  0.00     0.210 C 
ENDBRANCH  36  41
ENDBRANCH  31  33
ENDBRANCH   1  27
TORSDOF 9
ENDMDL
MODEL 6
REMARK VINA RESULT:      -7.5      9.576     12.874
REMARK  9 active torsions:
REMARK  status: ('A' for Active; 'I' for Inactive)
REMARK    1  A    between atoms: C_4  and  C_5 
REMARK    2  A    between atoms: C_7  and  O_8 
REMARK    3  A    between atoms: C_10  and  O_11 
REMARK    4  A    between atoms: C_16  and  C_17 
REMARK    5  A    between atoms: C_20  and  C_21 
REMARK    6  A    between atoms: C_21  and  N_22 
REMARK    7  A    between atoms: N_22  and  C_23 
REMARK    8  A    between atoms: C_23  and  N_24 
REMARK    9  A    between atoms: N_24  and  C_25 
ROOT
HETATM    1  C   UNL     1      40.022 -11.516  -2.933  1.00  0.00     0.067 C 
HETATM    2  C   UNL     1      38.725 -11.841  -2.159  1.00  0.00     0.001 C 
HETATM    3  C   UNL     1      38.988 -12.180  -0.673  1.00  0.00     0.040 C 
HETATM    4  C   UNL     1      39.911 -13.404  -0.529  1.00  0.00     0.206 C 
HETATM    5  N   UNL     1      40.408 -13.751  -1.925  1.00  0.00    -0.065 N 
HETATM    6  H   UNL     1      41.096 -14.514  -1.807  1.00  0.00     0.280 HD
HETATM    7  C   UNL     1      41.092 -12.579  -2.597  1.00  0.00     0.246 C 
HETATM    8  C   UNL     1      38.172 -13.151  -2.789  1.00  0.00     0.033 C 
HETATM    9  C   UNL     1      39.249 -14.251  -2.769  1.00  0.00     0.236 C 
ENDROOT
BRANCH   4  10
HETATM   10  C   UNL     1      41.067 -13.181   0.478  1.00  0.00     0.155 C 
BRANCH  10  11
HETATM   11  N   UNL     1      41.936 -14.328   0.753  1.00  0.00    -0.365 N 
HETATM   12  H   UNL     1      42.927 -14.149   0.611  1.00  0.00     0.161 HD
BRANCH  11  13
HETATM   13  C   UNL     1      41.703 -15.341   1.644  1.00  0.00     0.172 C 
HETATM   14  S   UNL     1      40.211 -15.691   2.298  1.00  0.00    -0.041 SA
BRANCH  13  15
HETATM   15  N   UNL     1      42.749 -16.193   1.863  1.00  0.00    -0.333 N 
HETATM   16  H   UNL     1      43.102 -16.657   1.030  1.00  0.00     0.168 HD
BRANCH  15  17
HETATM   17  C   UNL     1      43.234 -16.731   3.089  1.00  0.00     0.045 A 
HETATM   18  C   UNL     1      43.437 -18.135   3.214  1.00  0.00     0.001 A 
HETATM   19  C   UNL     1      43.870 -18.649   4.465  1.00  0.00    -0.024 A 
HETATM   20  C   UNL     1      43.262 -19.065   2.158  1.00  0.00     0.014 A 
HETATM   21  C   UNL     1      44.090 -20.026   4.629  1.00  0.00     0.012 A 
HETATM   22  C   UNL     1      44.084 -17.782   5.545  1.00  0.00     0.012 A 
HETATM   23  C   UNL     1      43.897 -20.913   3.573  1.00  0.00     0.001 A 
HETATM   24  C   UNL     1      43.485 -20.434   2.337  1.00  0.00     0.001 A 
HETATM   25  C   UNL     1      43.862 -16.414   5.416  1.00  0.00     0.003 A 
HETATM   26  C   UNL     1      43.432 -15.895   4.200  1.00  0.00     0.030 A 
ENDBRANCH  15  17
ENDBRANCH  13  15
ENDBRANCH  11  13
ENDBRANCH  10  11
ENDBRANCH   4  10
BRANCH   1  27
HETATM   27  C   UNL     1      40.623 -10.138  -2.949  1.00  0.00     0.038 C 
HETATM   28  N   UNL     1      41.330  -9.430  -2.007  1.00  0.00    -0.277 N 
HETATM   29  C   UNL     1      41.604  -9.704  -0.617  1.00  0.00     0.179 C 
HETATM   30  N   UNL     1      41.877  -8.303  -2.496  1.00  0.00    -0.172 NA
HETATM   31  C   UNL     1      41.378  -8.156  -3.727  1.00  0.00     0.089 C 
HETATM   32  C   UNL     1      40.580  -9.280  -4.042  1.00  0.00     0.061 C 
BRANCH  31  33
HETATM   33  C   UNL     1      41.702  -7.004  -4.576  1.00  0.00    -0.003 A 
HETATM   34  C   UNL     1      42.833  -7.027  -5.408  1.00  0.00     0.053 A 
HETATM   35  C   UNL     1      43.133  -5.948  -6.250  1.00  0.00     0.102 A 
HETATM   36  C   UNL     1      42.289  -4.820  -6.266  1.00  0.00     0.101 A 
HETATM   37  C   UNL     1      41.174  -4.785  -5.427  1.00  0.00     0.040 A 
HETATM   38  C   UNL     1      40.884  -5.868  -4.590  1.00  0.00     0.017 A 
BRANCH  35  39
HETATM   39  O   UNL     1      44.210  -5.904  -7.101  1.00  0.00    -0.353 OA
HETATM   40  C   UNL     1      44.104  -6.589  -8.340  1.00  0.00     0.210 C 
ENDBRANCH  35  39
BRANCH  36  41
HETATM   41  O   UNL     1      42.644  -3.809  -7.125  1.00  0.00    -0.353 OA
HETATM   42  C   UNL     1      41.787  -2.680  -7.210  1.00  0.00     0.210 C 
ENDBRANCH  36  41
ENDBRANCH  31  33
ENDBRANCH   1  27
TORSDOF 9
ENDMDL
MODEL 7
REMARK VINA RESULT:      -7.5      3.842      7.392
REMARK  9 active torsions:
REMARK  status: ('A' for Active; 'I' for Inactive)
REMARK    1  A    between atoms: C_4  and  C_5 
REMARK    2  A    between atoms: C_7  and  O_8 
REMARK    3  A    between atoms: C_10  and  O_11 
REMARK    4  A    between atoms: C_16  and  C_17 
REMARK    5  A    between atoms: C_20  and  C_21 
REMARK    6  A    between atoms: C_21  and  N_22 
REMARK    7  A    between atoms: N_22  and  C_23 
REMARK    8  A    between atoms: C_23  and  N_24 
REMARK    9  A    between atoms: N_24  and  C_25 
ROOT
HETATM    1  C   UNL     1      39.507 -12.152   3.517  1.00  0.00     0.067 C 
HETATM    2  C   UNL     1      39.960 -10.724   3.141  1.00  0.00     0.001 C 
HETATM    3  C   UNL     1      41.128 -10.217   4.019  1.00  0.00     0.040 C 
HETATM    4  C   UNL     1      40.739 -10.184   5.509  1.00  0.00     0.206 C 
HETATM    5  N   UNL     1      39.376 -10.850   5.627  1.00  0.00    -0.065 N 
HETATM    6  H   UNL     1      39.165 -10.905   6.638  1.00  0.00     0.280 HD
HETATM    7  C   UNL     1      39.373 -12.252   5.054  1.00  0.00     0.246 C 
HETATM    8  C   UNL     1      38.757  -9.795   3.480  1.00  0.00     0.033 C 
HETATM    9  C   UNL     1      38.327  -9.990   4.944  1.00  0.00     0.236 C 
ENDROOT
BRANCH   4  10
HETATM   10  C   UNL     1      41.802 -10.831   6.431  1.00  0.00     0.155 C 
BRANCH  10  11
HETATM   11  N   UNL     1      42.893  -9.969   6.891  1.00  0.00    -0.365 N 
HETATM   12  H   UNL     1      42.601  -9.043   7.194  1.00  0.00     0.161 HD
BRANCH  11  13
HETATM   13  C   UNL     1      44.069 -10.368   7.470  1.00  0.00     0.172 C 
HETATM   14  S   UNL     1      45.078 -11.533   6.837  1.00  0.00    -0.041 SA
BRANCH  13  15
HETATM   15  N   UNL     1      44.483  -9.633   8.545  1.00  0.00    -0.333 N 
HETATM   16  H   UNL     1      45.440  -9.297   8.488  1.00  0.00     0.168 HD
BRANCH  15  17
HETATM   17  C   UNL     1      43.884  -9.495   9.829  1.00  0.00     0.045 A 
HETATM   18  C   UNL     1      43.386  -8.227  10.244  1.00  0.00     0.001 A 
HETATM   19  C   UNL     1      42.843  -8.107  11.551  1.00  0.00    -0.024 A 
HETATM   20  C   UNL     1      43.366  -7.069   9.426  1.00  0.00     0.014 A 
HETATM   21  C   UNL     1      42.332  -6.877  11.997  1.00  0.00     0.012 A 
HETATM   22  C   UNL     1      42.811  -9.218  12.404  1.00  0.00     0.012 A 
HETATM   23  C   UNL     1      42.340  -5.756  11.171  1.00  0.00     0.001 A 
HETATM   24  C   UNL     1      42.854  -5.852   9.885  1.00  0.00     0.001 A 
HETATM   25  C   UNL     1      43.321 -10.446  11.994  1.00  0.00     0.003 A 
HETATM   26  C   UNL     1      43.861 -10.580  10.720  1.00  0.00     0.030 A 
ENDBRANCH  15  17
ENDBRANCH  13  15
ENDBRANCH  11  13
ENDBRANCH  10  11
ENDBRANCH   4  10
BRANCH   1  27
HETATM   27  C   UNL     1      40.174 -13.378   2.957  1.00  0.00     0.038 C 
HETATM   28  N   UNL     1      40.358 -13.819   1.668  1.00  0.00    -0.277 N 
HETATM   29  C   UNL     1      39.834 -13.338   0.413  1.00  0.00     0.179 C 
HETATM   30  N   UNL     1      41.198 -14.865   1.585  1.00  0.00    -0.172 NA
HETATM   31  C   UNL     1      41.436 -15.248   2.843  1.00  0.00     0.089 C 
HETATM   32  C   UNL     1      40.802 -14.347   3.730  1.00  0.00     0.061 C 
BRANCH  31  33
HETATM   33  C   UNL     1      42.279 -16.403   3.169  1.00  0.00    -0.003 A 
HETATM   34  C   UNL     1      42.881 -16.514   4.433  1.00  0.00     0.053 A 
HETATM   35  C   UNL     1      43.658 -17.630   4.768  1.00  0.00     0.102 A 
HETATM   36  C   UNL     1      43.843 -18.662   3.826  1.00  0.00     0.101 A 
HETATM   37  C   UNL     1      43.262 -18.547   2.562  1.00  0.00     0.040 A 
HETATM   38  C   UNL     1      42.487 -17.428   2.237  1.00  0.00     0.017 A 
BRANCH  35  39
HETATM   39  O   UNL     1      44.265 -17.815   5.987  1.00  0.00    -0.353 OA
HETATM   40  C   UNL     1      43.528 -17.472   7.151  1.00  0.00     0.210 C 
ENDBRANCH  35  39
BRANCH  36  41
HETATM   41  O   UNL     1      44.608 -19.725   4.234  1.00  0.00    -0.353 OA
HETATM   42  C   UNL     1      43.945 -20.948   4.519  1.00  0.00     0.210 C 
ENDBRANCH  36  41
ENDBRANCH  31  33
ENDBRANCH   1  27
TORSDOF 9
ENDMDL
MODEL 8
REMARK VINA RESULT:      -7.4      5.122      9.895
REMARK  9 active torsions:
REMARK  status: ('A' for Active; 'I' for Inactive)
REMARK    1  A    between atoms: C_4  and  C_5 
REMARK    2  A    between atoms: C_7  and  O_8 
REMARK    3  A    between atoms: C_10  and  O_11 
REMARK    4  A    between atoms: C_16  and  C_17 
REMARK    5  A    between atoms: C_20  and  C_21 
REMARK    6  A    between atoms: C_21  and  N_22 
REMARK    7  A    between atoms: N_22  and  C_23 
REMARK    8  A    between atoms: C_23  and  N_24 
REMARK    9  A    between atoms: N_24  and  C_25 
ROOT
HETATM    1  C   UNL     1      39.147  -9.669   5.414  1.00  0.00     0.067 C 
HETATM    2  C   UNL     1      40.196  -8.639   5.887  1.00  0.00     0.001 C 
HETATM    3  C   UNL     1      41.635  -9.206   5.876  1.00  0.00     0.040 C 
HETATM    4  C   UNL     1      41.764 -10.431   6.801  1.00  0.00     0.206 C 
HETATM    5  N   UNL     1      40.360 -10.782   7.271  1.00  0.00    -0.065 N 
HETATM    6  H   UNL     1      40.446 -11.657   7.815  1.00  0.00     0.280 HD
HETATM    7  C   UNL     1      39.413 -11.021   6.114  1.00  0.00     0.246 C 
HETATM    8  C   UNL     1      39.873  -8.363   7.384  1.00  0.00     0.033 C 
HETATM    9  C   UNL     1      39.835  -9.682   8.175  1.00  0.00     0.236 C 
ENDROOT
BRANCH   4  10
HETATM   10  C   UNL     1      42.486 -11.626   6.130  1.00  0.00     0.155 C 
BRANCH  10  11
HETATM   11  N   UNL     1      42.385 -12.924   6.803  1.00  0.00    -0.365 N 
HETATM   12  H   UNL     1      42.019 -12.880   7.751  1.00  0.00     0.161 HD
BRANCH  11  13
HETATM   13  C   UNL     1      42.181 -14.143   6.213  1.00  0.00     0.172 C 
HETATM   14  S   UNL     1      40.752 -14.995   6.290  1.00  0.00    -0.041 SA
BRANCH  13  15
HETATM   15  N   UNL     1      43.180 -14.579   5.388  1.00  0.00    -0.333 N 
HETATM   16  H   UNL     1      44.106 -14.230   5.619  1.00  0.00     0.168 HD
BRANCH  15  17
HETATM   17  C   UNL     1      43.088 -15.215   4.118  1.00  0.00     0.045 A 
HETATM   18  C   UNL     1      43.400 -16.600   3.996  1.00  0.00     0.001 A 
HETATM   19  C   UNL     1      43.352 -17.194   2.708  1.00  0.00    -0.024 A 
HETATM   20  C   UNL     1      43.731 -17.443   5.087  1.00  0.00     0.014 A 
HETATM   21  C   UNL     1      43.643 -18.558   2.545  1.00  0.00     0.012 A 
HETATM   22  C   UNL     1      43.010 -16.423   1.590  1.00  0.00     0.012 A 
HETATM   23  C   UNL     1      43.978 -19.355   3.637  1.00  0.00     0.001 A 
HETATM   24  C   UNL     1      44.019 -18.799   4.908  1.00  0.00     0.001 A 
HETATM   25  C   UNL     1      42.728 -15.067   1.718  1.00  0.00     0.003 A 
HETATM   26  C   UNL     1      42.776 -14.466   2.971  1.00  0.00     0.030 A 
ENDBRANCH  15  17
ENDBRANCH  13  15
ENDBRANCH  11  13
ENDBRANCH  10  11
ENDBRANCH   4  10
BRANCH   1  27
HETATM   27  C   UNL     1      38.823  -9.873   3.960  1.00  0.00     0.038 C 
HETATM   28  N   UNL     1      38.243  -9.054   3.021  1.00  0.00    -0.277 N 
HETATM   29  C   UNL     1      37.598  -7.770   3.145  1.00  0.00     0.179 C 
HETATM   30  N   UNL     1      38.329  -9.542   1.771  1.00  0.00    -0.172 NA
HETATM   31  C   UNL     1      38.805 -10.786   1.893  1.00  0.00     0.089 C 
HETATM   32  C   UNL     1      39.115 -11.033   3.250  1.00  0.00     0.061 C 
BRANCH  31  33
HETATM   33  C   UNL     1      38.995 -11.673   0.740  1.00  0.00    -0.003 A 
HETATM   34  C   UNL     1      38.595 -11.270  -0.544  1.00  0.00     0.053 A 
HETATM   35  C   UNL     1      38.805 -12.093  -1.658  1.00  0.00     0.102 A 
HETATM   36  C   UNL     1      39.428 -13.346  -1.493  1.00  0.00     0.101 A 
HETATM   37  C   UNL     1      39.811 -13.758  -0.216  1.00  0.00     0.040 A 
HETATM   38  C   UNL     1      39.597 -12.929   0.890  1.00  0.00     0.017 A 
BRANCH  35  39
HETATM   39  O   UNL     1      38.454 -11.762  -2.944  1.00  0.00    -0.353 OA
HETATM   40  C   UNL     1      38.774 -10.456  -3.402  1.00  0.00     0.210 C 
ENDBRANCH  35  39
BRANCH  36  41
HETATM   41  O   UNL     1      39.607 -14.088  -2.634  1.00  0.00    -0.353 OA
HETATM   42  C   UNL     1      38.816 -15.257  -2.794  1.00  0.00     0.210 C 
ENDBRANCH  36  41
ENDBRANCH  31  33
ENDBRANCH   1  27
TORSDOF 9
ENDMDL
MODEL 9
REMARK VINA RESULT:      -7.4      2.986      7.612
REMARK  9 active torsions:
REMARK  status: ('A' for Active; 'I' for Inactive)
REMARK    1  A    between atoms: C_4  and  C_5 
REMARK    2  A    between atoms: C_7  and  O_8 
REMARK    3  A    between atoms: C_10  and  O_11 
REMARK    4  A    between atoms: C_16  and  C_17 
REMARK    5  A    between atoms: C_20  and  C_21 
REMARK    6  A    between atoms: C_21  and  N_22 
REMARK    7  A    between atoms: N_22  and  C_23 
REMARK    8  A    between atoms: C_23  and  N_24 
REMARK    9  A    between atoms: N_24  and  C_25 
ROOT
HETATM    1  C   UNL     1      43.948  -9.169  10.029  1.00  0.00     0.067 C 
HETATM    2  C   UNL     1      44.368  -8.404   8.755  1.00  0.00     0.001 C 
HETATM    3  C   UNL     1      43.492  -8.759   7.530  1.00  0.00     0.040 C 
HETATM    4  C   UNL     1      43.573 -10.260   7.197  1.00  0.00     0.206 C 
HETATM    5  N   UNL     1      44.355 -10.923   8.321  1.00  0.00    -0.065 N 
HETATM    6  H   UNL     1      44.326 -11.940   8.135  1.00  0.00     0.280 HD
HETATM    7  C   UNL     1      43.739 -10.660   9.679  1.00  0.00     0.246 C 
HETATM    8  C   UNL     1      45.794  -8.916   8.403  1.00  0.00     0.033 C 
HETATM    9  C   UNL     1      45.798 -10.451   8.286  1.00  0.00     0.236 C 
ENDROOT
BRANCH   4  10
HETATM   10  C   UNL     1      42.186 -10.910   6.970  1.00  0.00     0.155 C 
BRANCH  10  11
HETATM   11  N   UNL     1      42.168 -12.338   6.643  1.00  0.00    -0.365 N 
HETATM   12  H   UNL     1      41.973 -12.949   7.432  1.00  0.00     0.161 HD
BRANCH  11  13
HETATM   13  C   UNL     1      41.833 -12.903   5.441  1.00  0.00     0.172 C 
HETATM   14  S   UNL     1      40.299 -12.888   4.793  1.00  0.00    -0.041 SA
BRANCH  13  15
HETATM   15  N   UNL     1      42.877 -13.355   4.685  1.00  0.00    -0.333 N 
HETATM   16  H   UNL     1      43.615 -12.675   4.526  1.00  0.00     0.168 HD
BRANCH  15  17
HETATM   17  C   UNL     1      42.965 -14.521   3.872  1.00  0.00     0.045 A 
HETATM   18  C   UNL     1      43.257 -15.780   4.470  1.00  0.00     0.001 A 
HETATM   19  C   UNL     1      43.391 -16.916   3.628  1.00  0.00    -0.024 A 
HETATM   20  C   UNL     1      43.397 -15.988   5.866  1.00  0.00     0.014 A 
HETATM   21  C   UNL     1      43.670 -18.177   4.178  1.00  0.00     0.012 A 
HETATM   22  C   UNL     1      43.243 -16.784   2.242  1.00  0.00     0.012 A 
HETATM   23  C   UNL     1      43.814 -18.344   5.553  1.00  0.00     0.001 A 
HETATM   24  C   UNL     1      43.674 -17.251   6.398  1.00  0.00     0.001 A 
HETATM   25  C   UNL     1      42.979 -15.545   1.667  1.00  0.00     0.003 A 
HETATM   26  C   UNL     1      42.850 -14.421   2.476  1.00  0.00     0.030 A 
ENDBRANCH  15  17
ENDBRANCH  13  15
ENDBRANCH  11  13
ENDBRANCH  10  11
ENDBRANCH   4  10
BRANCH   1  27
HETATM   27  C   UNL     1      42.858  -8.674  10.939  1.00  0.00     0.038 C 
HETATM   28  N   UNL     1      41.487  -8.714  10.840  1.00  0.00    -0.277 N 
HETATM   29  C   UNL     1      40.621  -9.103   9.755  1.00  0.00     0.179 C 
HETATM   30  N   UNL     1      40.867  -8.350  11.977  1.00  0.00    -0.172 NA
HETATM   31  C   UNL     1      41.824  -7.882  12.785  1.00  0.00     0.089 C 
HETATM   32  C   UNL     1      43.082  -8.059  12.165  1.00  0.00     0.061 C 
BRANCH  31  33
HETATM   33  C   UNL     1      41.534  -7.337  14.116  1.00  0.00    -0.003 A 
HETATM   34  C   UNL     1      40.225  -6.969  14.466  1.00  0.00     0.053 A 
HETATM   35  C   UNL     1      39.930  -6.482  15.746  1.00  0.00     0.102 A 
HETATM   36  C   UNL     1      40.958  -6.358  16.701  1.00  0.00     0.101 A 
HETATM   37  C   UNL     1      42.264  -6.705  16.351  1.00  0.00     0.040 A 
HETATM   38  C   UNL     1      42.549  -7.191  15.070  1.00  0.00     0.017 A 
BRANCH  35  39
HETATM   39  O   UNL     1      38.674  -6.116  16.166  1.00  0.00    -0.353 OA
HETATM   40  C   UNL     1      38.135  -4.902  15.664  1.00  0.00     0.210 C 
ENDBRANCH  35  39
BRANCH  36  41
HETATM   41  O   UNL     1      40.587  -5.883  17.934  1.00  0.00    -0.353 OA
HETATM   42  C   UNL     1      41.400  -4.884  18.532  1.00  0.00     0.210 C 
ENDBRANCH  36  41
ENDBRANCH  31  33
ENDBRANCH   1  27
TORSDOF 9
ENDMDL
MODEL 10
REMARK VINA RESULT:      -7.3      2.924      7.694
REMARK  9 active torsions:
REMARK  status: ('A' for Active; 'I' for Inactive)
REMARK    1  A    between atoms: C_4  and  C_5 
REMARK    2  A    between atoms: C_7  and  O_8 
REMARK    3  A    between atoms: C_10  and  O_11 
REMARK    4  A    between atoms: C_16  and  C_17 
REMARK    5  A    between atoms: C_20  and  C_21 
REMARK    6  A    between atoms: C_21  and  N_22 
REMARK    7  A    between atoms: N_22  and  C_23 
REMARK    8  A    between atoms: C_23  and  N_24 
REMARK    9  A    between atoms: N_24  and  C_25 
ROOT
HETATM    1  C   UNL     1      40.736  -8.095   9.983  1.00  0.00     0.067 C 
HETATM    2  C   UNL     1      41.972  -7.169   9.978  1.00  0.00     0.001 C 
HETATM    3  C   UNL     1      43.294  -7.939   9.751  1.00  0.00     0.040 C 
HETATM    4  C   UNL     1      43.529  -8.990  10.851  1.00  0.00     0.206 C 
HETATM    5  N   UNL     1      42.265  -9.040  11.696  1.00  0.00    -0.065 N 
HETATM    6  H   UNL     1      42.397  -9.810  12.373  1.00  0.00     0.280 HD
HETATM    7  C   UNL     1      41.033  -9.330  10.865  1.00  0.00     0.246 C 
HETATM    8  C   UNL     1      42.075  -6.592  11.420  1.00  0.00     0.033 C 
HETATM    9  C   UNL     1      42.106  -7.733  12.452  1.00  0.00     0.236 C 
ENDROOT
BRANCH   4  10
HETATM   10  C   UNL     1      43.928 -10.379  10.292  1.00  0.00     0.155 C 
BRANCH  10  11
HETATM   11  N   UNL     1      43.426 -10.726   8.960  1.00  0.00    -0.365 N 
HETATM   12  H   UNL     1      42.625 -10.179   8.655  1.00  0.00     0.161 HD
BRANCH  11  13
HETATM   13  C   UNL     1      44.152 -11.230   7.913  1.00  0.00     0.172 C 
HETATM   14  S   UNL     1      45.736 -10.828   7.589  1.00  0.00    -0.041 SA
BRANCH  13  15
HETATM   15  N   UNL     1      43.558 -12.240   7.210  1.00  0.00    -0.333 N 
HETATM   16  H   UNL     1      43.439 -13.107   7.728  1.00  0.00     0.168 HD
BRANCH  15  17
HETATM   17  C   UNL     1      43.333 -12.354   5.809  1.00  0.00     0.045 A 
HETATM   18  C   UNL     1      43.303 -13.641   5.199  1.00  0.00     0.001 A 
HETATM   19  C   UNL     1      43.129 -13.721   3.792  1.00  0.00    -0.024 A 
HETATM   20  C   UNL     1      43.406 -14.864   5.909  1.00  0.00     0.014 A 
HETATM   21  C   UNL     1      43.085 -14.970   3.152  1.00  0.00     0.012 A 
HETATM   22  C   UNL     1      42.999 -12.551   3.033  1.00  0.00     0.012 A 
HETATM   23  C   UNL     1      43.202 -16.152   3.880  1.00  0.00     0.001 A 
HETATM   24  C   UNL     1      43.359 -16.100   5.258  1.00  0.00     0.001 A 
HETATM   25  C   UNL     1      43.052 -11.299   3.637  1.00  0.00     0.003 A 
HETATM   26  C   UNL     1      43.227 -11.202   5.013  1.00  0.00     0.030 A 
ENDBRANCH  15  17
ENDBRANCH  13  15
ENDBRANCH  11  13
ENDBRANCH  10  11
ENDBRANCH   4  10
BRANCH   1  27
HETATM   27  C   UNL     1      40.031  -8.498   8.717  1.00  0.00     0.038 C 
HETATM   28  N   UNL     1      39.095  -7.858   7.941  1.00  0.00    -0.277 N 
HETATM   29  C   UNL     1      38.346  -6.644   8.158  1.00  0.00     0.179 C 
HETATM   30  N   UNL     1      38.876  -8.473   6.766  1.00  0.00    -0.172 NA
HETATM   31  C   UNL     1      39.532  -9.636   6.831  1.00  0.00     0.089 C 
HETATM   32  C   UNL     1      40.257  -9.692   8.043  1.00  0.00     0.061 C 
BRANCH  31  33
HETATM   33  C   UNL     1      39.495 -10.624   5.747  1.00  0.00    -0.003 A 
HETATM   34  C   UNL     1      39.285 -10.217   4.419  1.00  0.00     0.053 A 
HETATM   35  C   UNL     1      39.283 -11.147   3.371  1.00  0.00     0.102 A 
HETATM   36  C   UNL     1      39.497 -12.511   3.646  1.00  0.00     0.101 A 
HETATM   37  C   UNL     1      39.688 -12.922   4.967  1.00  0.00     0.040 A 
HETATM   38  C   UNL     1      39.687 -11.987   6.007  1.00  0.00     0.017 A 
BRANCH  35  39
HETATM   39  O   UNL     1      39.099 -10.823   2.048  1.00  0.00    -0.353 OA
HETATM   40  C   UNL     1      40.083 -10.013   1.422  1.00  0.00     0.210 C 
ENDBRANCH  35  39
BRANCH  36  41
HETATM   41  O   UNL     1      39.492 -13.357   2.565  1.00  0.00    -0.353 OA
HETATM   42  C   UNL     1      39.639 -14.748   2.811  1.00  0.00     0.210 C 
ENDBRANCH  36  41
ENDBRANCH  31  33
ENDBRANCH   1  27
TORSDOF 9
ENDMDL
