MODEL 1
REMARK VINA RESULT:      -7.6      0.000      0.000
REMARK  8 active torsions:
REMARK  status: ('A' for Active; 'I' for Inactive)
REMARK    1  A    between atoms: C_2  and  C_3 
REMARK    2  A    between atoms: C_3  and  C_4 
REMARK    3  A    between atoms: C_4  and  O_5 
REMARK    4  A    between atoms: O_5  and  C_6 
REMARK    5  A    between atoms: C_9  and  C_10 
REMARK    6  A    between atoms: C_10  and  N_11 
REMARK    7  A    between atoms: N_11  and  C_12 
REMARK    8  A    between atoms: C_19  and  C_20 
REMARK       I    between atoms: C_20  and  N_21 
ROOT
HETATM    1  C   UNL     1      43.410 -11.924   6.914  1.00  0.00     0.009 A 
HETATM    2  C   UNL     1      43.293 -10.671   7.544  1.00  0.00     0.039 A 
HETATM    3  C   UNL     1      44.434  -9.873   7.771  1.00  0.00     0.030 A 
HETATM    4  C   UNL     1      45.666 -10.331   7.324  1.00  0.00     0.063 A 
HETATM    5  N   UNL     1      46.563  -9.360   7.671  1.00  0.00    -0.277 N 
HETATM    6  H   UNL     1      47.561  -9.357   7.496  1.00  0.00     0.189 HD
HETATM    7  N   UNL     1      46.024  -8.309   8.311  1.00  0.00    -0.168 NA
HETATM    8  C   UNL     1      44.707  -8.611   8.377  1.00  0.00     0.156 A 
HETATM    9  C   UNL     1      45.826 -11.544   6.655  1.00  0.00     0.034 A 
HETATM   10  C   UNL     1      44.673 -12.317   6.451  1.00  0.00     0.026 A 
ENDROOT
BRANCH   1  11
HETATM   11  N   UNL     1      42.238 -12.649   6.652  1.00  0.00    -0.289 NA
HETATM   12  H   UNL     1      42.282 -13.592   7.034  1.00  0.00     0.128 HD
BRANCH  11  13
HETATM   13  C   UNL     1      41.694 -12.636   5.301  1.00  0.00     0.131 C 
BRANCH  13  14
HETATM   14  C   UNL     1      41.889 -13.984   4.647  1.00  0.00    -0.045 A 
HETATM   15  C   UNL     1      42.818 -14.138   3.607  1.00  0.00     0.011 A 
HETATM   16  C   UNL     1      43.061 -15.396   3.047  1.00  0.00     0.037 A 
HETATM   17  C   UNL     1      42.381 -16.515   3.528  1.00  0.00     0.068 A 
HETATM   18  C   UNL     1      41.415 -16.360   4.521  1.00  0.00     0.037 A 
HETATM   19  C   UNL     1      41.172 -15.105   5.084  1.00  0.00     0.011 A 
BRANCH  17  20
HETATM   20  O   UNL     1      42.570 -17.796   3.084  1.00  0.00    -0.351 OA
BRANCH  20  21
HETATM   21  C   UNL     1      43.932 -18.159   2.833  1.00  0.00     0.176 C 
BRANCH  21  22
HETATM   22  C   UNL     1      44.572 -18.520   4.173  1.00  0.00     0.030 C 
BRANCH  22  23
HETATM   23  C   UNL     1      43.658 -19.356   5.084  1.00  0.00    -0.021 C 
HETATM   24  C   UNL     1      43.432 -18.691   6.443  1.00  0.00     0.009 C 
HETATM   25  C   UNL     1      44.250 -20.752   5.280  1.00  0.00     0.009 C 
ENDBRANCH  22  23
ENDBRANCH  21  22
ENDBRANCH  20  21
ENDBRANCH  17  20
ENDBRANCH  13  14
ENDBRANCH  11  13
ENDBRANCH   1  11
BRANCH   8  26
HETATM   26  C   UNL     1      43.747  -7.701   9.015  1.00  0.00     0.270 C 
HETATM   27  N   UNL     1      43.336  -8.104  10.256  1.00  0.00    -0.365 N 
HETATM   28  H   UNL     1      43.707  -8.970  10.631  1.00  0.00     0.159 HD
HETATM   29  H   UNL     1      42.675  -7.546  10.773  1.00  0.00     0.159 HD
HETATM   30  O   UNL     1      43.327  -6.665   8.510  1.00  0.00    -0.266 OA
ENDBRANCH   8  26
TORSDOF 8
ENDMDL
MODEL 2
REMARK VINA RESULT:      -7.6      3.817      7.955
REMARK  8 active torsions:
REMARK  status: ('A' for Active; 'I' for Inactive)
REMARK    1  A    between atoms: C_2  and  C_3 
REMARK    2  A    between atoms: C_3  and  C_4 
REMARK    3  A    between atoms: C_4  and  O_5 
REMARK    4  A    between atoms: O_5  and  C_6 
REMARK    5  A    between atoms: C_9  and  C_10 
REMARK    6  A    between atoms: C_10  and  N_11 
REMARK    7  A    between atoms: N_11  and  C_12 
REMARK    8  A    between atoms: C_19  and  C_20 
REMARK       I    between atoms: C_20  and  N_21 
ROOT
HETATM    1  C   UNL     1      40.886 -15.332   3.505  1.00  0.00     0.009 A 
HETATM    2  C   UNL     1      41.803 -15.680   4.515  1.00  0.00     0.039 A 
HETATM    3  C   UNL     1      42.723 -16.730   4.316  1.00  0.00     0.030 A 
HETATM    4  C   UNL     1      42.732 -17.385   3.093  1.00  0.00     0.063 A 
HETATM    5  N   UNL     1      43.716 -18.328   3.191  1.00  0.00    -0.277 N 
HETATM    6  H   UNL     1      44.006 -18.988   2.480  1.00  0.00     0.189 HD
HETATM    7  N   UNL     1      44.348 -18.350   4.377  1.00  0.00    -0.168 NA
HETATM    8  C   UNL     1      43.746 -17.365   5.082  1.00  0.00     0.156 A 
HETATM    9  C   UNL     1      41.875 -17.047   2.046  1.00  0.00     0.034 A 
HETATM   10  C   UNL     1      40.967 -16.002   2.278  1.00  0.00     0.026 A 
ENDROOT
BRANCH   1  11
HETATM   11  N   UNL     1      40.036 -14.238   3.727  1.00  0.00    -0.289 NA
HETATM   12  H   UNL     1      39.059 -14.480   3.578  1.00  0.00     0.128 HD
BRANCH  11  13
HETATM   13  C   UNL     1      40.375 -12.956   3.124  1.00  0.00     0.131 C 
BRANCH  13  14
HETATM   14  C   UNL     1      41.562 -12.344   3.831  1.00  0.00    -0.045 A 
HETATM   15  C   UNL     1      41.443 -11.896   5.155  1.00  0.00     0.011 A 
HETATM   16  C   UNL     1      42.554 -11.399   5.844  1.00  0.00     0.037 A 
HETATM   17  C   UNL     1      43.798 -11.353   5.216  1.00  0.00     0.068 A 
HETATM   18  C   UNL     1      43.912 -11.743   3.882  1.00  0.00     0.037 A 
HETATM   19  C   UNL     1      42.804 -12.242   3.193  1.00  0.00     0.011 A 
BRANCH  17  20
HETATM   20  O   UNL     1      44.957 -10.927   5.807  1.00  0.00    -0.351 OA
BRANCH  20  21
HETATM   21  C   UNL     1      45.037 -11.145   7.220  1.00  0.00     0.176 C 
BRANCH  21  22
HETATM   22  C   UNL     1      46.136 -10.236   7.769  1.00  0.00     0.030 C 
BRANCH  22  23
HETATM   23  C   UNL     1      45.639  -9.249   8.839  1.00  0.00    -0.021 C 
HETATM   24  C   UNL     1      45.401  -9.930  10.187  1.00  0.00     0.009 C 
HETATM   25  C   UNL     1      44.352  -8.570   8.366  1.00  0.00     0.009 C 
ENDBRANCH  22  23
ENDBRANCH  21  22
ENDBRANCH  20  21
ENDBRANCH  17  20
ENDBRANCH  13  14
ENDBRANCH  11  13
ENDBRANCH   1  11
BRANCH   8  26
HETATM   26  C   UNL     1      44.152 -17.056   6.460  1.00  0.00     0.270 C 
HETATM   27  N   UNL     1      43.409 -17.692   7.416  1.00  0.00    -0.365 N 
HETATM   28  H   UNL     1      42.660 -18.305   7.118  1.00  0.00     0.159 HD
HETATM   29  H   UNL     1      43.610 -17.540   8.392  1.00  0.00     0.159 HD
HETATM   30  O   UNL     1      45.068 -16.298   6.763  1.00  0.00    -0.266 OA
ENDBRANCH   8  26
TORSDOF 8
ENDMDL
MODEL 3
REMARK VINA RESULT:      -7.5      3.412      9.418
REMARK  8 active torsions:
REMARK  status: ('A' for Active; 'I' for Inactive)
REMARK    1  A    between atoms: C_2  and  C_3 
REMARK    2  A    between atoms: C_3  and  C_4 
REMARK    3  A    between atoms: C_4  and  O_5 
REMARK    4  A    between atoms: O_5  and  C_6 
REMARK    5  A    between atoms: C_9  and  C_10 
REMARK    6  A    between atoms: C_10  and  N_11 
REMARK    7  A    between atoms: N_11  and  C_12 
REMARK    8  A    between atoms: C_19  and  C_20 
REMARK       I    between atoms: C_20  and  N_21 
ROOT
HETATM    1  C   UNL     1      43.192 -15.587   4.687  1.00  0.00     0.009 A 
HETATM    2  C   UNL     1      43.450 -16.913   5.084  1.00  0.00     0.039 A 
HETATM    3  C   UNL     1      43.530 -17.945   4.125  1.00  0.00     0.030 A 
HETATM    4  C   UNL     1      43.388 -17.620   2.784  1.00  0.00     0.063 A 
HETATM    5  N   UNL     1      43.519 -18.800   2.107  1.00  0.00    -0.277 N 
HETATM    6  H   UNL     1      43.477 -18.940   1.105  1.00  0.00     0.189 HD
HETATM    7  N   UNL     1      43.729 -19.871   2.892  1.00  0.00    -0.168 NA
HETATM    8  C   UNL     1      43.741 -19.355   4.143  1.00  0.00     0.156 A 
HETATM    9  C   UNL     1      43.176 -16.315   2.338  1.00  0.00     0.034 A 
HETATM   10  C   UNL     1      43.095 -15.313   3.316  1.00  0.00     0.026 A 
ENDROOT
BRANCH   1  11
HETATM   11  N   UNL     1      43.188 -14.587   5.671  1.00  0.00    -0.289 NA
HETATM   12  H   UNL     1      42.877 -14.943   6.572  1.00  0.00     0.128 HD
BRANCH  11  13
HETATM   13  C   UNL     1      42.583 -13.300   5.357  1.00  0.00     0.131 C 
BRANCH  13  14
HETATM   14  C   UNL     1      43.283 -12.196   6.114  1.00  0.00    -0.045 A 
HETATM   15  C   UNL     1      42.585 -11.035   6.481  1.00  0.00     0.011 A 
HETATM   16  C   UNL     1      43.203 -10.042   7.247  1.00  0.00     0.037 A 
HETATM   17  C   UNL     1      44.525 -10.203   7.660  1.00  0.00     0.068 A 
HETATM   18  C   UNL     1      45.242 -11.327   7.251  1.00  0.00     0.037 A 
HETATM   19  C   UNL     1      44.627 -12.321   6.487  1.00  0.00     0.011 A 
BRANCH  17  20
HETATM   20  O   UNL     1      45.213  -9.318   8.445  1.00  0.00    -0.351 OA
BRANCH  20  21
HETATM   21  C   UNL     1      44.441  -8.690   9.476  1.00  0.00     0.176 C 
BRANCH  21  22
HETATM   22  C   UNL     1      44.598  -9.525  10.747  1.00  0.00     0.030 C 
BRANCH  22  23
HETATM   23  C   UNL     1      43.346  -9.525  11.639  1.00  0.00    -0.021 C 
HETATM   24  C   UNL     1      42.054  -9.587  10.824  1.00  0.00     0.009 C 
HETATM   25  C   UNL     1      43.339  -8.281  12.530  1.00  0.00     0.009 C 
ENDBRANCH  22  23
ENDBRANCH  21  22
ENDBRANCH  20  21
ENDBRANCH  17  20
ENDBRANCH  13  14
ENDBRANCH  11  13
ENDBRANCH   1  11
BRANCH   8  26
HETATM   26  C   UNL     1      43.947 -20.213   5.318  1.00  0.00     0.270 C 
HETATM   27  N   UNL     1      44.675 -21.343   5.064  1.00  0.00    -0.365 N 
HETATM   28  H   UNL     1      45.005 -21.503   4.120  1.00  0.00     0.159 HD
HETATM   29  H   UNL     1      44.865 -21.995   5.808  1.00  0.00     0.159 HD
HETATM   30  O   UNL     1      43.518 -19.970   6.442  1.00  0.00    -0.266 OA
ENDBRANCH   8  26
TORSDOF 8
ENDMDL
MODEL 4
REMARK VINA RESULT:      -7.3      2.320      4.158
REMARK  8 active torsions:
REMARK  status: ('A' for Active; 'I' for Inactive)
REMARK    1  A    between atoms: C_2  and  C_3 
REMARK    2  A    between atoms: C_3  and  C_4 
REMARK    3  A    between atoms: C_4  and  O_5 
REMARK    4  A    between atoms: O_5  and  C_6 
REMARK    5  A    between atoms: C_9  and  C_10 
REMARK    6  A    between atoms: C_10  and  N_11 
REMARK    7  A    between atoms: N_11  and  C_12 
REMARK    8  A    between atoms: C_19  and  C_20 
REMARK       I    between atoms: C_20  and  N_21 
ROOT
HETATM    1  C   UNL     1      44.587  -9.860   8.938  1.00  0.00     0.009 A 
HETATM    2  C   UNL     1      43.419 -10.075   9.693  1.00  0.00     0.039 A 
HETATM    3  C   UNL     1      42.643  -8.983  10.138  1.00  0.00     0.030 A 
HETATM    4  C   UNL     1      43.033  -7.700   9.782  1.00  0.00     0.063 A 
HETATM    5  N   UNL     1      42.101  -6.869  10.339  1.00  0.00    -0.277 N 
HETATM    6  H   UNL     1      42.068  -5.858  10.278  1.00  0.00     0.189 HD
HETATM    7  N   UNL     1      41.138  -7.499  11.033  1.00  0.00    -0.168 NA
HETATM    8  C   UNL     1      41.459  -8.808  10.914  1.00  0.00     0.156 A 
HETATM    9  C   UNL     1      44.156  -7.440   8.998  1.00  0.00     0.034 A 
HETATM   10  C   UNL     1      44.910  -8.545   8.577  1.00  0.00     0.026 A 
ENDROOT
BRANCH   1  11
HETATM   11  N   UNL     1      45.287 -10.979   8.463  1.00  0.00    -0.289 NA
HETATM   12  H   UNL     1      46.105 -11.185   9.033  1.00  0.00     0.128 HD
BRANCH  11  13
HETATM   13  C   UNL     1      45.582 -11.068   7.039  1.00  0.00     0.131 C 
BRANCH  13  14
HETATM   14  C   UNL     1      44.548 -11.924   6.345  1.00  0.00    -0.045 A 
HETATM   15  C   UNL     1      44.206 -11.675   5.007  1.00  0.00     0.011 A 
HETATM   16  C   UNL     1      43.307 -12.509   4.333  1.00  0.00     0.037 A 
HETATM   17  C   UNL     1      42.747 -13.604   4.990  1.00  0.00     0.068 A 
HETATM   18  C   UNL     1      43.038 -13.823   6.336  1.00  0.00     0.037 A 
HETATM   19  C   UNL     1      43.937 -12.994   7.011  1.00  0.00     0.011 A 
BRANCH  17  20
HETATM   20  O   UNL     1      41.892 -14.506   4.417  1.00  0.00    -0.351 OA
BRANCH  20  21
HETATM   21  C   UNL     1      42.053 -15.861   4.854  1.00  0.00     0.176 C 
BRANCH  21  22
HETATM   22  C   UNL     1      43.171 -16.488   4.020  1.00  0.00     0.030 C 
BRANCH  22  23
HETATM   23  C   UNL     1      42.726 -16.902   2.609  1.00  0.00    -0.021 C 
HETATM   24  C   UNL     1      43.085 -18.354   2.292  1.00  0.00     0.009 C 
HETATM   25  C   UNL     1      43.354 -15.973   1.569  1.00  0.00     0.009 C 
ENDBRANCH  22  23
ENDBRANCH  21  22
ENDBRANCH  20  21
ENDBRANCH  17  20
ENDBRANCH  13  14
ENDBRANCH  11  13
ENDBRANCH   1  11
BRANCH   8  26
HETATM   26  C   UNL     1      40.640  -9.853  11.543  1.00  0.00     0.270 C 
HETATM   27  N   UNL     1      41.228 -10.446  12.626  1.00  0.00    -0.365 N 
HETATM   28  H   UNL     1      42.152 -10.137  12.905  1.00  0.00     0.159 HD
HETATM   29  H   UNL     1      40.745 -11.178  13.123  1.00  0.00     0.159 HD
HETATM   30  O   UNL     1      39.526 -10.192  11.158  1.00  0.00    -0.266 OA
ENDBRANCH   8  26
TORSDOF 8
ENDMDL
MODEL 5
REMARK VINA RESULT:      -7.3      3.731      7.795
REMARK  8 active torsions:
REMARK  status: ('A' for Active; 'I' for Inactive)
REMARK    1  A    between atoms: C_2  and  C_3 
REMARK    2  A    between atoms: C_3  and  C_4 
REMARK    3  A    between atoms: C_4  and  O_5 
REMARK    4  A    between atoms: O_5  and  C_6 
REMARK    5  A    between atoms: C_9  and  C_10 
REMARK    6  A    between atoms: C_10  and  N_11 
REMARK    7  A    between atoms: N_11  and  C_12 
REMARK    8  A    between atoms: C_19  and  C_20 
REMARK       I    between atoms: C_20  and  N_21 
ROOT
HETATM    1  C   UNL     1      41.028 -15.904   3.271  1.00  0.00     0.009 A 
HETATM    2  C   UNL     1      41.593 -16.504   4.412  1.00  0.00     0.039 A 
HETATM    3  C   UNL     1      42.760 -17.289   4.305  1.00  0.00     0.030 A 
HETATM    4  C   UNL     1      43.359 -17.424   3.061  1.00  0.00     0.063 A 
HETATM    5  N   UNL     1      44.453 -18.217   3.267  1.00  0.00    -0.277 N 
HETATM    6  H   UNL     1      45.130 -18.520   2.577  1.00  0.00     0.189 HD
HETATM    7  N   UNL     1      44.618 -18.616   4.540  1.00  0.00    -0.168 NA
HETATM    8  C   UNL     1      43.579 -18.047   5.193  1.00  0.00     0.156 A 
HETATM    9  C   UNL     1      42.862 -16.813   1.910  1.00  0.00     0.034 A 
HETATM   10  C   UNL     1      41.697 -16.044   2.049  1.00  0.00     0.026 A 
ENDROOT
BRANCH   1  11
HETATM   11  N   UNL     1      39.905 -15.079   3.441  1.00  0.00    -0.289 NA
HETATM   12  H   UNL     1      39.040 -15.564   3.210  1.00  0.00     0.128 HD
BRANCH  11  13
HETATM   13  C   UNL     1      39.937 -13.732   2.887  1.00  0.00     0.131 C 
BRANCH  13  14
HETATM   14  C   UNL     1      40.321 -12.737   3.957  1.00  0.00    -0.045 A 
HETATM   15  C   UNL     1      39.743 -12.813   5.234  1.00  0.00     0.011 A 
HETATM   16  C   UNL     1      40.147 -11.946   6.254  1.00  0.00     0.037 A 
HETATM   17  C   UNL     1      41.140 -10.997   6.008  1.00  0.00     0.068 A 
HETATM   18  C   UNL     1      41.677 -10.878   4.727  1.00  0.00     0.037 A 
HETATM   19  C   UNL     1      41.276 -11.745   3.707  1.00  0.00     0.011 A 
BRANCH  17  20
HETATM   20  O   UNL     1      41.640 -10.129   6.940  1.00  0.00    -0.351 OA
BRANCH  20  21
HETATM   21  C   UNL     1      43.067 -10.017   6.965  1.00  0.00     0.176 C 
BRANCH  21  22
HETATM   22  C   UNL     1      43.609 -11.168   7.812  1.00  0.00     0.030 C 
BRANCH  22  23
HETATM   23  C   UNL     1      44.592 -12.077   7.058  1.00  0.00    -0.021 C 
HETATM   24  C   UNL     1      45.201 -11.384   5.838  1.00  0.00     0.009 C 
HETATM   25  C   UNL     1      43.889 -13.365   6.627  1.00  0.00     0.009 C 
ENDBRANCH  22  23
ENDBRANCH  21  22
ENDBRANCH  20  21
ENDBRANCH  17  20
ENDBRANCH  13  14
ENDBRANCH  11  13
ENDBRANCH   1  11
BRANCH   8  26
HETATM   26  C   UNL     1      43.388 -18.241   6.637  1.00  0.00     0.270 C 
HETATM   27  N   UNL     1      43.453 -17.087   7.368  1.00  0.00    -0.365 N 
HETATM   28  H   UNL     1      43.624 -16.215   6.882  1.00  0.00     0.159 HD
HETATM   29  H   UNL     1      43.338 -17.119   8.369  1.00  0.00     0.159 HD
HETATM   30  O   UNL     1      43.189 -19.326   7.175  1.00  0.00    -0.266 OA
ENDBRANCH   8  26
TORSDOF 8
ENDMDL
MODEL 6
REMARK VINA RESULT:      -7.2      5.442      8.309
REMARK  8 active torsions:
REMARK  status: ('A' for Active; 'I' for Inactive)
REMARK    1  A    between atoms: C_2  and  C_3 
REMARK    2  A    between atoms: C_3  and  C_4 
REMARK    3  A    between atoms: C_4  and  O_5 
REMARK    4  A    between atoms: O_5  and  C_6 
REMARK    5  A    between atoms: C_9  and  C_10 
REMARK    6  A    between atoms: C_10  and  N_11 
REMARK    7  A    between atoms: N_11  and  C_12 
REMARK    8  A    between atoms: C_19  and  C_20 
REMARK       I    between atoms: C_20  and  N_21 
ROOT
HETATM    1  C   UNL     1      39.736 -11.417   0.766  1.00  0.00     0.009 A 
HETATM    2  C   UNL     1      39.111 -12.280  -0.155  1.00  0.00     0.039 A 
HETATM    3  C   UNL     1      39.744 -12.606  -1.373  1.00  0.00     0.030 A 
HETATM    4  C   UNL     1      41.007 -12.090  -1.627  1.00  0.00     0.063 A 
HETATM    5  N   UNL     1      41.359 -12.577  -2.854  1.00  0.00    -0.277 N 
HETATM    6  H   UNL     1      42.224 -12.409  -3.355  1.00  0.00     0.189 HD
HETATM    7  N   UNL     1      40.432 -13.363  -3.428  1.00  0.00    -0.168 NA
HETATM    8  C   UNL     1      39.428 -13.391  -2.521  1.00  0.00     0.156 A 
HETATM    9  C   UNL     1      41.684 -11.268  -0.726  1.00  0.00     0.034 A 
HETATM   10  C   UNL     1      41.027 -10.958   0.473  1.00  0.00     0.026 A 
ENDROOT
BRANCH   1  11
HETATM   11  N   UNL     1      39.096 -11.177   1.991  1.00  0.00    -0.289 NA
HETATM   12  H   UNL     1      39.654 -10.583   2.601  1.00  0.00     0.128 HD
BRANCH  11  13
HETATM   13  C   UNL     1      38.519 -12.304   2.711  1.00  0.00     0.131 C 
BRANCH  13  14
HETATM   14  C   UNL     1      39.588 -13.325   3.025  1.00  0.00    -0.045 A 
HETATM   15  C   UNL     1      40.550 -13.063   4.012  1.00  0.00     0.011 A 
HETATM   16  C   UNL     1      41.497 -14.031   4.362  1.00  0.00     0.037 A 
HETATM   17  C   UNL     1      41.485 -15.276   3.733  1.00  0.00     0.068 A 
HETATM   18  C   UNL     1      40.568 -15.523   2.712  1.00  0.00     0.037 A 
HETATM   19  C   UNL     1      39.621 -14.558   2.361  1.00  0.00     0.011 A 
BRANCH  17  20
HETATM   20  O   UNL     1      42.334 -16.308   4.026  1.00  0.00    -0.351 OA
BRANCH  20  21
HETATM   21  C   UNL     1      43.283 -16.626   3.002  1.00  0.00     0.176 C 
BRANCH  21  22
HETATM   22  C   UNL     1      42.945 -18.019   2.471  1.00  0.00     0.030 C 
BRANCH  22  23
HETATM   23  C   UNL     1      44.031 -19.067   2.762  1.00  0.00    -0.021 C 
HETATM   24  C   UNL     1      43.709 -20.423   2.134  1.00  0.00     0.009 C 
HETATM   25  C   UNL     1      44.215 -19.224   4.272  1.00  0.00     0.009 C 
ENDBRANCH  22  23
ENDBRANCH  21  22
ENDBRANCH  20  21
ENDBRANCH  17  20
ENDBRANCH  13  14
ENDBRANCH  11  13
ENDBRANCH   1  11
BRANCH   8  26
HETATM   26  C   UNL     1      38.199 -14.157  -2.770  1.00  0.00     0.270 C 
HETATM   27  N   UNL     1      38.379 -15.512  -2.783  1.00  0.00    -0.365 N 
HETATM   28  H   UNL     1      39.311 -15.878  -2.629  1.00  0.00     0.159 HD
HETATM   29  H   UNL     1      37.594 -16.122  -2.949  1.00  0.00     0.159 HD
HETATM   30  O   UNL     1      37.093 -13.658  -2.955  1.00  0.00    -0.266 OA
ENDBRANCH   8  26
TORSDOF 8
ENDMDL
MODEL 7
REMARK VINA RESULT:      -7.1      4.849      6.820
REMARK  8 active torsions:
REMARK  status: ('A' for Active; 'I' for Inactive)
REMARK    1  A    between atoms: C_2  and  C_3 
REMARK    2  A    between atoms: C_3  and  C_4 
REMARK    3  A    between atoms: C_4  and  O_5 
REMARK    4  A    between atoms: O_5  and  C_6 
REMARK    5  A    between atoms: C_9  and  C_10 
REMARK    6  A    between atoms: C_10  and  N_11 
REMARK    7  A    between atoms: N_11  and  C_12 
REMARK    8  A    between atoms: C_19  and  C_20 
REMARK       I    between atoms: C_20  and  N_21 
ROOT
HETATM    1  C   UNL     1      40.188 -13.478   2.025  1.00  0.00     0.009 A 
HETATM    2  C   UNL     1      40.516 -12.262   1.395  1.00  0.00     0.039 A 
HETATM    3  C   UNL     1      40.700 -12.206  -0.002  1.00  0.00     0.030 A 
HETATM    4  C   UNL     1      40.514 -13.363  -0.745  1.00  0.00     0.063 A 
HETATM    5  N   UNL     1      40.749 -13.005  -2.043  1.00  0.00    -0.277 N 
HETATM    6  H   UNL     1      40.698 -13.599  -2.862  1.00  0.00     0.189 HD
HETATM    7  N   UNL     1      41.078 -11.713  -2.212  1.00  0.00    -0.168 NA
HETATM    8  C   UNL     1      41.049 -11.206  -0.958  1.00  0.00     0.156 A 
HETATM    9  C   UNL     1      40.146 -14.580  -0.172  1.00  0.00     0.034 A 
HETATM   10  C   UNL     1      39.976 -14.604   1.220  1.00  0.00     0.026 A 
ENDROOT
BRANCH   1  11
HETATM   11  N   UNL     1      39.950 -13.467   3.407  1.00  0.00    -0.289 NA
HETATM   12  H   UNL     1      39.099 -12.960   3.642  1.00  0.00     0.128 HD
BRANCH  11  13
HETATM   13  C   UNL     1      41.048 -13.130   4.303  1.00  0.00     0.131 C 
BRANCH  13  14
HETATM   14  C   UNL     1      41.717 -14.388   4.805  1.00  0.00    -0.045 A 
HETATM   15  C   UNL     1      43.077 -14.377   5.149  1.00  0.00     0.011 A 
HETATM   16  C   UNL     1      43.688 -15.516   5.686  1.00  0.00     0.037 A 
HETATM   17  C   UNL     1      42.939 -16.675   5.892  1.00  0.00     0.068 A 
HETATM   18  C   UNL     1      41.602 -16.710   5.499  1.00  0.00     0.037 A 
HETATM   19  C   UNL     1      40.990 -15.574   4.964  1.00  0.00     0.011 A 
BRANCH  17  20
HETATM   20  O   UNL     1      43.422 -17.828   6.448  1.00  0.00    -0.351 OA
BRANCH  20  21
HETATM   21  C   UNL     1      43.671 -18.893   5.523  1.00  0.00     0.176 C 
BRANCH  21  22
HETATM   22  C   UNL     1      44.524 -18.331   4.386  1.00  0.00     0.030 C 
BRANCH  22  23
HETATM   23  C   UNL     1      44.111 -18.842   2.997  1.00  0.00    -0.021 C 
HETATM   24  C   UNL     1      43.023 -17.975   2.362  1.00  0.00     0.009 C 
HETATM   25  C   UNL     1      43.630 -20.291   3.095  1.00  0.00     0.009 C 
ENDBRANCH  22  23
ENDBRANCH  21  22
ENDBRANCH  20  21
ENDBRANCH  17  20
ENDBRANCH  13  14
ENDBRANCH  11  13
ENDBRANCH   1  11
BRANCH   8  26
HETATM   26  C   UNL     1      41.357  -9.793  -0.699  1.00  0.00     0.270 C 
HETATM   27  N   UNL     1      40.253  -9.000  -0.545  1.00  0.00    -0.365 N 
HETATM   28  H   UNL     1      39.337  -9.427  -0.620  1.00  0.00     0.159 HD
HETATM   29  H   UNL     1      40.362  -8.015  -0.368  1.00  0.00     0.159 HD
HETATM   30  O   UNL     1      42.490  -9.328  -0.625  1.00  0.00    -0.266 OA
ENDBRANCH   8  26
TORSDOF 8
ENDMDL
MODEL 8
REMARK VINA RESULT:      -7.1      3.252      4.859
REMARK  8 active torsions:
REMARK  status: ('A' for Active; 'I' for Inactive)
REMARK    1  A    between atoms: C_2  and  C_3 
REMARK    2  A    between atoms: C_3  and  C_4 
REMARK    3  A    between atoms: C_4  and  O_5 
REMARK    4  A    between atoms: O_5  and  C_6 
REMARK    5  A    between atoms: C_9  and  C_10 
REMARK    6  A    between atoms: C_10  and  N_11 
REMARK    7  A    between atoms: N_11  and  C_12 
REMARK    8  A    between atoms: C_19  and  C_20 
REMARK       I    between atoms: C_20  and  N_21 
ROOT
HETATM    1  C   UNL     1      42.788  -9.543   9.610  1.00  0.00     0.009 A 
HETATM    2  C   UNL     1      41.727  -9.778  10.504  1.00  0.00     0.039 A 
HETATM    3  C   UNL     1      41.864  -9.472  11.875  1.00  0.00     0.030 A 
HETATM    4  C   UNL     1      43.049  -8.902  12.314  1.00  0.00     0.063 A 
HETATM    5  N   UNL     1      42.887  -8.715  13.659  1.00  0.00    -0.277 N 
HETATM    6  H   UNL     1      43.554  -8.312  14.306  1.00  0.00     0.189 HD
HETATM    7  N   UNL     1      41.698  -9.119  14.137  1.00  0.00    -0.168 NA
HETATM    8  C   UNL     1      41.054  -9.588  13.043  1.00  0.00     0.156 A 
HETATM    9  C   UNL     1      44.112  -8.610  11.460  1.00  0.00     0.034 A 
HETATM   10  C   UNL     1      43.947  -8.931  10.104  1.00  0.00     0.026 A 
ENDROOT
BRANCH   1  11
HETATM   11  N   UNL     1      42.579  -9.802   8.247  1.00  0.00    -0.289 NA
HETATM   12  H   UNL     1      41.767 -10.395   8.094  1.00  0.00     0.128 HD
BRANCH  11  13
HETATM   13  C   UNL     1      43.714 -10.213   7.431  1.00  0.00     0.131 C 
BRANCH  13  14
HETATM   14  C   UNL     1      43.408 -11.516   6.731  1.00  0.00    -0.045 A 
HETATM   15  C   UNL     1      42.639 -11.526   5.557  1.00  0.00     0.011 A 
HETATM   16  C   UNL     1      42.415 -12.717   4.860  1.00  0.00     0.037 A 
HETATM   17  C   UNL     1      42.963 -13.911   5.327  1.00  0.00     0.068 A 
HETATM   18  C   UNL     1      43.679 -13.919   6.524  1.00  0.00     0.037 A 
HETATM   19  C   UNL     1      43.907 -12.730   7.221  1.00  0.00     0.011 A 
BRANCH  17  20
HETATM   20  O   UNL     1      42.843 -15.124   4.704  1.00  0.00    -0.351 OA
BRANCH  20  21
HETATM   21  C   UNL     1      41.925 -15.156   3.606  1.00  0.00     0.176 C 
BRANCH  21  22
HETATM   22  C   UNL     1      41.641 -16.623   3.281  1.00  0.00     0.030 C 
BRANCH  22  23
HETATM   23  C   UNL     1      42.624 -17.229   2.268  1.00  0.00    -0.021 C 
HETATM   24  C   UNL     1      43.664 -18.129   2.937  1.00  0.00     0.009 C 
HETATM   25  C   UNL     1      43.326 -16.115   1.489  1.00  0.00     0.009 C 
ENDBRANCH  22  23
ENDBRANCH  21  22
ENDBRANCH  20  21
ENDBRANCH  17  20
ENDBRANCH  13  14
ENDBRANCH  11  13
ENDBRANCH   1  11
BRANCH   8  26
HETATM   26  C   UNL     1      39.693 -10.135  13.137  1.00  0.00     0.270 C 
HETATM   27  N   UNL     1      38.711  -9.248  12.791  1.00  0.00    -0.365 N 
HETATM   28  H   UNL     1      38.980  -8.313  12.509  1.00  0.00     0.159 HD
HETATM   29  H   UNL     1      37.744  -9.531  12.827  1.00  0.00     0.159 HD
HETATM   30  O   UNL     1      39.425 -11.278  13.492  1.00  0.00    -0.266 OA
ENDBRANCH   8  26
TORSDOF 8
ENDMDL
MODEL 9
REMARK VINA RESULT:      -7.0      5.632     11.130
REMARK  8 active torsions:
REMARK  status: ('A' for Active; 'I' for Inactive)
REMARK    1  A    between atoms: C_2  and  C_3 
REMARK    2  A    between atoms: C_3  and  C_4 
REMARK    3  A    between atoms: C_4  and  O_5 
REMARK    4  A    between atoms: O_5  and  C_6 
REMARK    5  A    between atoms: C_9  and  C_10 
REMARK    6  A    between atoms: C_10  and  N_11 
REMARK    7  A    between atoms: N_11  and  C_12 
REMARK    8  A    between atoms: C_19  and  C_20 
REMARK       I    between atoms: C_20  and  N_21 
ROOT
HETATM    1  C   UNL     1      43.554  -9.961   9.935  1.00  0.00     0.009 A 
HETATM    2  C   UNL     1      43.458 -10.853   8.850  1.00  0.00     0.039 A 
HETATM    3  C   UNL     1      44.519 -10.975   7.928  1.00  0.00     0.030 A 
HETATM    4  C   UNL     1      45.670 -10.228   8.134  1.00  0.00     0.063 A 
HETATM    5  N   UNL     1      46.507 -10.557   7.104  1.00  0.00    -0.277 N 
HETATM    6  H   UNL     1      47.442 -10.204   6.939  1.00  0.00     0.189 HD
HETATM    7  N   UNL     1      45.999 -11.451   6.239  1.00  0.00    -0.168 NA
HETATM    8  C   UNL     1      44.770 -11.720   6.738  1.00  0.00     0.156 A 
HETATM    9  C   UNL     1      45.829  -9.366   9.218  1.00  0.00     0.034 A 
HETATM   10  C   UNL     1      44.755  -9.262  10.114  1.00  0.00     0.026 A 
ENDROOT
BRANCH   1  11
HETATM   11  N   UNL     1      42.501  -9.925  10.861  1.00  0.00    -0.289 NA
HETATM   12  H   UNL     1      41.981  -9.051  10.810  1.00  0.00     0.128 HD
BRANCH  11  13
HETATM   13  C   UNL     1      42.766 -10.320  12.238  1.00  0.00     0.131 C 
BRANCH  13  14
HETATM   14  C   UNL     1      42.494  -9.165  13.173  1.00  0.00    -0.045 A 
HETATM   15  C   UNL     1      41.413  -9.216  14.066  1.00  0.00     0.011 A 
HETATM   16  C   UNL     1      41.198  -8.187  14.988  1.00  0.00     0.037 A 
HETATM   17  C   UNL     1      42.068  -7.098  15.031  1.00  0.00     0.068 A 
HETATM   18  C   UNL     1      43.111  -7.013  14.109  1.00  0.00     0.037 A 
HETATM   19  C   UNL     1      43.329  -8.041  13.188  1.00  0.00     0.011 A 
BRANCH  17  20
HETATM   20  O   UNL     1      41.978  -6.059  15.917  1.00  0.00    -0.351 OA
BRANCH  20  21
HETATM   21  C   UNL     1      41.145  -6.301  17.056  1.00  0.00     0.176 C 
BRANCH  21  22
HETATM   22  C   UNL     1      42.048  -6.749  18.205  1.00  0.00     0.030 C 
BRANCH  22  23
HETATM   23  C   UNL     1      41.308  -7.539  19.296  1.00  0.00    -0.021 C 
HETATM   24  C   UNL     1      42.183  -8.629  19.917  1.00  0.00     0.009 C 
HETATM   25  C   UNL     1      40.036  -8.162  18.718  1.00  0.00     0.009 C 
ENDBRANCH  22  23
ENDBRANCH  21  22
ENDBRANCH  20  21
ENDBRANCH  17  20
ENDBRANCH  13  14
ENDBRANCH  11  13
ENDBRANCH   1  11
BRANCH   8  26
HETATM   26  C   UNL     1      43.869 -12.670   6.072  1.00  0.00     0.270 C 
HETATM   27  N   UNL     1      43.666 -13.829   6.769  1.00  0.00    -0.365 N 
HETATM   28  H   UNL     1      44.136 -13.947   7.659  1.00  0.00     0.159 HD
HETATM   29  H   UNL     1      43.066 -14.545   6.391  1.00  0.00     0.159 HD
HETATM   30  O   UNL     1      43.331 -12.477   4.986  1.00  0.00    -0.266 OA
ENDBRANCH   8  26
TORSDOF 8
ENDMDL
MODEL 10
REMARK VINA RESULT:      -7.0      3.284      9.367
REMARK  8 active torsions:
REMARK  status: ('A' for Active; 'I' for Inactive)
REMARK    1  A    between atoms: C_2  and  C_3 
REMARK    2  A    between atoms: C_3  and  C_4 
REMARK    3  A    between atoms: C_4  and  O_5 
REMARK    4  A    between atoms: O_5  and  C_6 
REMARK    5  A    between atoms: C_9  and  C_10 
REMARK    6  A    between atoms: C_10  and  N_11 
REMARK    7  A    between atoms: N_11  and  C_12 
REMARK    8  A    between atoms: C_19  and  C_20 
REMARK       I    between atoms: C_20  and  N_21 
ROOT
HETATM    1  C   UNL     1      43.248 -15.974   5.298  1.00  0.00     0.009 A 
HETATM    2  C   UNL     1      43.348 -16.993   4.332  1.00  0.00     0.039 A 
HETATM    3  C   UNL     1      43.536 -18.336   4.725  1.00  0.00     0.030 A 
HETATM    4  C   UNL     1      43.580 -18.633   6.079  1.00  0.00     0.063 A 
HETATM    5  N   UNL     1      43.759 -19.986   6.149  1.00  0.00    -0.277 N 
HETATM    6  H   UNL     1      43.831 -20.552   6.986  1.00  0.00     0.189 HD
HETATM    7  N   UNL     1      43.841 -20.599   4.956  1.00  0.00    -0.168 NA
HETATM    8  C   UNL     1      43.701 -19.590   4.065  1.00  0.00     0.156 A 
HETATM    9  C   UNL     1      43.441 -17.664   7.073  1.00  0.00     0.034 A 
HETATM   10  C   UNL     1      43.261 -16.339   6.650  1.00  0.00     0.026 A 
ENDROOT
BRANCH   1  11
HETATM   11  N   UNL     1      42.995 -14.665   4.859  1.00  0.00    -0.289 NA
HETATM   12  H   UNL     1      43.848 -14.192   4.566  1.00  0.00     0.128 HD
BRANCH  11  13
HETATM   13  C   UNL     1      42.149 -13.805   5.675  1.00  0.00     0.131 C 
BRANCH  13  14
HETATM   14  C   UNL     1      42.949 -12.638   6.205  1.00  0.00    -0.045 A 
HETATM   15  C   UNL     1      42.359 -11.371   6.322  1.00  0.00     0.011 A 
HETATM   16  C   UNL     1      43.067 -10.302   6.882  1.00  0.00     0.037 A 
HETATM   17  C   UNL     1      44.371 -10.494   7.337  1.00  0.00     0.068 A 
HETATM   18  C   UNL     1      44.984 -11.735   7.171  1.00  0.00     0.037 A 
HETATM   19  C   UNL     1      44.278 -12.805   6.614  1.00  0.00     0.011 A 
BRANCH  17  20
HETATM   20  O   UNL     1      45.139  -9.533   7.938  1.00  0.00    -0.351 OA
BRANCH  20  21
HETATM   21  C   UNL     1      45.259  -9.650   9.360  1.00  0.00     0.176 C 
BRANCH  21  22
HETATM   22  C   UNL     1      44.331  -8.612   9.991  1.00  0.00     0.030 C 
BRANCH  22  23
HETATM   23  C   UNL     1      43.360  -9.205  11.025  1.00  0.00    -0.021 C 
HETATM   24  C   UNL     1      43.413  -8.462  12.361  1.00  0.00     0.009 C 
HETATM   25  C   UNL     1      43.668 -10.687  11.243  1.00  0.00     0.009 C 
ENDBRANCH  22  23
ENDBRANCH  21  22
ENDBRANCH  20  21
ENDBRANCH  17  20
ENDBRANCH  13  14
ENDBRANCH  11  13
ENDBRANCH   1  11
BRANCH   8  26
HETATM   26  C   UNL     1      43.734 -19.841   2.618  1.00  0.00     0.270 C 
HETATM   27  N   UNL     1      43.359 -18.768   1.857  1.00  0.00    -0.365 N 
HETATM   28  H   UNL     1      43.093 -17.911   2.328  1.00  0.00     0.159 HD
HETATM   29  H   UNL     1      43.346 -18.844   0.853  1.00  0.00     0.159 HD
HETATM   30  O   UNL     1      44.061 -20.905   2.102  1.00  0.00    -0.266 OA
ENDBRANCH   8  26
TORSDOF 8
ENDMDL
