MODEL 1
REMARK VINA RESULT:      -9.8      0.000      0.000
REMARK  6 active torsions:
REMARK  status: ('A' for Active; 'I' for Inactive)
REMARK    1  A    between atoms: C_5  and  N_6 
REMARK    2  A    between atoms: C_8  and  C_9 
REMARK    3  A    between atoms: C_11  and  O_12 
REMARK    4  A    between atoms: C_17  and  C_18 
REMARK       I    between atoms: C_18  and  N_19 
REMARK    5  A    between atoms: N_19  and  N_20 
REMARK       I    between atoms: N_20  and  C_21 
REMARK    6  A    between atoms: C_21  and  C_22 
ROOT
HETATM    1  N   UNL     1      42.947 -13.022   5.374  1.00  0.00    -0.244 N 
HETATM    2  N   UNL     1      43.489 -14.254   5.310  1.00  0.00    -0.166 NA
HETATM    3  C   UNL     1      42.774 -14.932   4.397  1.00  0.00     0.105 A 
HETATM    4  C   UNL     1      41.723 -14.119   3.868  1.00  0.00     0.082 A 
HETATM    5  C   UNL     1      41.872 -12.909   4.528  1.00  0.00     0.138 A 
ENDROOT
BRANCH   4   6
HETATM    6  C   UNL     1      40.688 -14.438   2.894  1.00  0.00     0.274 C 
HETATM    7  N   UNL     1      40.527 -13.497   1.892  1.00  0.00    -0.263 N 
HETATM    8  H   UNL     1      41.196 -12.749   1.733  1.00  0.00     0.190 HD
HETATM    9  O   UNL     1      40.006 -15.461   2.924  1.00  0.00    -0.266 OA
BRANCH   7  10
HETATM   10  N   UNL     1      39.690 -13.798   0.808  1.00  0.00    -0.262 N 
HETATM   11  C   UNL     1      39.962 -13.205  -0.408  1.00  0.00     0.286 C 
HETATM   12  O   UNL     1      40.862 -12.372  -0.526  1.00  0.00    -0.264 OA
HETATM   13  H   UNL     1      39.023 -14.555   0.930  1.00  0.00     0.190 HD
BRANCH  11  14
HETATM   14  C   UNL     1      39.138 -13.627  -1.517  1.00  0.00     0.102 A 
HETATM   15  N   UNL     1      37.825 -13.216  -1.630  1.00  0.00    -0.361 N 
HETATM   16  H   UNL     1      37.367 -12.608  -0.960  1.00  0.00     0.165 HD
HETATM   17  C   UNL     1      37.256 -13.744  -2.755  1.00  0.00     0.088 A 
HETATM   18  C   UNL     1      38.207 -14.509  -3.389  1.00  0.00     0.019 A 
HETATM   19  C   UNL     1      39.391 -14.438  -2.611  1.00  0.00     0.036 A 
ENDBRANCH  11  14
ENDBRANCH   7  10
ENDBRANCH   4   6
BRANCH   3  20
HETATM   20  C   UNL     1      43.157 -16.318   4.090  1.00  0.00    -0.002 A 
HETATM   21  C   UNL     1      43.394 -17.260   5.101  1.00  0.00     0.050 A 
HETATM   22  C   UNL     1      43.754 -18.573   4.782  1.00  0.00     0.069 A 
HETATM   23  C   UNL     1      43.818 -18.968   3.445  1.00  0.00     0.037 A 
HETATM   24  C   UNL     1      43.565 -18.051   2.429  1.00  0.00     0.004 A 
HETATM   25  C   UNL     1      43.242 -16.732   2.751  1.00  0.00     0.014 A 
BRANCH  22  26
HETATM   26  O   UNL     1      44.029 -19.557   5.693  1.00  0.00    -0.356 OA
HETATM   27  C   UNL     1      44.044 -20.883   5.173  1.00  0.00     0.210 C 
ENDBRANCH  22  26
ENDBRANCH   3  20
BRANCH   1  28
HETATM   28  C   UNL     1      43.488 -12.027   6.238  1.00  0.00     0.058 A 
HETATM   29  C   UNL     1      44.826 -12.124   6.646  1.00  0.00     0.032 A 
HETATM   30  C   UNL     1      45.383 -11.154   7.485  1.00  0.00     0.009 A 
HETATM   31  C   UNL     1      44.611 -10.077   7.934  1.00  0.00    -0.062 A 
HETATM   32  C   UNL     1      45.212  -9.013   8.804  1.00  0.00     0.048 C 
HETATM   33  C   UNL     1      43.279  -9.977   7.519  1.00  0.00     0.009 A 
HETATM   34  C   UNL     1      42.716 -10.944   6.679  1.00  0.00     0.032 A 
ENDBRANCH   1  28
TORSDOF 6
ENDMDL
MODEL 2
REMARK VINA RESULT:      -9.6      2.139      8.022
REMARK  6 active torsions:
REMARK  status: ('A' for Active; 'I' for Inactive)
REMARK    1  A    between atoms: C_5  and  N_6 
REMARK    2  A    between atoms: C_8  and  C_9 
REMARK    3  A    between atoms: C_11  and  O_12 
REMARK    4  A    between atoms: C_17  and  C_18 
REMARK       I    between atoms: C_18  and  N_19 
REMARK    5  A    between atoms: N_19  and  N_20 
REMARK       I    between atoms: N_20  and  C_21 
REMARK    6  A    between atoms: C_21  and  C_22 
ROOT
HETATM    1  N   UNL     1      40.708 -14.030   2.080  1.00  0.00    -0.244 N 
HETATM    2  N   UNL     1      41.457 -15.149   2.130  1.00  0.00    -0.166 NA
HETATM    3  C   UNL     1      41.956 -15.213   3.376  1.00  0.00     0.105 A 
HETATM    4  C   UNL     1      41.534 -14.087   4.151  1.00  0.00     0.082 A 
HETATM    5  C   UNL     1      40.743 -13.357   3.276  1.00  0.00     0.138 A 
ENDROOT
BRANCH   4   6
HETATM    6  C   UNL     1      41.853 -13.719   5.523  1.00  0.00     0.274 C 
HETATM    7  N   UNL     1      42.858 -12.775   5.649  1.00  0.00    -0.263 N 
HETATM    8  H   UNL     1      43.209 -12.242   4.858  1.00  0.00     0.190 HD
HETATM    9  O   UNL     1      41.283 -14.179   6.510  1.00  0.00    -0.266 OA
BRANCH   7  10
HETATM   10  N   UNL     1      43.111 -12.219   6.911  1.00  0.00    -0.262 N 
HETATM   11  C   UNL     1      44.316 -11.576   7.109  1.00  0.00     0.286 C 
HETATM   12  O   UNL     1      45.182 -11.557   6.233  1.00  0.00    -0.264 OA
HETATM   13  H   UNL     1      42.335 -12.179   7.566  1.00  0.00     0.190 HD
BRANCH  11  14
HETATM   14  C   UNL     1      44.486 -10.929   8.390  1.00  0.00     0.102 A 
HETATM   15  N   UNL     1      43.485 -10.947   9.339  1.00  0.00    -0.361 N 
HETATM   16  H   UNL     1      42.589 -11.404   9.203  1.00  0.00     0.165 HD
HETATM   17  C   UNL     1      43.879 -10.271  10.460  1.00  0.00     0.088 A 
HETATM   18  C   UNL     1      45.154  -9.805  10.243  1.00  0.00     0.019 A 
HETATM   19  C   UNL     1      45.538 -10.216   8.942  1.00  0.00     0.036 A 
ENDBRANCH  11  14
ENDBRANCH   7  10
ENDBRANCH   4   6
BRANCH   3  20
HETATM   20  C   UNL     1      42.803 -16.359   3.738  1.00  0.00    -0.002 A 
HETATM   21  C   UNL     1      42.889 -17.500   2.927  1.00  0.00     0.050 A 
HETATM   22  C   UNL     1      43.704 -18.575   3.293  1.00  0.00     0.069 A 
HETATM   23  C   UNL     1      44.488 -18.489   4.444  1.00  0.00     0.037 A 
HETATM   24  C   UNL     1      44.431 -17.355   5.250  1.00  0.00     0.004 A 
HETATM   25  C   UNL     1      43.589 -16.299   4.900  1.00  0.00     0.014 A 
BRANCH  22  26
HETATM   26  O   UNL     1      43.836 -19.739   2.585  1.00  0.00    -0.356 OA
HETATM   27  C   UNL     1      43.862 -20.930   3.366  1.00  0.00     0.210 C 
ENDBRANCH  22  26
ENDBRANCH   3  20
BRANCH   1  28
HETATM   28  C   UNL     1      40.006 -13.670   0.894  1.00  0.00     0.058 A 
HETATM   29  C   UNL     1      39.966 -14.569  -0.181  1.00  0.00     0.032 A 
HETATM   30  C   UNL     1      39.272 -14.244  -1.351  1.00  0.00     0.009 A 
HETATM   31  C   UNL     1      38.616 -13.014  -1.467  1.00  0.00    -0.062 A 
HETATM   32  C   UNL     1      37.840 -12.672  -2.704  1.00  0.00     0.048 C 
HETATM   33  C   UNL     1      38.649 -12.122  -0.390  1.00  0.00     0.009 A 
HETATM   34  C   UNL     1      39.341 -12.442   0.784  1.00  0.00     0.032 A 
ENDBRANCH   1  28
TORSDOF 6
ENDMDL
MODEL 3
REMARK VINA RESULT:      -8.6      2.406      8.912
REMARK  6 active torsions:
REMARK  status: ('A' for Active; 'I' for Inactive)
REMARK    1  A    between atoms: C_5  and  N_6 
REMARK    2  A    between atoms: C_8  and  C_9 
REMARK    3  A    between atoms: C_11  and  O_12 
REMARK    4  A    between atoms: C_17  and  C_18 
REMARK       I    between atoms: C_18  and  N_19 
REMARK    5  A    between atoms: N_19  and  N_20 
REMARK       I    between atoms: N_20  and  C_21 
REMARK    6  A    between atoms: C_21  and  C_22 
ROOT
HETATM    1  N   UNL     1      42.416 -15.750   3.535  1.00  0.00    -0.244 N 
HETATM    2  N   UNL     1      41.457 -15.273   2.718  1.00  0.00    -0.166 NA
HETATM    3  C   UNL     1      41.278 -13.986   3.058  1.00  0.00     0.105 A 
HETATM    4  C   UNL     1      42.136 -13.624   4.144  1.00  0.00     0.082 A 
HETATM    5  C   UNL     1      42.840 -14.787   4.416  1.00  0.00     0.138 A 
ENDROOT
BRANCH   4   6
HETATM    6  C   UNL     1      42.262 -12.362   4.862  1.00  0.00     0.274 C 
HETATM    7  N   UNL     1      42.222 -12.476   6.241  1.00  0.00    -0.263 N 
HETATM    8  H   UNL     1      42.296 -13.371   6.718  1.00  0.00     0.190 HD
HETATM    9  O   UNL     1      42.407 -11.271   4.315  1.00  0.00    -0.266 OA
BRANCH   7  10
HETATM   10  N   UNL     1      42.520 -11.350   7.022  1.00  0.00    -0.262 N 
HETATM   11  C   UNL     1      43.791 -11.239   7.546  1.00  0.00     0.286 C 
HETATM   12  O   UNL     1      44.623 -12.138   7.403  1.00  0.00    -0.264 OA
HETATM   13  H   UNL     1      41.836 -10.598   7.034  1.00  0.00     0.190 HD
BRANCH  11  14
HETATM   14  C   UNL     1      44.081 -10.013   8.253  1.00  0.00     0.102 A 
HETATM   15  N   UNL     1      43.128  -9.402   9.042  1.00  0.00    -0.361 N 
HETATM   16  H   UNL     1      42.190  -9.763   9.173  1.00  0.00     0.165 HD
HETATM   17  C   UNL     1      43.635  -8.263   9.604  1.00  0.00     0.088 A 
HETATM   18  C   UNL     1      44.936  -8.127   9.179  1.00  0.00     0.019 A 
HETATM   19  C   UNL     1      45.218  -9.226   8.328  1.00  0.00     0.036 A 
ENDBRANCH  11  14
ENDBRANCH   7  10
ENDBRANCH   4   6
BRANCH   3  20
HETATM   20  C   UNL     1      40.297 -13.188   2.309  1.00  0.00    -0.002 A 
HETATM   21  C   UNL     1      40.281 -13.162   0.907  1.00  0.00     0.050 A 
HETATM   22  C   UNL     1      39.335 -12.397   0.219  1.00  0.00     0.069 A 
HETATM   23  C   UNL     1      38.357 -11.701   0.930  1.00  0.00     0.037 A 
HETATM   24  C   UNL     1      38.344 -11.734   2.322  1.00  0.00     0.004 A 
HETATM   25  C   UNL     1      39.312 -12.469   3.006  1.00  0.00     0.014 A 
BRANCH  22  26
HETATM   26  O   UNL     1      39.253 -12.285  -1.144  1.00  0.00    -0.356 OA
HETATM   27  C   UNL     1      38.199 -13.023  -1.754  1.00  0.00     0.210 C 
ENDBRANCH  22  26
ENDBRANCH   3  20
BRANCH   1  28
HETATM   28  C   UNL     1      42.872 -17.095   3.423  1.00  0.00     0.058 A 
HETATM   29  C   UNL     1      43.543 -17.687   4.502  1.00  0.00     0.032 A 
HETATM   30  C   UNL     1      43.989 -19.010   4.420  1.00  0.00     0.009 A 
HETATM   31  C   UNL     1      43.778 -19.758   3.257  1.00  0.00    -0.062 A 
HETATM   32  C   UNL     1      44.220 -21.189   3.175  1.00  0.00     0.048 C 
HETATM   33  C   UNL     1      43.099 -19.169   2.185  1.00  0.00     0.009 A 
HETATM   34  C   UNL     1      42.650 -17.846   2.261  1.00  0.00     0.032 A 
ENDBRANCH   1  28
TORSDOF 6
ENDMDL
MODEL 4
REMARK VINA RESULT:      -8.5      4.051      8.324
REMARK  6 active torsions:
REMARK  status: ('A' for Active; 'I' for Inactive)
REMARK    1  A    between atoms: C_5  and  N_6 
REMARK    2  A    between atoms: C_8  and  C_9 
REMARK    3  A    between atoms: C_11  and  O_12 
REMARK    4  A    between atoms: C_17  and  C_18 
REMARK       I    between atoms: C_18  and  N_19 
REMARK    5  A    between atoms: N_19  and  N_20 
REMARK       I    between atoms: N_20  and  C_21 
REMARK    6  A    between atoms: C_21  and  C_22 
ROOT
HETATM    1  N   UNL     1      42.828 -14.978   4.602  1.00  0.00    -0.244 N 
HETATM    2  N   UNL     1      43.797 -14.336   5.283  1.00  0.00    -0.166 NA
HETATM    3  C   UNL     1      43.258 -13.183   5.711  1.00  0.00     0.105 A 
HETATM    4  C   UNL     1      41.901 -13.064   5.275  1.00  0.00     0.082 A 
HETATM    5  C   UNL     1      41.674 -14.234   4.565  1.00  0.00     0.138 A 
ENDROOT
BRANCH   4   6
HETATM    6  C   UNL     1      40.944 -11.983   5.465  1.00  0.00     0.274 C 
HETATM    7  N   UNL     1      40.550 -11.785   6.777  1.00  0.00    -0.263 N 
HETATM    8  H   UNL     1      41.026 -12.220   7.563  1.00  0.00     0.190 HD
HETATM    9  O   UNL     1      40.515 -11.275   4.556  1.00  0.00    -0.266 OA
BRANCH   7  10
HETATM   10  N   UNL     1      39.779 -10.655   7.090  1.00  0.00    -0.262 N 
HETATM   11  C   UNL     1      40.423  -9.550   7.606  1.00  0.00     0.286 C 
HETATM   12  O   UNL     1      41.628  -9.575   7.865  1.00  0.00    -0.264 OA
HETATM   13  H   UNL     1      38.812 -10.650   6.776  1.00  0.00     0.190 HD
BRANCH  11  14
HETATM   14  C   UNL     1      39.605  -8.378   7.813  1.00  0.00     0.102 A 
HETATM   15  N   UNL     1      39.051  -7.697   6.749  1.00  0.00    -0.361 N 
HETATM   16  H   UNL     1      39.178  -7.967   5.780  1.00  0.00     0.165 HD
HETATM   17  C   UNL     1      38.323  -6.628   7.196  1.00  0.00     0.088 A 
HETATM   18  C   UNL     1      38.401  -6.610   8.568  1.00  0.00     0.019 A 
HETATM   19  C   UNL     1      39.208  -7.709   8.959  1.00  0.00     0.036 A 
ENDBRANCH  11  14
ENDBRANCH   7  10
ENDBRANCH   4   6
BRANCH   3  20
HETATM   20  C   UNL     1      44.086 -12.273   6.517  1.00  0.00    -0.002 A 
HETATM   21  C   UNL     1      43.808 -12.024   7.869  1.00  0.00     0.050 A 
HETATM   22  C   UNL     1      44.612 -11.157   8.613  1.00  0.00     0.069 A 
HETATM   23  C   UNL     1      45.739 -10.582   8.026  1.00  0.00     0.037 A 
HETATM   24  C   UNL     1      46.043 -10.835   6.691  1.00  0.00     0.004 A 
HETATM   25  C   UNL     1      45.216 -11.672   5.940  1.00  0.00     0.014 A 
BRANCH  22  26
HETATM   26  O   UNL     1      44.411 -10.830   9.927  1.00  0.00    -0.356 OA
HETATM   27  C   UNL     1      45.183  -9.735  10.409  1.00  0.00     0.210 C 
ENDBRANCH  22  26
ENDBRANCH   3  20
BRANCH   1  28
HETATM   28  C   UNL     1      43.060 -16.261   4.030  1.00  0.00     0.058 A 
HETATM   29  C   UNL     1      43.834 -17.197   4.730  1.00  0.00     0.032 A 
HETATM   30  C   UNL     1      44.066 -18.467   4.193  1.00  0.00     0.009 A 
HETATM   31  C   UNL     1      43.536 -18.818   2.947  1.00  0.00    -0.062 A 
HETATM   32  C   UNL     1      43.750 -20.191   2.381  1.00  0.00     0.048 C 
HETATM   33  C   UNL     1      42.756 -17.886   2.254  1.00  0.00     0.009 A 
HETATM   34  C   UNL     1      42.520 -16.614   2.786  1.00  0.00     0.032 A 
ENDBRANCH   1  28
TORSDOF 6
ENDMDL
MODEL 5
REMARK VINA RESULT:      -8.3      3.413      6.869
REMARK  6 active torsions:
REMARK  status: ('A' for Active; 'I' for Inactive)
REMARK    1  A    between atoms: C_5  and  N_6 
REMARK    2  A    between atoms: C_8  and  C_9 
REMARK    3  A    between atoms: C_11  and  O_12 
REMARK    4  A    between atoms: C_17  and  C_18 
REMARK       I    between atoms: C_18  and  N_19 
REMARK    5  A    between atoms: N_19  and  N_20 
REMARK       I    between atoms: N_20  and  C_21 
REMARK    6  A    between atoms: C_21  and  C_22 
ROOT
HETATM    1  N   UNL     1      43.374 -15.048   5.464  1.00  0.00    -0.244 N 
HETATM    2  N   UNL     1      44.094 -14.311   6.333  1.00  0.00    -0.166 NA
HETATM    3  C   UNL     1      43.704 -13.037   6.162  1.00  0.00     0.105 A 
HETATM    4  C   UNL     1      42.714 -12.943   5.134  1.00  0.00     0.082 A 
HETATM    5  C   UNL     1      42.541 -14.254   4.715  1.00  0.00     0.138 A 
ENDROOT
BRANCH   4   6
HETATM    6  C   UNL     1      42.037 -11.776   4.585  1.00  0.00     0.274 C 
HETATM    7  N   UNL     1      42.706 -11.157   3.544  1.00  0.00    -0.263 N 
HETATM    8  H   UNL     1      43.498 -11.584   3.072  1.00  0.00     0.190 HD
HETATM    9  O   UNL     1      40.950 -11.360   4.983  1.00  0.00    -0.266 OA
BRANCH   7  10
HETATM   10  N   UNL     1      42.054 -10.142   2.829  1.00  0.00    -0.262 N 
HETATM   11  C   UNL     1      41.476 -10.467   1.619  1.00  0.00     0.286 C 
HETATM   12  O   UNL     1      41.594 -11.595   1.136  1.00  0.00    -0.264 OA
HETATM   13  H   UNL     1      41.904  -9.258   3.307  1.00  0.00     0.190 HD
BRANCH  11  14
HETATM   14  C   UNL     1      40.727  -9.415   0.971  1.00  0.00     0.102 A 
HETATM   15  N   UNL     1      41.241  -8.141   0.852  1.00  0.00    -0.361 N 
HETATM   16  H   UNL     1      42.152  -7.867   1.202  1.00  0.00     0.165 HD
HETATM   17  C   UNL     1      40.351  -7.327   0.207  1.00  0.00     0.088 A 
HETATM   18  C   UNL     1      39.241  -8.078  -0.102  1.00  0.00     0.019 A 
HETATM   19  C   UNL     1      39.474  -9.391   0.379  1.00  0.00     0.036 A 
ENDBRANCH  11  14
ENDBRANCH   7  10
ENDBRANCH   4   6
BRANCH   3  20
HETATM   20  C   UNL     1      44.307 -11.995   7.006  1.00  0.00    -0.002 A 
HETATM   21  C   UNL     1      43.638 -11.468   8.120  1.00  0.00     0.050 A 
HETATM   22  C   UNL     1      44.236 -10.480   8.907  1.00  0.00     0.069 A 
HETATM   23  C   UNL     1      45.534 -10.057   8.621  1.00  0.00     0.037 A 
HETATM   24  C   UNL     1      46.221 -10.586   7.532  1.00  0.00     0.004 A 
HETATM   25  C   UNL     1      45.608 -11.546   6.726  1.00  0.00     0.014 A 
BRANCH  22  26
HETATM   26  O   UNL     1      43.658  -9.885   9.997  1.00  0.00    -0.356 OA
HETATM   27  C   UNL     1      43.852 -10.560  11.236  1.00  0.00     0.210 C 
ENDBRANCH  22  26
ENDBRANCH   3  20
BRANCH   1  28
HETATM   28  C   UNL     1      43.525 -16.463   5.402  1.00  0.00     0.058 A 
HETATM   29  C   UNL     1      43.369 -17.223   6.570  1.00  0.00     0.032 A 
HETATM   30  C   UNL     1      43.500 -18.615   6.531  1.00  0.00     0.009 A 
HETATM   31  C   UNL     1      43.796 -19.266   5.329  1.00  0.00    -0.062 A 
HETATM   32  C   UNL     1      43.903 -20.761   5.273  1.00  0.00     0.048 C 
HETATM   33  C   UNL     1      43.942 -18.507   4.163  1.00  0.00     0.009 A 
HETATM   34  C   UNL     1      43.811 -17.114   4.195  1.00  0.00     0.032 A 
ENDBRANCH   1  28
TORSDOF 6
ENDMDL
MODEL 6
REMARK VINA RESULT:      -8.3      2.815      6.505
REMARK  6 active torsions:
REMARK  status: ('A' for Active; 'I' for Inactive)
REMARK    1  A    between atoms: C_5  and  N_6 
REMARK    2  A    between atoms: C_8  and  C_9 
REMARK    3  A    between atoms: C_11  and  O_12 
REMARK    4  A    between atoms: C_17  and  C_18 
REMARK       I    between atoms: C_18  and  N_19 
REMARK    5  A    between atoms: N_19  and  N_20 
REMARK       I    between atoms: N_20  and  C_21 
REMARK    6  A    between atoms: C_21  and  C_22 
ROOT
HETATM    1  N   UNL     1      43.070 -15.362   3.520  1.00  0.00    -0.244 N 
HETATM    2  N   UNL     1      43.251 -14.686   4.672  1.00  0.00    -0.166 NA
HETATM    3  C   UNL     1      42.932 -13.407   4.413  1.00  0.00     0.105 A 
HETATM    4  C   UNL     1      42.553 -13.246   3.043  1.00  0.00     0.082 A 
HETATM    5  C   UNL     1      42.663 -14.523   2.513  1.00  0.00     0.138 A 
ENDROOT
BRANCH   4   6
HETATM    6  C   UNL     1      42.168 -12.048   2.309  1.00  0.00     0.274 C 
HETATM    7  N   UNL     1      41.046 -12.194   1.512  1.00  0.00    -0.263 N 
HETATM    8  H   UNL     1      40.429 -12.999   1.579  1.00  0.00     0.190 HD
HETATM    9  O   UNL     1      42.764 -10.975   2.383  1.00  0.00    -0.266 OA
BRANCH   7  10
HETATM   10  N   UNL     1      40.488 -11.055   0.913  1.00  0.00    -0.262 N 
HETATM   11  C   UNL     1      40.570 -10.936  -0.459  1.00  0.00     0.286 C 
HETATM   12  O   UNL     1      41.186 -11.760  -1.137  1.00  0.00    -0.264 OA
HETATM   13  H   UNL     1      39.915 -10.454   1.499  1.00  0.00     0.190 HD
BRANCH  11  14
HETATM   14  C   UNL     1      39.890  -9.800  -1.038  1.00  0.00     0.102 A 
HETATM   15  N   UNL     1      38.721  -9.313  -0.492  1.00  0.00    -0.361 N 
HETATM   16  H   UNL     1      38.275  -9.708   0.329  1.00  0.00     0.165 HD
HETATM   17  C   UNL     1      38.269  -8.242  -1.213  1.00  0.00     0.088 A 
HETATM   18  C   UNL     1      39.154  -8.025  -2.243  1.00  0.00     0.019 A 
HETATM   19  C   UNL     1      40.173  -9.004  -2.136  1.00  0.00     0.036 A 
ENDBRANCH  11  14
ENDBRANCH   7  10
ENDBRANCH   4   6
BRANCH   3  20
HETATM   20  C   UNL     1      43.009 -12.426   5.505  1.00  0.00    -0.002 A 
HETATM   21  C   UNL     1      44.141 -12.322   6.326  1.00  0.00     0.050 A 
HETATM   22  C   UNL     1      44.189 -11.378   7.356  1.00  0.00     0.069 A 
HETATM   23  C   UNL     1      43.128 -10.489   7.531  1.00  0.00     0.037 A 
HETATM   24  C   UNL     1      42.006 -10.564   6.710  1.00  0.00     0.004 A 
HETATM   25  C   UNL     1      41.945 -11.532   5.707  1.00  0.00     0.014 A 
BRANCH  22  26
HETATM   26  O   UNL     1      45.234 -11.214   8.225  1.00  0.00    -0.356 OA
HETATM   27  C   UNL     1      46.216 -10.263   7.827  1.00  0.00     0.210 C 
ENDBRANCH  22  26
ENDBRANCH   3  20
BRANCH   1  28
HETATM   28  C   UNL     1      43.297 -16.767   3.452  1.00  0.00     0.058 A 
HETATM   29  C   UNL     1      43.889 -17.423   4.541  1.00  0.00     0.032 A 
HETATM   30  C   UNL     1      44.110 -18.803   4.501  1.00  0.00     0.009 A 
HETATM   31  C   UNL     1      43.752 -19.546   3.371  1.00  0.00    -0.062 A 
HETATM   32  C   UNL     1      43.953 -21.032   3.336  1.00  0.00     0.048 C 
HETATM   33  C   UNL     1      43.153 -18.892   2.290  1.00  0.00     0.009 A 
HETATM   34  C   UNL     1      42.928 -17.511   2.323  1.00  0.00     0.032 A 
ENDBRANCH   1  28
TORSDOF 6
ENDMDL
MODEL 7
REMARK VINA RESULT:      -8.3      2.984      8.044
REMARK  6 active torsions:
REMARK  status: ('A' for Active; 'I' for Inactive)
REMARK    1  A    between atoms: C_5  and  N_6 
REMARK    2  A    between atoms: C_8  and  C_9 
REMARK    3  A    between atoms: C_11  and  O_12 
REMARK    4  A    between atoms: C_17  and  C_18 
REMARK       I    between atoms: C_18  and  N_19 
REMARK    5  A    between atoms: N_19  and  N_20 
REMARK       I    between atoms: N_20  and  C_21 
REMARK    6  A    between atoms: C_21  and  C_22 
ROOT
HETATM    1  N   UNL     1      40.215 -13.799   2.252  1.00  0.00    -0.244 N 
HETATM    2  N   UNL     1      41.256 -14.554   2.655  1.00  0.00    -0.166 NA
HETATM    3  C   UNL     1      41.335 -14.407   3.988  1.00  0.00     0.105 A 
HETATM    4  C   UNL     1      40.324 -13.512   4.461  1.00  0.00     0.082 A 
HETATM    5  C   UNL     1      39.638 -13.146   3.313  1.00  0.00     0.138 A 
ENDROOT
BRANCH   4   6
HETATM    6  C   UNL     1      40.052 -13.030   5.809  1.00  0.00     0.274 C 
HETATM    7  N   UNL     1      40.244 -11.671   5.986  1.00  0.00    -0.263 N 
HETATM    8  H   UNL     1      40.374 -11.031   5.207  1.00  0.00     0.190 HD
HETATM    9  O   UNL     1      39.665 -13.746   6.730  1.00  0.00    -0.266 OA
BRANCH   7  10
HETATM   10  N   UNL     1      39.833 -11.080   7.190  1.00  0.00    -0.262 N 
HETATM   11  C   UNL     1      40.471  -9.928   7.600  1.00  0.00     0.286 C 
HETATM   12  O   UNL     1      41.429  -9.470   6.974  1.00  0.00    -0.264 OA
HETATM   13  H   UNL     1      38.985 -11.440   7.619  1.00  0.00     0.190 HD
BRANCH  11  14
HETATM   14  C   UNL     1      39.942  -9.300   8.788  1.00  0.00     0.102 A 
HETATM   15  N   UNL     1      40.291  -9.744  10.047  1.00  0.00    -0.361 N 
HETATM   16  H   UNL     1      40.923 -10.519  10.215  1.00  0.00     0.165 HD
HETATM   17  C   UNL     1      39.666  -8.996  11.006  1.00  0.00     0.088 A 
HETATM   18  C   UNL     1      38.899  -8.049  10.368  1.00  0.00     0.019 A 
HETATM   19  C   UNL     1      39.071  -8.239   8.973  1.00  0.00     0.036 A 
ENDBRANCH  11  14
ENDBRANCH   7  10
ENDBRANCH   4   6
BRANCH   3  20
HETATM   20  C   UNL     1      42.376 -15.145   4.718  1.00  0.00    -0.002 A 
HETATM   21  C   UNL     1      42.741 -16.452   4.364  1.00  0.00     0.050 A 
HETATM   22  C   UNL     1      43.736 -17.130   5.074  1.00  0.00     0.069 A 
HETATM   23  C   UNL     1      44.417 -16.481   6.104  1.00  0.00     0.037 A 
HETATM   24  C   UNL     1      44.082 -15.176   6.455  1.00  0.00     0.004 A 
HETATM   25  C   UNL     1      43.063 -14.515   5.768  1.00  0.00     0.014 A 
BRANCH  22  26
HETATM   26  O   UNL     1      44.146 -18.413   4.824  1.00  0.00    -0.356 OA
HETATM   27  C   UNL     1      44.152 -18.795   3.451  1.00  0.00     0.210 C 
ENDBRANCH  22  26
ENDBRANCH   3  20
BRANCH   1  28
HETATM   28  C   UNL     1      39.834 -13.748   0.881  1.00  0.00     0.058 A 
HETATM   29  C   UNL     1      39.414 -12.529   0.328  1.00  0.00     0.032 A 
HETATM   30  C   UNL     1      39.046 -12.452  -1.019  1.00  0.00     0.009 A 
HETATM   31  C   UNL     1      39.085 -13.591  -1.831  1.00  0.00    -0.062 A 
HETATM   32  C   UNL     1      38.727 -13.508  -3.285  1.00  0.00     0.048 C 
HETATM   33  C   UNL     1      39.514 -14.803  -1.280  1.00  0.00     0.009 A 
HETATM   34  C   UNL     1      39.883 -14.887   0.067  1.00  0.00     0.032 A 
ENDBRANCH   1  28
TORSDOF 6
ENDMDL
MODEL 8
REMARK VINA RESULT:      -8.1      3.080      7.890
REMARK  6 active torsions:
REMARK  status: ('A' for Active; 'I' for Inactive)
REMARK    1  A    between atoms: C_5  and  N_6 
REMARK    2  A    between atoms: C_8  and  C_9 
REMARK    3  A    between atoms: C_11  and  O_12 
REMARK    4  A    between atoms: C_17  and  C_18 
REMARK       I    between atoms: C_18  and  N_19 
REMARK    5  A    between atoms: N_19  and  N_20 
REMARK       I    between atoms: N_20  and  C_21 
REMARK    6  A    between atoms: C_21  and  C_22 
ROOT
HETATM    1  N   UNL     1      42.740 -15.598   3.189  1.00  0.00    -0.244 N 
HETATM    2  N   UNL     1      42.047 -15.499   2.038  1.00  0.00    -0.166 NA
HETATM    3  C   UNL     1      41.796 -14.191   1.860  1.00  0.00     0.105 A 
HETATM    4  C   UNL     1      42.326 -13.421   2.943  1.00  0.00     0.082 A 
HETATM    5  C   UNL     1      42.914 -14.366   3.769  1.00  0.00     0.138 A 
ENDROOT
BRANCH   4   6
HETATM    6  C   UNL     1      42.263 -11.987   3.195  1.00  0.00     0.274 C 
HETATM    7  N   UNL     1      41.113 -11.564   3.839  1.00  0.00    -0.263 N 
HETATM    8  H   UNL     1      40.460 -12.211   4.272  1.00  0.00     0.190 HD
HETATM    9  O   UNL     1      43.151 -11.195   2.887  1.00  0.00    -0.266 OA
BRANCH   7  10
HETATM   10  N   UNL     1      41.039 -10.239   4.291  1.00  0.00    -0.262 N 
HETATM   11  C   UNL     1      40.926 -10.020   5.649  1.00  0.00     0.286 C 
HETATM   12  O   UNL     1      40.810 -10.958   6.440  1.00  0.00    -0.264 OA
HETATM   13  H   UNL     1      41.229  -9.505   3.615  1.00  0.00     0.190 HD
BRANCH  11  14
HETATM   14  C   UNL     1      40.959  -8.640   6.073  1.00  0.00     0.102 A 
HETATM   15  N   UNL     1      39.900  -7.790   5.828  1.00  0.00    -0.361 N 
HETATM   16  H   UNL     1      39.053  -8.072   5.347  1.00  0.00     0.165 HD
HETATM   17  C   UNL     1      40.166  -6.543   6.321  1.00  0.00     0.088 A 
HETATM   18  C   UNL     1      41.414  -6.575   6.897  1.00  0.00     0.019 A 
HETATM   19  C   UNL     1      41.916  -7.893   6.742  1.00  0.00     0.036 A 
ENDBRANCH  11  14
ENDBRANCH   7  10
ENDBRANCH   4   6
BRANCH   3  20
HETATM   20  C   UNL     1      41.067 -13.770   0.655  1.00  0.00    -0.002 A 
HETATM   21  C   UNL     1      40.320 -14.677  -0.111  1.00  0.00     0.050 A 
HETATM   22  C   UNL     1      39.634 -14.250  -1.252  1.00  0.00     0.069 A 
HETATM   23  C   UNL     1      39.640 -12.898  -1.598  1.00  0.00     0.037 A 
HETATM   24  C   UNL     1      40.358 -11.981  -0.836  1.00  0.00     0.004 A 
HETATM   25  C   UNL     1      41.072 -12.417   0.281  1.00  0.00     0.014 A 
BRANCH  22  26
HETATM   26  O   UNL     1      38.900 -15.058  -2.077  1.00  0.00    -0.356 OA
HETATM   27  C   UNL     1      38.115 -14.382  -3.055  1.00  0.00     0.210 C 
ENDBRANCH  22  26
ENDBRANCH   3  20
BRANCH   1  28
HETATM   28  C   UNL     1      43.193 -16.862   3.665  1.00  0.00     0.058 A 
HETATM   29  C   UNL     1      43.316 -17.073   5.046  1.00  0.00     0.032 A 
HETATM   30  C   UNL     1      43.748 -18.309   5.537  1.00  0.00     0.009 A 
HETATM   31  C   UNL     1      44.071 -19.348   4.657  1.00  0.00    -0.062 A 
HETATM   32  C   UNL     1      44.500 -20.688   5.178  1.00  0.00     0.048 C 
HETATM   33  C   UNL     1      43.938 -19.138   3.281  1.00  0.00     0.009 A 
HETATM   34  C   UNL     1      43.506 -17.904   2.783  1.00  0.00     0.032 A 
ENDBRANCH   1  28
TORSDOF 6
ENDMDL
MODEL 9
REMARK VINA RESULT:      -8.0      3.830      9.047
REMARK  6 active torsions:
REMARK  status: ('A' for Active; 'I' for Inactive)
REMARK    1  A    between atoms: C_5  and  N_6 
REMARK    2  A    between atoms: C_8  and  C_9 
REMARK    3  A    between atoms: C_11  and  O_12 
REMARK    4  A    between atoms: C_17  and  C_18 
REMARK       I    between atoms: C_18  and  N_19 
REMARK    5  A    between atoms: N_19  and  N_20 
REMARK       I    between atoms: N_20  and  C_21 
REMARK    6  A    between atoms: C_21  and  C_22 
ROOT
HETATM    1  N   UNL     1      42.477 -14.640   3.886  1.00  0.00    -0.244 N 
HETATM    2  N   UNL     1      41.890 -13.844   2.970  1.00  0.00    -0.166 NA
HETATM    3  C   UNL     1      41.705 -12.655   3.567  1.00  0.00     0.105 A 
HETATM    4  C   UNL     1      42.169 -12.688   4.920  1.00  0.00     0.082 A 
HETATM    5  C   UNL     1      42.648 -13.980   5.077  1.00  0.00     0.138 A 
ENDROOT
BRANCH   4   6
HETATM    6  C   UNL     1      42.140 -11.657   5.948  1.00  0.00     0.274 C 
HETATM    7  N   UNL     1      40.881 -11.378   6.451  1.00  0.00    -0.263 N 
HETATM    8  H   UNL     1      40.075 -11.969   6.265  1.00  0.00     0.190 HD
HETATM    9  O   UNL     1      43.139 -11.075   6.369  1.00  0.00    -0.266 OA
BRANCH   7  10
HETATM   10  N   UNL     1      40.769 -10.539   7.569  1.00  0.00    -0.262 N 
HETATM   11  C   UNL     1      39.514 -10.081   7.916  1.00  0.00     0.286 C 
HETATM   12  O   UNL     1      38.527 -10.332   7.221  1.00  0.00    -0.264 OA
HETATM   13  H   UNL     1      41.590 -10.437   8.159  1.00  0.00     0.190 HD
BRANCH  11  14
HETATM   14  C   UNL     1      39.435  -9.308   9.133  1.00  0.00     0.102 A 
HETATM   15  N   UNL     1      39.941  -9.793  10.322  1.00  0.00    -0.361 N 
HETATM   16  H   UNL     1      40.388 -10.698  10.415  1.00  0.00     0.165 HD
HETATM   17  C   UNL     1      39.748  -8.886  11.327  1.00  0.00     0.088 A 
HETATM   18  C   UNL     1      39.109  -7.793  10.790  1.00  0.00     0.019 A 
HETATM   19  C   UNL     1      38.910  -8.057   9.411  1.00  0.00     0.036 A 
ENDBRANCH  11  14
ENDBRANCH   7  10
ENDBRANCH   4   6
BRANCH   3  20
HETATM   20  C   UNL     1      41.099 -11.563   2.791  1.00  0.00    -0.002 A 
HETATM   21  C   UNL     1      39.775 -11.154   3.001  1.00  0.00     0.050 A 
HETATM   22  C   UNL     1      39.224 -10.111   2.251  1.00  0.00     0.069 A 
HETATM   23  C   UNL     1      40.016  -9.427   1.328  1.00  0.00     0.037 A 
HETATM   24  C   UNL     1      41.340  -9.806   1.123  1.00  0.00     0.004 A 
HETATM   25  C   UNL     1      41.876 -10.872   1.846  1.00  0.00     0.014 A 
BRANCH  22  26
HETATM   26  O   UNL     1      37.937  -9.655   2.363  1.00  0.00    -0.356 OA
HETATM   27  C   UNL     1      37.804  -8.265   2.642  1.00  0.00     0.210 C 
ENDBRANCH  22  26
ENDBRANCH   3  20
BRANCH   1  28
HETATM   28  C   UNL     1      42.839 -15.980   3.568  1.00  0.00     0.058 A 
HETATM   29  C   UNL     1      43.614 -16.717   4.474  1.00  0.00     0.032 A 
HETATM   30  C   UNL     1      43.972 -18.039   4.189  1.00  0.00     0.009 A 
HETATM   31  C   UNL     1      43.568 -18.640   2.992  1.00  0.00    -0.062 A 
HETATM   32  C   UNL     1      43.917 -20.068   2.695  1.00  0.00     0.048 C 
HETATM   33  C   UNL     1      42.786 -17.906   2.093  1.00  0.00     0.009 A 
HETATM   34  C   UNL     1      42.425 -16.584   2.373  1.00  0.00     0.032 A 
ENDBRANCH   1  28
TORSDOF 6
ENDMDL
MODEL 10
REMARK VINA RESULT:      -8.0      3.788      7.951
REMARK  6 active torsions:
REMARK  status: ('A' for Active; 'I' for Inactive)
REMARK    1  A    between atoms: C_5  and  N_6 
REMARK    2  A    between atoms: C_8  and  C_9 
REMARK    3  A    between atoms: C_11  and  O_12 
REMARK    4  A    between atoms: C_17  and  C_18 
REMARK       I    between atoms: C_18  and  N_19 
REMARK    5  A    between atoms: N_19  and  N_20 
REMARK       I    between atoms: N_20  and  C_21 
REMARK    6  A    between atoms: C_21  and  C_22 
ROOT
HETATM    1  N   UNL     1      41.460 -15.258   2.516  1.00  0.00    -0.244 N 
HETATM    2  N   UNL     1      41.474 -14.992   1.195  1.00  0.00    -0.166 NA
HETATM    3  C   UNL     1      40.681 -13.923   1.016  1.00  0.00     0.105 A 
HETATM    4  C   UNL     1      40.119 -13.495   2.260  1.00  0.00     0.082 A 
HETATM    5  C   UNL     1      40.643 -14.383   3.187  1.00  0.00     0.138 A 
ENDROOT
BRANCH   4   6
HETATM    6  C   UNL     1      39.184 -12.414   2.546  1.00  0.00     0.274 C 
HETATM    7  N   UNL     1      39.402 -11.767   3.750  1.00  0.00    -0.263 N 
HETATM    8  H   UNL     1      40.249 -11.897   4.296  1.00  0.00     0.190 HD
HETATM    9  O   UNL     1      38.276 -12.072   1.792  1.00  0.00    -0.266 OA
BRANCH   7  10
HETATM   10  N   UNL     1      38.677 -10.599   4.031  1.00  0.00    -0.262 N 
HETATM   11  C   UNL     1      39.011  -9.883   5.162  1.00  0.00     0.286 C 
HETATM   12  O   UNL     1      39.865 -10.293   5.950  1.00  0.00    -0.264 OA
HETATM   13  H   UNL     1      38.051 -10.255   3.309  1.00  0.00     0.190 HD
BRANCH  11  14
HETATM   14  C   UNL     1      38.310  -8.634   5.352  1.00  0.00     0.102 A 
HETATM   15  N   UNL     1      37.141  -8.361   4.672  1.00  0.00    -0.361 N 
HETATM   16  H   UNL     1      36.710  -9.000   4.014  1.00  0.00     0.165 HD
HETATM   17  C   UNL     1      36.668  -7.125   5.016  1.00  0.00     0.088 A 
HETATM   18  C   UNL     1      37.537  -6.582   5.934  1.00  0.00     0.019 A 
HETATM   19  C   UNL     1      38.571  -7.529   6.145  1.00  0.00     0.036 A 
ENDBRANCH  11  14
ENDBRANCH   7  10
ENDBRANCH   4   6
BRANCH   3  20
HETATM   20  C   UNL     1      40.523 -13.381  -0.341  1.00  0.00    -0.002 A 
HETATM   21  C   UNL     1      40.980 -12.100  -0.683  1.00  0.00     0.050 A 
HETATM   22  C   UNL     1      40.819 -11.609  -1.982  1.00  0.00     0.069 A 
HETATM   23  C   UNL     1      40.256 -12.423  -2.965  1.00  0.00     0.037 A 
HETATM   24  C   UNL     1      39.817 -13.706  -2.648  1.00  0.00     0.004 A 
HETATM   25  C   UNL     1      39.945 -14.179  -1.342  1.00  0.00     0.014 A 
BRANCH  22  26
HETATM   26  O   UNL     1      41.207 -10.367  -2.407  1.00  0.00    -0.356 OA
HETATM   27  C   UNL     1      40.660  -9.951  -3.655  1.00  0.00     0.210 C 
ENDBRANCH  22  26
ENDBRANCH   3  20
BRANCH   1  28
HETATM   28  C   UNL     1      42.227 -16.329   3.056  1.00  0.00     0.058 A 
HETATM   29  C   UNL     1      42.424 -16.404   4.443  1.00  0.00     0.032 A 
HETATM   30  C   UNL     1      43.164 -17.453   4.997  1.00  0.00     0.009 A 
HETATM   31  C   UNL     1      43.725 -18.437   4.176  1.00  0.00    -0.062 A 
HETATM   32  C   UNL     1      44.489 -19.585   4.767  1.00  0.00     0.048 C 
HETATM   33  C   UNL     1      43.520 -18.366   2.794  1.00  0.00     0.009 A 
HETATM   34  C   UNL     1      42.780 -17.319   2.233  1.00  0.00     0.032 A 
ENDBRANCH   1  28
TORSDOF 6
ENDMDL
