MODEL 1
REMARK VINA RESULT:      -9.1      0.000      0.000
REMARK  6 active torsions:
REMARK  status: ('A' for Active; 'I' for Inactive)
REMARK    1  A    between atoms: C_2  and  C_3 
REMARK    2  A    between atoms: C_3  and  C_4 
REMARK    3  A    between atoms: C_4  and  C_5 
REMARK    4  A    between atoms: C_4  and  C_21 
REMARK       I    between atoms: C_5  and  N_6 
REMARK    5  A    between atoms: N_6  and  C_7 
REMARK    6  A    between atoms: C_14  and  C_15 
REMARK       I    between atoms: C_15  and  N_16 
ROOT
HETATM    1  C   UNL     1      40.476 -14.671   1.069  1.00  0.00     0.035 A 
HETATM    2  C   UNL     1      39.856 -14.986  -0.148  1.00  0.00     0.046 A 
HETATM    3  C   UNL     1      39.414 -13.945  -0.995  1.00  0.00     0.030 A 
HETATM    4  C   UNL     1      39.592 -12.628  -0.589  1.00  0.00     0.063 A 
HETATM    5  N   UNL     1      39.071 -11.865  -1.595  1.00  0.00    -0.277 N 
HETATM    6  H   UNL     1      39.025 -10.853  -1.636  1.00  0.00     0.189 HD
HETATM    7  N   UNL     1      38.581 -12.566  -2.630  1.00  0.00    -0.168 NA
HETATM    8  C   UNL     1      38.788 -13.855  -2.276  1.00  0.00     0.156 A 
HETATM    9  C   UNL     1      40.198 -12.278   0.619  1.00  0.00     0.034 A 
HETATM   10  C   UNL     1      40.642 -13.329   1.433  1.00  0.00     0.032 A 
ENDROOT
BRANCH   1  11
HETATM   11  N   UNL     1      40.985 -15.637   1.963  1.00  0.00    -0.327 N 
HETATM   12  C   UNL     1      42.275 -16.156   2.016  1.00  0.00     0.231 C 
HETATM   13  O   UNL     1      43.161 -15.929   1.200  1.00  0.00    -0.272 OA
HETATM   14  H   UNL     1      40.345 -15.959   2.680  1.00  0.00     0.169 HD
BRANCH  12  15
HETATM   15  C   UNL     1      42.476 -17.095   3.228  1.00  0.00     0.115 C 
BRANCH  15  16
HETATM   16  C   UNL     1      43.688 -18.071   3.125  1.00  0.00    -0.001 C 
HETATM   17  C   UNL     1      43.383 -19.368   2.359  1.00  0.00     0.011 C 
BRANCH  16  18
HETATM   18  C   UNL     1      44.329 -18.422   4.488  1.00  0.00     0.001 C 
HETATM   19  C   UNL     1      44.142 -19.874   4.907  1.00  0.00     0.005 C 
ENDBRANCH  16  18
ENDBRANCH  15  16
BRANCH  15  20
HETATM   20  C   UNL     1      42.475 -16.346   4.563  1.00  0.00    -0.045 A 
HETATM   21  C   UNL     1      43.300 -15.221   4.724  1.00  0.00     0.008 A 
HETATM   22  C   UNL     1      43.317 -14.516   5.929  1.00  0.00     0.001 A 
HETATM   23  C   UNL     1      42.508 -14.924   6.987  1.00  0.00     0.000 A 
HETATM   24  C   UNL     1      41.678 -16.032   6.840  1.00  0.00     0.001 A 
HETATM   25  C   UNL     1      41.656 -16.737   5.635  1.00  0.00     0.008 A 
ENDBRANCH  15  20
ENDBRANCH  12  15
ENDBRANCH   1  11
BRANCH   8  26
HETATM   26  C   UNL     1      38.399 -14.959  -3.164  1.00  0.00     0.270 C 
HETATM   27  N   UNL     1      38.279 -16.167  -2.533  1.00  0.00    -0.365 N 
HETATM   28  H   UNL     1      38.450 -16.212  -1.535  1.00  0.00     0.159 HD
HETATM   29  H   UNL     1      37.997 -16.979  -3.059  1.00  0.00     0.159 HD
HETATM   30  O   UNL     1      38.183 -14.848  -4.366  1.00  0.00    -0.266 OA
ENDBRANCH   8  26
TORSDOF 6
ENDMDL
MODEL 2
REMARK VINA RESULT:      -8.9      1.424      3.416
REMARK  6 active torsions:
REMARK  status: ('A' for Active; 'I' for Inactive)
REMARK    1  A    between atoms: C_2  and  C_3 
REMARK    2  A    between atoms: C_3  and  C_4 
REMARK    3  A    between atoms: C_4  and  C_5 
REMARK    4  A    between atoms: C_4  and  C_21 
REMARK       I    between atoms: C_5  and  N_6 
REMARK    5  A    between atoms: N_6  and  C_7 
REMARK    6  A    between atoms: C_14  and  C_15 
REMARK       I    between atoms: C_15  and  N_16 
ROOT
HETATM    1  C   UNL     1      41.027 -14.102   2.235  1.00  0.00     0.035 A 
HETATM    2  C   UNL     1      40.711 -14.354   0.892  1.00  0.00     0.046 A 
HETATM    3  C   UNL     1      39.750 -13.549   0.240  1.00  0.00     0.030 A 
HETATM    4  C   UNL     1      39.127 -12.534   0.955  1.00  0.00     0.063 A 
HETATM    5  N   UNL     1      38.264 -11.947   0.075  1.00  0.00    -0.277 N 
HETATM    6  H   UNL     1      37.639 -11.169   0.255  1.00  0.00     0.189 HD
HETATM    7  N   UNL     1      38.278 -12.477  -1.158  1.00  0.00    -0.168 NA
HETATM    8  C   UNL     1      39.194 -13.469  -1.074  1.00  0.00     0.156 A 
HETATM    9  C   UNL     1      39.411 -12.261   2.295  1.00  0.00     0.034 A 
HETATM   10  C   UNL     1      40.379 -13.062   2.914  1.00  0.00     0.032 A 
ENDROOT
BRANCH   1  11
HETATM   11  N   UNL     1      41.998 -14.824   2.960  1.00  0.00    -0.327 N 
HETATM   12  C   UNL     1      41.809 -15.950   3.755  1.00  0.00     0.231 C 
HETATM   13  O   UNL     1      40.721 -16.436   4.044  1.00  0.00    -0.272 OA
HETATM   14  H   UNL     1      42.955 -14.509   2.855  1.00  0.00     0.169 HD
BRANCH  12  15
HETATM   15  C   UNL     1      43.145 -16.529   4.274  1.00  0.00     0.115 C 
BRANCH  15  16
HETATM   16  C   UNL     1      43.388 -16.382   5.807  1.00  0.00    -0.001 C 
HETATM   17  C   UNL     1      42.110 -16.481   6.655  1.00  0.00     0.011 C 
BRANCH  16  18
HETATM   18  C   UNL     1      44.164 -15.103   6.200  1.00  0.00     0.001 C 
HETATM   19  C   UNL     1      43.279 -13.970   6.703  1.00  0.00     0.005 C 
ENDBRANCH  16  18
ENDBRANCH  15  16
BRANCH  15  20
HETATM   20  C   UNL     1      43.387 -17.967   3.806  1.00  0.00    -0.045 A 
HETATM   21  C   UNL     1      43.915 -18.907   4.706  1.00  0.00     0.008 A 
HETATM   22  C   UNL     1      44.143 -20.226   4.308  1.00  0.00     0.001 A 
HETATM   23  C   UNL     1      43.842 -20.623   3.007  1.00  0.00     0.000 A 
HETATM   24  C   UNL     1      43.309 -19.706   2.106  1.00  0.00     0.001 A 
HETATM   25  C   UNL     1      43.077 -18.387   2.502  1.00  0.00     0.008 A 
ENDBRANCH  15  20
ENDBRANCH  12  15
ENDBRANCH   1  11
BRANCH   8  26
HETATM   26  C   UNL     1      39.524 -14.300  -2.239  1.00  0.00     0.270 C 
HETATM   27  N   UNL     1      38.672 -15.354  -2.432  1.00  0.00    -0.365 N 
HETATM   28  H   UNL     1      37.898 -15.475  -1.790  1.00  0.00     0.159 HD
HETATM   29  H   UNL     1      38.809 -15.968  -3.219  1.00  0.00     0.159 HD
HETATM   30  O   UNL     1      40.464 -14.099  -3.001  1.00  0.00    -0.266 OA
ENDBRANCH   8  26
TORSDOF 6
ENDMDL
MODEL 3
REMARK VINA RESULT:      -8.5      2.626      7.833
REMARK  6 active torsions:
REMARK  status: ('A' for Active; 'I' for Inactive)
REMARK    1  A    between atoms: C_2  and  C_3 
REMARK    2  A    between atoms: C_3  and  C_4 
REMARK    3  A    between atoms: C_4  and  C_5 
REMARK    4  A    between atoms: C_4  and  C_21 
REMARK       I    between atoms: C_5  and  N_6 
REMARK    5  A    between atoms: N_6  and  C_7 
REMARK    6  A    between atoms: C_14  and  C_15 
REMARK       I    between atoms: C_15  and  N_16 
ROOT
HETATM    1  C   UNL     1      42.543 -15.738   1.914  1.00  0.00     0.035 A 
HETATM    2  C   UNL     1      42.868 -17.101   1.974  1.00  0.00     0.046 A 
HETATM    3  C   UNL     1      43.397 -17.639   3.169  1.00  0.00     0.030 A 
HETATM    4  C   UNL     1      43.597 -16.794   4.254  1.00  0.00     0.063 A 
HETATM    5  N   UNL     1      44.112 -17.588   5.240  1.00  0.00    -0.277 N 
HETATM    6  H   UNL     1      44.384 -17.305   6.175  1.00  0.00     0.189 HD
HETATM    7  N   UNL     1      44.251 -18.879   4.901  1.00  0.00    -0.168 NA
HETATM    8  C   UNL     1      43.810 -18.928   3.623  1.00  0.00     0.156 A 
HETATM    9  C   UNL     1      43.293 -15.432   4.227  1.00  0.00     0.034 A 
HETATM   10  C   UNL     1      42.755 -14.927   3.036  1.00  0.00     0.032 A 
ENDROOT
BRANCH   1  11
HETATM   11  N   UNL     1      41.976 -15.117   0.782  1.00  0.00    -0.327 N 
HETATM   12  C   UNL     1      40.641 -14.786   0.568  1.00  0.00     0.231 C 
HETATM   13  O   UNL     1      39.711 -15.094   1.304  1.00  0.00    -0.272 OA
HETATM   14  H   UNL     1      42.625 -14.838   0.055  1.00  0.00     0.169 HD
BRANCH  12  15
HETATM   15  C   UNL     1      40.440 -13.991  -0.744  1.00  0.00     0.115 C 
BRANCH  15  16
HETATM   16  C   UNL     1      39.037 -14.141  -1.409  1.00  0.00    -0.001 C 
HETATM   17  C   UNL     1      39.088 -14.569  -2.884  1.00  0.00     0.011 C 
BRANCH  16  18
HETATM   18  C   UNL     1      38.141 -12.888  -1.271  1.00  0.00     0.001 C 
HETATM   19  C   UNL     1      37.636 -12.337  -2.598  1.00  0.00     0.005 C 
ENDBRANCH  16  18
ENDBRANCH  15  16
BRANCH  15  20
HETATM   20  C   UNL     1      40.839 -12.519  -0.609  1.00  0.00    -0.045 A 
HETATM   21  C   UNL     1      40.844 -11.918   0.660  1.00  0.00     0.008 A 
HETATM   22  C   UNL     1      41.207 -10.578   0.812  1.00  0.00     0.001 A 
HETATM   23  C   UNL     1      41.573  -9.824  -0.300  1.00  0.00     0.000 A 
HETATM   24  C   UNL     1      41.583 -10.408  -1.564  1.00  0.00     0.001 A 
HETATM   25  C   UNL     1      41.224 -11.749  -1.719  1.00  0.00     0.008 A 
ENDBRANCH  15  20
ENDBRANCH  12  15
ENDBRANCH   1  11
BRANCH   8  26
HETATM   26  C   UNL     1      43.783 -20.193   2.877  1.00  0.00     0.270 C 
HETATM   27  N   UNL     1      43.993 -21.303   3.650  1.00  0.00    -0.365 N 
HETATM   28  H   UNL     1      44.135 -21.179   4.646  1.00  0.00     0.159 HD
HETATM   29  H   UNL     1      43.972 -22.217   3.227  1.00  0.00     0.159 HD
HETATM   30  O   UNL     1      43.586 -20.291   1.670  1.00  0.00    -0.266 OA
ENDBRANCH   8  26
TORSDOF 6
ENDMDL
MODEL 4
REMARK VINA RESULT:      -8.2      2.349      4.423
REMARK  6 active torsions:
REMARK  status: ('A' for Active; 'I' for Inactive)
REMARK    1  A    between atoms: C_2  and  C_3 
REMARK    2  A    between atoms: C_3  and  C_4 
REMARK    3  A    between atoms: C_4  and  C_5 
REMARK    4  A    between atoms: C_4  and  C_21 
REMARK       I    between atoms: C_5  and  N_6 
REMARK    5  A    between atoms: N_6  and  C_7 
REMARK    6  A    between atoms: C_14  and  C_15 
REMARK       I    between atoms: C_15  and  N_16 
ROOT
HETATM    1  C   UNL     1      41.844 -14.525   1.792  1.00  0.00     0.035 A 
HETATM    2  C   UNL     1      41.955 -13.150   1.540  1.00  0.00     0.046 A 
HETATM    3  C   UNL     1      41.089 -12.542   0.604  1.00  0.00     0.030 A 
HETATM    4  C   UNL     1      40.157 -13.330  -0.059  1.00  0.00     0.063 A 
HETATM    5  N   UNL     1      39.483 -12.476  -0.886  1.00  0.00    -0.277 N 
HETATM    6  H   UNL     1      38.732 -12.708  -1.525  1.00  0.00     0.189 HD
HETATM    7  N   UNL     1      39.882 -11.196  -0.811  1.00  0.00    -0.168 NA
HETATM    8  C   UNL     1      40.874 -11.219   0.108  1.00  0.00     0.156 A 
HETATM    9  C   UNL     1      40.025 -14.702   0.160  1.00  0.00     0.034 A 
HETATM   10  C   UNL     1      40.883 -15.278   1.105  1.00  0.00     0.032 A 
ENDROOT
BRANCH   1  11
HETATM   11  N   UNL     1      42.634 -15.216   2.735  1.00  0.00    -0.327 N 
HETATM   12  C   UNL     1      42.221 -16.165   3.665  1.00  0.00     0.231 C 
HETATM   13  O   UNL     1      41.056 -16.472   3.889  1.00  0.00    -0.272 OA
HETATM   14  H   UNL     1      43.630 -15.030   2.701  1.00  0.00     0.169 HD
BRANCH  12  15
HETATM   15  C   UNL     1      43.411 -16.790   4.428  1.00  0.00     0.115 C 
BRANCH  15  16
HETATM   16  C   UNL     1      43.432 -16.529   5.966  1.00  0.00    -0.001 C 
HETATM   17  C   UNL     1      42.038 -16.397   6.597  1.00  0.00     0.011 C 
BRANCH  16  18
HETATM   18  C   UNL     1      44.299 -15.319   6.384  1.00  0.00     0.001 C 
HETATM   19  C   UNL     1      43.510 -14.034   6.598  1.00  0.00     0.005 C 
ENDBRANCH  16  18
ENDBRANCH  15  16
BRANCH  15  20
HETATM   20  C   UNL     1      43.599 -18.277   4.113  1.00  0.00    -0.045 A 
HETATM   21  C   UNL     1      43.422 -18.732   2.796  1.00  0.00     0.008 A 
HETATM   22  C   UNL     1      43.590 -20.081   2.479  1.00  0.00     0.001 A 
HETATM   23  C   UNL     1      43.941 -20.992   3.472  1.00  0.00     0.000 A 
HETATM   24  C   UNL     1      44.130 -20.555   4.781  1.00  0.00     0.001 A 
HETATM   25  C   UNL     1      43.966 -19.206   5.100  1.00  0.00     0.008 A 
ENDBRANCH  15  20
ENDBRANCH  12  15
ENDBRANCH   1  11
BRANCH   8  26
HETATM   26  C   UNL     1      41.577  -9.990   0.498  1.00  0.00     0.270 C 
HETATM   27  N   UNL     1      41.304  -9.570   1.772  1.00  0.00    -0.365 N 
HETATM   28  H   UNL     1      40.670 -10.121   2.338  1.00  0.00     0.159 HD
HETATM   29  H   UNL     1      41.756  -8.745   2.133  1.00  0.00     0.159 HD
HETATM   30  O   UNL     1      42.355  -9.369  -0.220  1.00  0.00    -0.266 OA
ENDBRANCH   8  26
TORSDOF 6
ENDMDL
MODEL 5
REMARK VINA RESULT:      -8.2      1.916      3.235
REMARK  6 active torsions:
REMARK  status: ('A' for Active; 'I' for Inactive)
REMARK    1  A    between atoms: C_2  and  C_3 
REMARK    2  A    between atoms: C_3  and  C_4 
REMARK    3  A    between atoms: C_4  and  C_5 
REMARK    4  A    between atoms: C_4  and  C_21 
REMARK       I    between atoms: C_5  and  N_6 
REMARK    5  A    between atoms: N_6  and  C_7 
REMARK    6  A    between atoms: C_14  and  C_15 
REMARK       I    between atoms: C_15  and  N_16 
ROOT
HETATM    1  C   UNL     1      40.769 -14.590   0.997  1.00  0.00     0.035 A 
HETATM    2  C   UNL     1      41.099 -13.233   1.112  1.00  0.00     0.046 A 
HETATM    3  C   UNL     1      40.606 -12.313   0.160  1.00  0.00     0.030 A 
HETATM    4  C   UNL     1      39.815 -12.783  -0.881  1.00  0.00     0.063 A 
HETATM    5  N   UNL     1      39.501 -11.680  -1.624  1.00  0.00    -0.277 N 
HETATM    6  H   UNL     1      38.937 -11.649  -2.466  1.00  0.00     0.189 HD
HETATM    7  N   UNL     1      40.003 -10.528  -1.153  1.00  0.00    -0.168 NA
HETATM    8  C   UNL     1      40.688 -10.902  -0.047  1.00  0.00     0.156 A 
HETATM    9  C   UNL     1      39.473 -14.128  -1.031  1.00  0.00     0.034 A 
HETATM   10  C   UNL     1      39.961 -15.017  -0.066  1.00  0.00     0.032 A 
ENDROOT
BRANCH   1  11
HETATM   11  N   UNL     1      41.180 -15.578   1.916  1.00  0.00    -0.327 N 
HETATM   12  C   UNL     1      42.437 -16.163   2.037  1.00  0.00     0.231 C 
HETATM   13  O   UNL     1      43.375 -15.985   1.269  1.00  0.00    -0.272 OA
HETATM   14  H   UNL     1      40.488 -15.865   2.599  1.00  0.00     0.169 HD
BRANCH  12  15
HETATM   15  C   UNL     1      42.525 -17.108   3.258  1.00  0.00     0.115 C 
BRANCH  15  16
HETATM   16  C   UNL     1      43.675 -18.160   3.208  1.00  0.00    -0.001 C 
HETATM   17  C   UNL     1      43.376 -19.373   2.313  1.00  0.00     0.011 C 
BRANCH  16  18
HETATM   18  C   UNL     1      44.133 -18.654   4.600  1.00  0.00     0.001 C 
HETATM   19  C   UNL     1      44.146 -20.170   4.748  1.00  0.00     0.005 C 
ENDBRANCH  16  18
ENDBRANCH  15  16
BRANCH  15  20
HETATM   20  C   UNL     1      42.517 -16.354   4.591  1.00  0.00    -0.045 A 
HETATM   21  C   UNL     1      41.536 -16.656   5.549  1.00  0.00     0.008 A 
HETATM   22  C   UNL     1      41.507 -15.986   6.774  1.00  0.00     0.001 A 
HETATM   23  C   UNL     1      42.458 -15.010   7.058  1.00  0.00     0.000 A 
HETATM   24  C   UNL     1      43.443 -14.706   6.122  1.00  0.00     0.001 A 
HETATM   25  C   UNL     1      43.477 -15.376   4.898  1.00  0.00     0.008 A 
ENDBRANCH  15  20
ENDBRANCH  12  15
ENDBRANCH   1  11
BRANCH   8  26
HETATM   26  C   UNL     1      41.387  -9.912   0.784  1.00  0.00     0.270 C 
HETATM   27  N   UNL     1      42.001  -8.918   0.072  1.00  0.00    -0.365 N 
HETATM   28  H   UNL     1      41.923  -8.928  -0.939  1.00  0.00     0.159 HD
HETATM   29  H   UNL     1      42.489  -8.184   0.559  1.00  0.00     0.159 HD
HETATM   30  O   UNL     1      41.433  -9.934   2.010  1.00  0.00    -0.266 OA
ENDBRANCH   8  26
TORSDOF 6
ENDMDL
MODEL 6
REMARK VINA RESULT:      -7.9      2.699      7.911
REMARK  6 active torsions:
REMARK  status: ('A' for Active; 'I' for Inactive)
REMARK    1  A    between atoms: C_2  and  C_3 
REMARK    2  A    between atoms: C_3  and  C_4 
REMARK    3  A    between atoms: C_4  and  C_5 
REMARK    4  A    between atoms: C_4  and  C_21 
REMARK       I    between atoms: C_5  and  N_6 
REMARK    5  A    between atoms: N_6  and  C_7 
REMARK    6  A    between atoms: C_14  and  C_15 
REMARK       I    between atoms: C_15  and  N_16 
ROOT
HETATM    1  C   UNL     1      42.393 -15.507   2.447  1.00  0.00     0.035 A 
HETATM    2  C   UNL     1      42.616 -16.850   2.113  1.00  0.00     0.046 A 
HETATM    3  C   UNL     1      43.248 -17.704   3.044  1.00  0.00     0.030 A 
HETATM    4  C   UNL     1      43.650 -17.182   4.268  1.00  0.00     0.063 A 
HETATM    5  N   UNL     1      44.223 -18.227   4.936  1.00  0.00    -0.277 N 
HETATM    6  H   UNL     1      44.632 -18.210   5.864  1.00  0.00     0.189 HD
HETATM    7  N   UNL     1      44.217 -19.390   4.265  1.00  0.00    -0.168 NA
HETATM    8  C   UNL     1      43.615 -19.083   3.093  1.00  0.00     0.156 A 
HETATM    9  C   UNL     1      43.452 -15.849   4.630  1.00  0.00     0.034 A 
HETATM   10  C   UNL     1      42.808 -15.027   3.696  1.00  0.00     0.032 A 
ENDROOT
BRANCH   1  11
HETATM   11  N   UNL     1      41.736 -14.587   1.602  1.00  0.00    -0.327 N 
HETATM   12  C   UNL     1      40.368 -14.359   1.488  1.00  0.00     0.231 C 
HETATM   13  O   UNL     1      39.494 -15.019   2.038  1.00  0.00    -0.272 OA
HETATM   14  H   UNL     1      42.335 -13.991   1.044  1.00  0.00     0.169 HD
BRANCH  12  15
HETATM   15  C   UNL     1      40.052 -13.172   0.549  1.00  0.00     0.115 C 
BRANCH  15  16
HETATM   16  C   UNL     1      41.257 -12.239   0.218  1.00  0.00    -0.001 C 
HETATM   17  C   UNL     1      41.411 -11.050   1.179  1.00  0.00     0.011 C 
BRANCH  16  18
HETATM   18  C   UNL     1      41.269 -11.723  -1.240  1.00  0.00     0.001 C 
HETATM   19  C   UNL     1      41.063 -10.219  -1.368  1.00  0.00     0.005 C 
ENDBRANCH  16  18
ENDBRANCH  15  16
BRANCH  15  20
HETATM   20  C   UNL     1      39.316 -13.605  -0.723  1.00  0.00    -0.045 A 
HETATM   21  C   UNL     1      38.283 -12.801  -1.230  1.00  0.00     0.008 A 
HETATM   22  C   UNL     1      37.597 -13.170  -2.390  1.00  0.00     0.001 A 
HETATM   23  C   UNL     1      37.938 -14.343  -3.058  1.00  0.00     0.000 A 
HETATM   24  C   UNL     1      38.968 -15.145  -2.573  1.00  0.00     0.001 A 
HETATM   25  C   UNL     1      39.657 -14.778  -1.416  1.00  0.00     0.008 A 
ENDBRANCH  15  20
ENDBRANCH  12  15
ENDBRANCH   1  11
BRANCH   8  26
HETATM   26  C   UNL     1      43.395 -20.107   2.062  1.00  0.00     0.270 C 
HETATM   27  N   UNL     1      42.082 -20.272   1.710  1.00  0.00    -0.365 N 
HETATM   28  H   UNL     1      41.384 -19.691   2.159  1.00  0.00     0.159 HD
HETATM   29  H   UNL     1      41.838 -20.939   0.996  1.00  0.00     0.159 HD
HETATM   30  O   UNL     1      44.280 -20.770   1.532  1.00  0.00    -0.266 OA
ENDBRANCH   8  26
TORSDOF 6
ENDMDL
MODEL 7
REMARK VINA RESULT:      -7.9      5.411      8.599
REMARK  6 active torsions:
REMARK  status: ('A' for Active; 'I' for Inactive)
REMARK    1  A    between atoms: C_2  and  C_3 
REMARK    2  A    between atoms: C_3  and  C_4 
REMARK    3  A    between atoms: C_4  and  C_5 
REMARK    4  A    between atoms: C_4  and  C_21 
REMARK       I    between atoms: C_5  and  N_6 
REMARK    5  A    between atoms: N_6  and  C_7 
REMARK    6  A    between atoms: C_14  and  C_15 
REMARK       I    between atoms: C_15  and  N_16 
ROOT
HETATM    1  C   UNL     1      43.523 -11.801   6.688  1.00  0.00     0.035 A 
HETATM    2  C   UNL     1      43.050 -10.553   7.116  1.00  0.00     0.046 A 
HETATM    3  C   UNL     1      43.956  -9.612   7.655  1.00  0.00     0.030 A 
HETATM    4  C   UNL     1      45.297  -9.958   7.763  1.00  0.00     0.063 A 
HETATM    5  N   UNL     1      45.910  -8.868   8.314  1.00  0.00    -0.277 N 
HETATM    6  H   UNL     1      46.893  -8.767   8.540  1.00  0.00     0.189 HD
HETATM    7  N   UNL     1      45.091  -7.834   8.561  1.00  0.00    -0.168 NA
HETATM    8  C   UNL     1      43.878  -8.277   8.156  1.00  0.00     0.156 A 
HETATM    9  C   UNL     1      45.801 -11.195   7.355  1.00  0.00     0.034 A 
HETATM   10  C   UNL     1      44.885 -12.103   6.809  1.00  0.00     0.032 A 
ENDROOT
BRANCH   1  11
HETATM   11  N   UNL     1      42.705 -12.790   6.101  1.00  0.00    -0.327 N 
HETATM   12  C   UNL     1      42.655 -13.175   4.765  1.00  0.00     0.231 C 
HETATM   13  O   UNL     1      43.250 -12.621   3.848  1.00  0.00    -0.272 OA
HETATM   14  H   UNL     1      42.115 -13.313   6.738  1.00  0.00     0.169 HD
BRANCH  12  15
HETATM   15  C   UNL     1      41.725 -14.390   4.543  1.00  0.00     0.115 C 
BRANCH  15  16
HETATM   16  C   UNL     1      40.832 -14.326   3.266  1.00  0.00    -0.001 C 
HETATM   17  C   UNL     1      39.814 -13.175   3.273  1.00  0.00     0.011 C 
BRANCH  16  18
HETATM   18  C   UNL     1      40.103 -15.651   2.943  1.00  0.00     0.001 C 
HETATM   19  C   UNL     1      39.982 -15.946   1.454  1.00  0.00     0.005 C 
ENDBRANCH  16  18
ENDBRANCH  15  16
BRANCH  15  20
HETATM   20  C   UNL     1      42.467 -15.727   4.637  1.00  0.00    -0.045 A 
HETATM   21  C   UNL     1      42.390 -16.478   5.821  1.00  0.00     0.008 A 
HETATM   22  C   UNL     1      43.053 -17.702   5.933  1.00  0.00     0.001 A 
HETATM   23  C   UNL     1      43.798 -18.192   4.864  1.00  0.00     0.000 A 
HETATM   24  C   UNL     1      43.876 -17.463   3.679  1.00  0.00     0.001 A 
HETATM   25  C   UNL     1      43.211 -16.241   3.563  1.00  0.00     0.008 A 
ENDBRANCH  15  20
ENDBRANCH  12  15
ENDBRANCH   1  11
BRANCH   8  26
HETATM   26  C   UNL     1      42.688  -7.421   8.245  1.00  0.00     0.270 C 
HETATM   27  N   UNL     1      41.821  -7.772   9.245  1.00  0.00    -0.365 N 
HETATM   28  H   UNL     1      42.057  -8.559   9.837  1.00  0.00     0.159 HD
HETATM   29  H   UNL     1      40.985  -7.229   9.394  1.00  0.00     0.159 HD
HETATM   30  O   UNL     1      42.457  -6.463   7.515  1.00  0.00    -0.266 OA
ENDBRANCH   8  26
TORSDOF 6
ENDMDL
MODEL 8
REMARK VINA RESULT:      -7.8      5.301      9.001
REMARK  6 active torsions:
REMARK  status: ('A' for Active; 'I' for Inactive)
REMARK    1  A    between atoms: C_2  and  C_3 
REMARK    2  A    between atoms: C_3  and  C_4 
REMARK    3  A    between atoms: C_4  and  C_5 
REMARK    4  A    between atoms: C_4  and  C_21 
REMARK       I    between atoms: C_5  and  N_6 
REMARK    5  A    between atoms: N_6  and  C_7 
REMARK    6  A    between atoms: C_14  and  C_15 
REMARK       I    between atoms: C_15  and  N_16 
ROOT
HETATM    1  C   UNL     1      44.380 -12.506   6.842  1.00  0.00     0.035 A 
HETATM    2  C   UNL     1      43.902 -12.072   8.086  1.00  0.00     0.046 A 
HETATM    3  C   UNL     1      44.403 -10.875   8.645  1.00  0.00     0.030 A 
HETATM    4  C   UNL     1      45.374 -10.164   7.951  1.00  0.00     0.063 A 
HETATM    5  N   UNL     1      45.657  -9.079   8.731  1.00  0.00    -0.277 N 
HETATM    6  H   UNL     1      46.325  -8.342   8.537  1.00  0.00     0.189 HD
HETATM    7  N   UNL     1      44.945  -9.008   9.867  1.00  0.00    -0.168 NA
HETATM    8  C   UNL     1      44.162 -10.111   9.828  1.00  0.00     0.156 A 
HETATM    9  C   UNL     1      45.878 -10.571   6.714  1.00  0.00     0.034 A 
HETATM   10  C   UNL     1      45.354 -11.752   6.174  1.00  0.00     0.032 A 
ENDROOT
BRANCH   1  11
HETATM   11  N   UNL     1      43.915 -13.664   6.184  1.00  0.00    -0.327 N 
HETATM   12  C   UNL     1      42.751 -13.813   5.436  1.00  0.00     0.231 C 
HETATM   13  O   UNL     1      41.871 -12.968   5.325  1.00  0.00    -0.272 OA
HETATM   14  H   UNL     1      44.525 -14.473   6.225  1.00  0.00     0.169 HD
BRANCH  12  15
HETATM   15  C   UNL     1      42.664 -15.203   4.763  1.00  0.00     0.115 C 
BRANCH  15  16
HETATM   16  C   UNL     1      42.200 -16.368   5.689  1.00  0.00    -0.001 C 
HETATM   17  C   UNL     1      41.508 -15.903   6.981  1.00  0.00     0.011 C 
BRANCH  16  18
HETATM   18  C   UNL     1      43.321 -17.373   6.044  1.00  0.00     0.001 C 
HETATM   19  C   UNL     1      44.212 -17.748   4.867  1.00  0.00     0.005 C 
ENDBRANCH  16  18
ENDBRANCH  15  16
BRANCH  15  20
HETATM   20  C   UNL     1      41.866 -15.177   3.456  1.00  0.00    -0.045 A 
HETATM   21  C   UNL     1      40.573 -15.724   3.426  1.00  0.00     0.008 A 
HETATM   22  C   UNL     1      39.821 -15.710   2.249  1.00  0.00     0.001 A 
HETATM   23  C   UNL     1      40.349 -15.147   1.091  1.00  0.00     0.000 A 
HETATM   24  C   UNL     1      41.626 -14.592   1.107  1.00  0.00     0.001 A 
HETATM   25  C   UNL     1      42.379 -14.600   2.283  1.00  0.00     0.008 A 
ENDBRANCH  15  20
ENDBRANCH  12  15
ENDBRANCH   1  11
BRANCH   8  26
HETATM   26  C   UNL     1      43.204 -10.401  10.903  1.00  0.00     0.270 C 
HETATM   27  N   UNL     1      41.911 -10.067  10.604  1.00  0.00    -0.365 N 
HETATM   28  H   UNL     1      41.712  -9.670   9.694  1.00  0.00     0.159 HD
HETATM   29  H   UNL     1      41.181 -10.248  11.275  1.00  0.00     0.159 HD
HETATM   30  O   UNL     1      43.494 -10.904  11.984  1.00  0.00    -0.266 OA
ENDBRANCH   8  26
TORSDOF 6
ENDMDL
MODEL 9
REMARK VINA RESULT:      -7.8      2.618      7.933
REMARK  6 active torsions:
REMARK  status: ('A' for Active; 'I' for Inactive)
REMARK    1  A    between atoms: C_2  and  C_3 
REMARK    2  A    between atoms: C_3  and  C_4 
REMARK    3  A    between atoms: C_4  and  C_5 
REMARK    4  A    between atoms: C_4  and  C_21 
REMARK       I    between atoms: C_5  and  N_6 
REMARK    5  A    between atoms: N_6  and  C_7 
REMARK    6  A    between atoms: C_14  and  C_15 
REMARK       I    between atoms: C_15  and  N_16 
ROOT
HETATM    1  C   UNL     1      42.422 -15.981   2.328  1.00  0.00     0.035 A 
HETATM    2  C   UNL     1      42.198 -15.819   3.703  1.00  0.00     0.046 A 
HETATM    3  C   UNL     1      42.736 -16.756   4.612  1.00  0.00     0.030 A 
HETATM    4  C   UNL     1      43.464 -17.831   4.116  1.00  0.00     0.063 A 
HETATM    5  N   UNL     1      43.842 -18.550   5.215  1.00  0.00    -0.277 N 
HETATM    6  H   UNL     1      44.385 -19.406   5.230  1.00  0.00     0.189 HD
HETATM    7  N   UNL     1      43.439 -18.033   6.386  1.00  0.00    -0.168 NA
HETATM    8  C   UNL     1      42.755 -16.921   6.031  1.00  0.00     0.156 A 
HETATM    9  C   UNL     1      43.700 -18.029   2.755  1.00  0.00     0.034 A 
HETATM   10  C   UNL     1      43.170 -17.076   1.875  1.00  0.00     0.032 A 
ENDROOT
BRANCH   1  11
HETATM   11  N   UNL     1      41.961 -15.080   1.346  1.00  0.00    -0.327 N 
HETATM   12  C   UNL     1      40.693 -15.011   0.778  1.00  0.00     0.231 C 
HETATM   13  O   UNL     1      39.789 -15.817   0.968  1.00  0.00    -0.272 OA
HETATM   14  H   UNL     1      42.620 -14.369   1.051  1.00  0.00     0.169 HD
BRANCH  12  15
HETATM   15  C   UNL     1      40.542 -13.795  -0.165  1.00  0.00     0.115 C 
BRANCH  15  16
HETATM   16  C   UNL     1      39.611 -14.015  -1.398  1.00  0.00    -0.001 C 
HETATM   17  C   UNL     1      40.321 -13.866  -2.752  1.00  0.00     0.011 C 
BRANCH  16  18
HETATM   18  C   UNL     1      38.339 -13.136  -1.388  1.00  0.00     0.001 C 
HETATM   19  C   UNL     1      38.219 -12.205  -2.588  1.00  0.00     0.005 C 
ENDBRANCH  16  18
ENDBRANCH  15  16
BRANCH  15  20
HETATM   20  C   UNL     1      40.181 -12.508   0.583  1.00  0.00    -0.045 A 
HETATM   21  C   UNL     1      40.697 -11.282   0.135  1.00  0.00     0.008 A 
HETATM   22  C   UNL     1      40.383 -10.092   0.795  1.00  0.00     0.001 A 
HETATM   23  C   UNL     1      39.546 -10.113   1.908  1.00  0.00     0.000 A 
HETATM   24  C   UNL     1      39.018 -11.320   2.359  1.00  0.00     0.001 A 
HETATM   25  C   UNL     1      39.328 -12.511   1.698  1.00  0.00     0.008 A 
ENDBRANCH  15  20
ENDBRANCH  12  15
ENDBRANCH   1  11
BRANCH   8  26
HETATM   26  C   UNL     1      42.152 -16.044   7.044  1.00  0.00     0.270 C 
HETATM   27  N   UNL     1      40.810 -15.836   6.875  1.00  0.00    -0.365 N 
HETATM   28  H   UNL     1      40.342 -16.293   6.101  1.00  0.00     0.159 HD
HETATM   29  H   UNL     1      40.308 -15.263   7.534  1.00  0.00     0.159 HD
HETATM   30  O   UNL     1      42.760 -15.530   7.977  1.00  0.00    -0.266 OA
ENDBRANCH   8  26
TORSDOF 6
ENDMDL
MODEL 10
REMARK VINA RESULT:      -7.6      5.233      8.194
REMARK  6 active torsions:
REMARK  status: ('A' for Active; 'I' for Inactive)
REMARK    1  A    between atoms: C_2  and  C_3 
REMARK    2  A    between atoms: C_3  and  C_4 
REMARK    3  A    between atoms: C_4  and  C_5 
REMARK    4  A    between atoms: C_4  and  C_21 
REMARK       I    between atoms: C_5  and  N_6 
REMARK    5  A    between atoms: N_6  and  C_7 
REMARK    6  A    between atoms: C_14  and  C_15 
REMARK       I    between atoms: C_15  and  N_16 
ROOT
HETATM    1  C   UNL     1      42.497 -11.787   6.085  1.00  0.00     0.035 A 
HETATM    2  C   UNL     1      43.394 -11.006   6.827  1.00  0.00     0.046 A 
HETATM    3  C   UNL     1      42.921  -9.869   7.520  1.00  0.00     0.030 A 
HETATM    4  C   UNL     1      41.573  -9.543   7.433  1.00  0.00     0.063 A 
HETATM    5  N   UNL     1      41.424  -8.415   8.189  1.00  0.00    -0.277 N 
HETATM    6  H   UNL     1      40.569  -7.894   8.350  1.00  0.00     0.189 HD
HETATM    7  N   UNL     1      42.552  -7.983   8.776  1.00  0.00    -0.168 NA
HETATM    8  C   UNL     1      43.488  -8.873   8.373  1.00  0.00     0.156 A 
HETATM    9  C   UNL     1      40.653 -10.292   6.698  1.00  0.00     0.034 A 
HETATM   10  C   UNL     1      41.144 -11.424   6.034  1.00  0.00     0.032 A 
ENDROOT
BRANCH   1  11
HETATM   11  N   UNL     1      42.864 -12.959   5.393  1.00  0.00    -0.327 N 
HETATM   12  C   UNL     1      42.589 -14.278   5.740  1.00  0.00     0.231 C 
HETATM   13  O   UNL     1      42.066 -14.638   6.789  1.00  0.00    -0.272 OA
HETATM   14  H   UNL     1      43.350 -12.823   4.514  1.00  0.00     0.169 HD
BRANCH  12  15
HETATM   15  C   UNL     1      43.046 -15.276   4.650  1.00  0.00     0.115 C 
BRANCH  15  16
HETATM   16  C   UNL     1      43.445 -16.693   5.165  1.00  0.00    -0.001 C 
HETATM   17  C   UNL     1      44.616 -16.690   6.160  1.00  0.00     0.011 C 
BRANCH  16  18
HETATM   18  C   UNL     1      43.736 -17.710   4.037  1.00  0.00     0.001 C 
HETATM   19  C   UNL     1      44.261 -19.052   4.531  1.00  0.00     0.005 C 
ENDBRANCH  16  18
ENDBRANCH  15  16
BRANCH  15  20
HETATM   20  C   UNL     1      42.061 -15.365   3.480  1.00  0.00    -0.045 A 
HETATM   21  C   UNL     1      42.492 -15.026   2.188  1.00  0.00     0.008 A 
HETATM   22  C   UNL     1      41.617 -15.101   1.102  1.00  0.00     0.001 A 
HETATM   23  C   UNL     1      40.302 -15.518   1.294  1.00  0.00     0.000 A 
HETATM   24  C   UNL     1      39.863 -15.867   2.568  1.00  0.00     0.001 A 
HETATM   25  C   UNL     1      40.736 -15.797   3.655  1.00  0.00     0.008 A 
ENDBRANCH  15  20
ENDBRANCH  12  15
ENDBRANCH   1  11
BRANCH   8  26
HETATM   26  C   UNL     1      44.883  -8.762   8.818  1.00  0.00     0.270 C 
HETATM   27  N   UNL     1      45.177  -9.506   9.928  1.00  0.00    -0.365 N 
HETATM   28  H   UNL     1      44.443 -10.069  10.341  1.00  0.00     0.159 HD
HETATM   29  H   UNL     1      46.116  -9.507  10.293  1.00  0.00     0.159 HD
HETATM   30  O   UNL     1      45.742  -8.080   8.267  1.00  0.00    -0.266 OA
ENDBRANCH   8  26
TORSDOF 6
ENDMDL
