MODEL 1
REMARK VINA RESULT:      -8.9      0.000      0.000
REMARK  4 active torsions:
REMARK  status: ('A' for Active; 'I' for Inactive)
REMARK    1  A    between atoms: C_5  and  C_6 
REMARK    2  A    between atoms: C_14  and  C_15 
REMARK       I    between atoms: C_15  and  N_16 
REMARK    3  A    between atoms: N_16  and  C_17 
REMARK    4  A    between atoms: C_23  and  N_24 
ROOT
HETATM    1  C   UNL     1      41.789 -12.947   5.375  1.00  0.00     0.262 C 
HETATM    2  N   UNL     1      42.463 -13.443   4.284  1.00  0.00    -0.301 N 
HETATM    3  O   UNL     1      41.344 -13.608   6.305  1.00  0.00    -0.267 OA
HETATM    4  H   UNL     1      42.651 -12.867   3.481  1.00  0.00     0.171 HD
ENDROOT
BRANCH   1   5
HETATM    5  C   UNL     1      41.582 -11.508   5.330  1.00  0.00     0.095 A 
HETATM    6  C   UNL     1      40.579 -10.881   4.617  1.00  0.00     0.093 A 
HETATM    7  C   UNL     1      39.492 -11.357   3.738  1.00  0.00     0.080 C 
HETATM    8  O   UNL     1      40.664  -9.539   4.794  1.00  0.00    -0.217 OA
HETATM    9  N   UNL     1      41.712  -9.249   5.642  1.00  0.00    -0.127 NA
HETATM   10  C   UNL     1      42.252 -10.428   5.982  1.00  0.00     0.116 A 
BRANCH  10  11
HETATM   11  C   UNL     1      43.358 -10.468   6.932  1.00  0.00     0.039 A 
HETATM   12  C   UNL     1      44.634 -10.901   6.534  1.00  0.00     0.048 A 
HETATM   13 CL   UNL     1      44.978 -11.397   4.913  1.00  0.00    -0.083 Cl
HETATM   14  C   UNL     1      45.693 -10.928   7.449  1.00  0.00     0.025 A 
HETATM   15  C   UNL     1      45.494 -10.527   8.768  1.00  0.00     0.003 A 
HETATM   16  C   UNL     1      44.235 -10.091   9.175  1.00  0.00     0.025 A 
HETATM   17  C   UNL     1      43.174 -10.059   8.265  1.00  0.00     0.048 A 
HETATM   18 CL   UNL     1      41.668  -9.419   8.831  1.00  0.00    -0.083 Cl
ENDBRANCH  10  11
ENDBRANCH   1   5
BRANCH   2  19
HETATM   19  C   UNL     1      42.821 -14.756   4.175  1.00  0.00     0.174 A 
HETATM   20  S   UNL     1      42.312 -15.482   2.719  1.00  0.00    -0.050 SA
HETATM   21  C   UNL     1      43.030 -16.967   3.222  1.00  0.00     0.039 A 
HETATM   22  C   UNL     1      43.619 -16.779   4.477  1.00  0.00     0.077 A 
HETATM   23  C   UNL     1      43.066 -18.204   2.554  1.00  0.00     0.057 A 
HETATM   24  N   UNL     1      43.496 -15.506   5.000  1.00  0.00    -0.223 NA
HETATM   25  C   UNL     1      44.270 -17.868   5.092  1.00  0.00     0.035 A 
HETATM   26  C   UNL     1      44.317 -19.111   4.450  1.00  0.00     0.038 A 
HETATM   27  C   UNL     1      43.720 -19.270   3.196  1.00  0.00     0.104 A 
BRANCH  27  28
HETATM   28  N   UNL     1      43.771 -20.580   2.530  1.00  0.00    -0.116 N 
HETATM   29  O   UNL     1      43.511 -20.619   1.319  1.00  0.00    -0.532 OA
HETATM   30  O   UNL     1      44.070 -21.565   3.219  1.00  0.00    -0.532 OA
ENDBRANCH  27  28
ENDBRANCH   2  19
TORSDOF 4
ENDMDL
MODEL 2
REMARK VINA RESULT:      -8.5      2.964      5.177
REMARK  4 active torsions:
REMARK  status: ('A' for Active; 'I' for Inactive)
REMARK    1  A    between atoms: C_5  and  C_6 
REMARK    2  A    between atoms: C_14  and  C_15 
REMARK       I    between atoms: C_15  and  N_16 
REMARK    3  A    between atoms: N_16  and  C_17 
REMARK    4  A    between atoms: C_23  and  N_24 
ROOT
HETATM    1  C   UNL     1      42.492 -12.359   3.194  1.00  0.00     0.262 C 
HETATM    2  N   UNL     1      41.734 -13.454   3.536  1.00  0.00    -0.301 N 
HETATM    3  O   UNL     1      43.697 -12.360   2.974  1.00  0.00    -0.267 OA
HETATM    4  H   UNL     1      40.790 -13.352   3.866  1.00  0.00     0.171 HD
ENDROOT
BRANCH   1   5
HETATM    5  C   UNL     1      41.738 -11.115   3.159  1.00  0.00     0.095 A 
HETATM    6  C   UNL     1      41.799 -10.132   4.127  1.00  0.00     0.093 A 
HETATM    7  C   UNL     1      42.534  -9.987   5.399  1.00  0.00     0.080 C 
HETATM    8  O   UNL     1      40.980  -9.105   3.786  1.00  0.00    -0.217 OA
HETATM    9  N   UNL     1      40.375  -9.376   2.577  1.00  0.00    -0.127 NA
HETATM   10  C   UNL     1      40.843 -10.571   2.188  1.00  0.00     0.116 A 
BRANCH  10  11
HETATM   11  C   UNL     1      40.437 -11.119   0.899  1.00  0.00     0.039 A 
HETATM   12  C   UNL     1      39.461 -12.127   0.820  1.00  0.00     0.048 A 
HETATM   13 CL   UNL     1      38.678 -12.767   2.223  1.00  0.00    -0.083 Cl
HETATM   14  C   UNL     1      39.069 -12.642  -0.421  1.00  0.00     0.025 A 
HETATM   15  C   UNL     1      39.645 -12.163  -1.595  1.00  0.00     0.003 A 
HETATM   16  C   UNL     1      40.610 -11.161  -1.533  1.00  0.00     0.025 A 
HETATM   17  C   UNL     1      41.004 -10.640  -0.295  1.00  0.00     0.048 A 
HETATM   18 CL   UNL     1      42.143  -9.336  -0.315  1.00  0.00    -0.083 Cl
ENDBRANCH  10  11
ENDBRANCH   1   5
BRANCH   2  19
HETATM   19  C   UNL     1      42.240 -14.722   3.551  1.00  0.00     0.174 A 
HETATM   20  S   UNL     1      41.744 -15.669   2.224  1.00  0.00    -0.050 SA
HETATM   21  C   UNL     1      42.660 -16.993   2.841  1.00  0.00     0.039 A 
HETATM   22  C   UNL     1      43.289 -16.592   4.023  1.00  0.00     0.077 A 
HETATM   23  C   UNL     1      42.808 -18.289   2.315  1.00  0.00     0.057 A 
HETATM   24  N   UNL     1      43.044 -15.288   4.408  1.00  0.00    -0.223 NA
HETATM   25  C   UNL     1      44.098 -17.519   4.712  1.00  0.00     0.035 A 
HETATM   26  C   UNL     1      44.259 -18.817   4.213  1.00  0.00     0.038 A 
HETATM   27  C   UNL     1      43.617 -19.190   3.028  1.00  0.00     0.104 A 
BRANCH  27  28
HETATM   28  N   UNL     1      43.789 -20.557   2.511  1.00  0.00    -0.116 N 
HETATM   29  O   UNL     1      43.660 -20.730   1.291  1.00  0.00    -0.532 OA
HETATM   30  O   UNL     1      44.050 -21.452   3.326  1.00  0.00    -0.532 OA
ENDBRANCH  27  28
ENDBRANCH   2  19
TORSDOF 4
ENDMDL
MODEL 3
REMARK VINA RESULT:      -8.5      2.158      2.768
REMARK  4 active torsions:
REMARK  status: ('A' for Active; 'I' for Inactive)
REMARK    1  A    between atoms: C_5  and  C_6 
REMARK    2  A    between atoms: C_14  and  C_15 
REMARK       I    between atoms: C_15  and  N_16 
REMARK    3  A    between atoms: N_16  and  C_17 
REMARK    4  A    between atoms: C_23  and  N_24 
ROOT
HETATM    1  C   UNL     1      43.010 -11.249   6.680  1.00  0.00     0.262 C 
HETATM    2  N   UNL     1      42.097 -12.229   6.367  1.00  0.00    -0.301 N 
HETATM    3  O   UNL     1      44.192 -11.428   6.944  1.00  0.00    -0.267 OA
HETATM    4  H   UNL     1      41.112 -12.030   6.327  1.00  0.00     0.171 HD
ENDROOT
BRANCH   1   5
HETATM    5  C   UNL     1      42.438  -9.912   6.730  1.00  0.00     0.095 A 
HETATM    6  C   UNL     1      41.852  -9.269   5.658  1.00  0.00     0.093 A 
HETATM    7  C   UNL     1      41.622  -9.627   4.245  1.00  0.00     0.080 C 
HETATM    8  O   UNL     1      41.417  -8.043   6.045  1.00  0.00    -0.217 OA
HETATM    9  N   UNL     1      41.689  -7.856   7.384  1.00  0.00    -0.127 NA
HETATM   10  C   UNL     1      42.282  -8.982   7.803  1.00  0.00     0.116 A 
BRANCH  10  11
HETATM   11  C   UNL     1      42.644  -9.128   9.209  1.00  0.00     0.039 A 
HETATM   12  C   UNL     1      43.972  -8.955   9.632  1.00  0.00     0.048 A 
HETATM   13 CL   UNL     1      45.247  -8.552   8.536  1.00  0.00    -0.083 Cl
HETATM   14  C   UNL     1      44.310  -9.086  10.985  1.00  0.00     0.025 A 
HETATM   15  C   UNL     1      43.332  -9.393  11.928  1.00  0.00     0.003 A 
HETATM   16  C   UNL     1      42.011  -9.563  11.522  1.00  0.00     0.025 A 
HETATM   17  C   UNL     1      41.666  -9.430  10.173  1.00  0.00     0.048 A 
HETATM   18 CL   UNL     1      39.988  -9.569   9.770  1.00  0.00    -0.083 Cl
ENDBRANCH  10  11
ENDBRANCH   1   5
BRANCH   2  19
HETATM   19  C   UNL     1      42.451 -13.537   6.199  1.00  0.00     0.174 A 
HETATM   20  S   UNL     1      42.812 -13.942   4.583  1.00  0.00    -0.050 SA
HETATM   21  C   UNL     1      43.135 -15.563   5.074  1.00  0.00     0.039 A 
HETATM   22  C   UNL     1      42.947 -15.660   6.456  1.00  0.00     0.077 A 
HETATM   23  C   UNL     1      43.523 -16.665   4.290  1.00  0.00     0.057 A 
HETATM   24  N   UNL     1      42.566 -14.489   7.082  1.00  0.00    -0.223 NA
HETATM   25  C   UNL     1      43.154 -16.905   7.085  1.00  0.00     0.035 A 
HETATM   26  C   UNL     1      43.537 -18.018   6.328  1.00  0.00     0.038 A 
HETATM   27  C   UNL     1      43.717 -17.892   4.948  1.00  0.00     0.104 A 
BRANCH  27  28
HETATM   28  N   UNL     1      44.117 -19.068   4.158  1.00  0.00    -0.116 N 
HETATM   29  O   UNL     1      44.226 -18.927   2.932  1.00  0.00    -0.532 OA
HETATM   30  O   UNL     1      44.319 -20.128   4.767  1.00  0.00    -0.532 OA
ENDBRANCH  27  28
ENDBRANCH   2  19
TORSDOF 4
ENDMDL
MODEL 4
REMARK VINA RESULT:      -8.5      4.361      8.230
REMARK  4 active torsions:
REMARK  status: ('A' for Active; 'I' for Inactive)
REMARK    1  A    between atoms: C_5  and  C_6 
REMARK    2  A    between atoms: C_14  and  C_15 
REMARK       I    between atoms: C_15  and  N_16 
REMARK    3  A    between atoms: N_16  and  C_17 
REMARK    4  A    between atoms: C_23  and  N_24 
ROOT
HETATM    1  C   UNL     1      41.814 -15.600   3.873  1.00  0.00     0.262 C 
HETATM    2  N   UNL     1      42.088 -14.589   2.983  1.00  0.00    -0.301 N 
HETATM    3  O   UNL     1      40.778 -16.252   3.921  1.00  0.00    -0.267 OA
HETATM    4  H   UNL     1      42.884 -13.987   3.107  1.00  0.00     0.171 HD
ENDROOT
BRANCH   1   5
HETATM    5  C   UNL     1      42.873 -15.828   4.844  1.00  0.00     0.095 A 
HETATM    6  C   UNL     1      43.252 -14.927   5.819  1.00  0.00     0.093 A 
HETATM    7  C   UNL     1      42.805 -13.571   6.194  1.00  0.00     0.080 C 
HETATM    8  O   UNL     1      44.262 -15.452   6.558  1.00  0.00    -0.217 OA
HETATM    9  N   UNL     1      44.560 -16.718   6.101  1.00  0.00    -0.127 NA
HETATM   10  C   UNL     1      43.716 -16.955   5.087  1.00  0.00     0.116 A 
BRANCH  10  11
HETATM   11  C   UNL     1      43.736 -18.253   4.421  1.00  0.00     0.039 A 
HETATM   12  C   UNL     1      43.635 -19.444   5.160  1.00  0.00     0.048 A 
HETATM   13 CL   UNL     1      43.470 -19.452   6.882  1.00  0.00    -0.083 Cl
HETATM   14  C   UNL     1      43.645 -20.685   4.513  1.00  0.00     0.025 A 
HETATM   15  C   UNL     1      43.758 -20.756   3.127  1.00  0.00     0.003 A 
HETATM   16  C   UNL     1      43.854 -19.583   2.381  1.00  0.00     0.025 A 
HETATM   17  C   UNL     1      43.842 -18.339   3.021  1.00  0.00     0.048 A 
HETATM   18 CL   UNL     1      43.876 -16.933   2.013  1.00  0.00    -0.083 Cl
ENDBRANCH  10  11
ENDBRANCH   1   5
BRANCH   2  19
HETATM   19  C   UNL     1      41.254 -14.272   1.950  1.00  0.00     0.174 A 
HETATM   20  S   UNL     1      40.506 -12.750   2.122  1.00  0.00    -0.050 SA
HETATM   21  C   UNL     1      39.689 -12.995   0.623  1.00  0.00     0.039 A 
HETATM   22  C   UNL     1      40.070 -14.235   0.102  1.00  0.00     0.077 A 
HETATM   23  C   UNL     1      38.778 -12.151  -0.037  1.00  0.00     0.057 A 
HETATM   24  N   UNL     1      40.972 -14.945   0.870  1.00  0.00    -0.223 NA
HETATM   25  C   UNL     1      39.522 -14.653  -1.129  1.00  0.00     0.035 A 
HETATM   26  C   UNL     1      38.610 -13.834  -1.805  1.00  0.00     0.038 A 
HETATM   27  C   UNL     1      38.247 -12.599  -1.259  1.00  0.00     0.104 A 
BRANCH  27  28
HETATM   28  N   UNL     1      37.286 -11.746  -1.974  1.00  0.00    -0.116 N 
HETATM   29  O   UNL     1      36.680 -12.242  -2.934  1.00  0.00    -0.532 OA
HETATM   30  O   UNL     1      37.141 -10.582  -1.574  1.00  0.00    -0.532 OA
ENDBRANCH  27  28
ENDBRANCH   2  19
TORSDOF 4
ENDMDL
MODEL 5
REMARK VINA RESULT:      -8.4      2.410      3.585
REMARK  4 active torsions:
REMARK  status: ('A' for Active; 'I' for Inactive)
REMARK    1  A    between atoms: C_5  and  C_6 
REMARK    2  A    between atoms: C_14  and  C_15 
REMARK       I    between atoms: C_15  and  N_16 
REMARK    3  A    between atoms: N_16  and  C_17 
REMARK    4  A    between atoms: C_23  and  N_24 
ROOT
HETATM    1  C   UNL     1      41.883 -10.435   6.360  1.00  0.00     0.262 C 
HETATM    2  N   UNL     1      43.002 -11.046   5.845  1.00  0.00    -0.301 N 
HETATM    3  O   UNL     1      40.786 -10.958   6.511  1.00  0.00    -0.267 OA
HETATM    4  H   UNL     1      43.817 -10.513   5.593  1.00  0.00     0.171 HD
ENDROOT
BRANCH   1   5
HETATM    5  C   UNL     1      42.082  -9.032   6.687  1.00  0.00     0.095 A 
HETATM    6  C   UNL     1      41.747  -7.978   5.861  1.00  0.00     0.093 A 
HETATM    7  C   UNL     1      41.158  -7.878   4.511  1.00  0.00     0.080 C 
HETATM    8  O   UNL     1      42.057  -6.805   6.469  1.00  0.00    -0.217 OA
HETATM    9  N   UNL     1      42.585  -7.056   7.718  1.00  0.00    -0.127 NA
HETATM   10  C   UNL     1      42.582  -8.389   7.861  1.00  0.00     0.116 A 
BRANCH  10  11
HETATM   11  C   UNL     1      43.027  -8.981   9.118  1.00  0.00     0.039 A 
HETATM   12  C   UNL     1      42.103  -9.335  10.115  1.00  0.00     0.048 A 
HETATM   13 CL   UNL     1      40.399  -9.110   9.918  1.00  0.00    -0.083 Cl
HETATM   14  C   UNL     1      42.537  -9.911  11.315  1.00  0.00     0.025 A 
HETATM   15  C   UNL     1      43.893 -10.138  11.536  1.00  0.00     0.003 A 
HETATM   16  C   UNL     1      44.820  -9.795  10.555  1.00  0.00     0.025 A 
HETATM   17  C   UNL     1      44.392  -9.222   9.353  1.00  0.00     0.048 A 
HETATM   18 CL   UNL     1      45.601  -8.910   8.153  1.00  0.00    -0.083 Cl
ENDBRANCH  10  11
ENDBRANCH   1   5
BRANCH   2  19
HETATM   19  C   UNL     1      43.041 -12.377   5.545  1.00  0.00     0.174 A 
HETATM   20  S   UNL     1      43.710 -13.335   6.786  1.00  0.00    -0.050 SA
HETATM   21  C   UNL     1      43.467 -14.741   5.817  1.00  0.00     0.039 A 
HETATM   22  C   UNL     1      42.875 -14.356   4.610  1.00  0.00     0.077 A 
HETATM   23  C   UNL     1      43.780 -16.080   6.106  1.00  0.00     0.057 A 
HETATM   24  N   UNL     1      42.630 -13.003   4.477  1.00  0.00    -0.223 NA
HETATM   25  C   UNL     1      42.582 -15.348   3.650  1.00  0.00     0.035 A 
HETATM   26  C   UNL     1      42.887 -16.688   3.911  1.00  0.00     0.038 A 
HETATM   27  C   UNL     1      43.480 -17.043   5.127  1.00  0.00     0.104 A 
BRANCH  27  28
HETATM   28  N   UNL     1      43.800 -18.454   5.392  1.00  0.00    -0.116 N 
HETATM   29  O   UNL     1      44.503 -19.050   4.564  1.00  0.00    -0.532 OA
HETATM   30  O   UNL     1      43.347 -18.962   6.428  1.00  0.00    -0.532 OA
ENDBRANCH  27  28
ENDBRANCH   2  19
TORSDOF 4
ENDMDL
MODEL 6
REMARK VINA RESULT:      -8.2      1.503      4.124
REMARK  4 active torsions:
REMARK  status: ('A' for Active; 'I' for Inactive)
REMARK    1  A    between atoms: C_5  and  C_6 
REMARK    2  A    between atoms: C_14  and  C_15 
REMARK       I    between atoms: C_15  and  N_16 
REMARK    3  A    between atoms: N_16  and  C_17 
REMARK    4  A    between atoms: C_23  and  N_24 
ROOT
HETATM    1  C   UNL     1      42.011 -12.981   5.694  1.00  0.00     0.262 C 
HETATM    2  N   UNL     1      42.916 -13.462   4.778  1.00  0.00    -0.301 N 
HETATM    3  O   UNL     1      41.247 -13.657   6.372  1.00  0.00    -0.267 OA
HETATM    4  H   UNL     1      43.389 -12.846   4.139  1.00  0.00     0.171 HD
ENDROOT
BRANCH   1   5
HETATM    5  C   UNL     1      41.979 -11.528   5.776  1.00  0.00     0.095 A 
HETATM    6  C   UNL     1      42.711 -10.776   6.673  1.00  0.00     0.093 A 
HETATM    7  C   UNL     1      43.664 -11.105   7.752  1.00  0.00     0.080 C 
HETATM    8  O   UNL     1      42.455  -9.458   6.479  1.00  0.00    -0.217 OA
HETATM    9  N   UNL     1      41.563  -9.308   5.438  1.00  0.00    -0.127 NA
HETATM   10  C   UNL     1      41.291 -10.545   5.000  1.00  0.00     0.116 A 
BRANCH  10  11
HETATM   11  C   UNL     1      40.415 -10.727   3.849  1.00  0.00     0.039 A 
HETATM   12  C   UNL     1      39.026 -10.547   3.965  1.00  0.00     0.048 A 
HETATM   13 CL   UNL     1      38.275 -10.091   5.455  1.00  0.00    -0.083 Cl
HETATM   14  C   UNL     1      38.192 -10.713   2.853  1.00  0.00     0.025 A 
HETATM   15  C   UNL     1      38.729 -11.064   1.617  1.00  0.00     0.003 A 
HETATM   16  C   UNL     1      40.104 -11.241   1.486  1.00  0.00     0.025 A 
HETATM   17  C   UNL     1      40.943 -11.073   2.593  1.00  0.00     0.048 A 
HETATM   18 CL   UNL     1      42.646 -11.225   2.321  1.00  0.00    -0.083 Cl
ENDBRANCH  10  11
ENDBRANCH   1   5
BRANCH   2  19
HETATM   19  C   UNL     1      43.149 -14.796   4.606  1.00  0.00     0.174 A 
HETATM   20  S   UNL     1      42.828 -15.345   3.025  1.00  0.00    -0.050 SA
HETATM   21  C   UNL     1      43.290 -16.938   3.496  1.00  0.00     0.039 A 
HETATM   22  C   UNL     1      43.669 -16.916   4.842  1.00  0.00     0.077 A 
HETATM   23  C   UNL     1      43.313 -18.117   2.729  1.00  0.00     0.057 A 
HETATM   24  N   UNL     1      43.590 -15.681   5.456  1.00  0.00    -0.223 NA
HETATM   25  C   UNL     1      44.088 -18.117   5.450  1.00  0.00     0.035 A 
HETATM   26  C   UNL     1      44.116 -19.305   4.711  1.00  0.00     0.038 A 
HETATM   27  C   UNL     1      43.731 -19.298   3.367  1.00  0.00     0.104 A 
BRANCH  27  28
HETATM   28  N   UNL     1      43.761 -20.551   2.597  1.00  0.00    -0.116 N 
HETATM   29  O   UNL     1      43.463 -20.495   1.396  1.00  0.00    -0.532 OA
HETATM   30  O   UNL     1      44.081 -21.587   3.196  1.00  0.00    -0.532 OA
ENDBRANCH  27  28
ENDBRANCH   2  19
TORSDOF 4
ENDMDL
MODEL 7
REMARK VINA RESULT:      -8.1      3.473      8.424
REMARK  4 active torsions:
REMARK  status: ('A' for Active; 'I' for Inactive)
REMARK    1  A    between atoms: C_5  and  C_6 
REMARK    2  A    between atoms: C_14  and  C_15 
REMARK       I    between atoms: C_15  and  N_16 
REMARK    3  A    between atoms: N_16  and  C_17 
REMARK    4  A    between atoms: C_23  and  N_24 
ROOT
HETATM    1  C   UNL     1      41.846 -13.275   3.827  1.00  0.00     0.262 C 
HETATM    2  N   UNL     1      41.486 -13.061   5.137  1.00  0.00    -0.301 N 
HETATM    3  O   UNL     1      42.661 -12.620   3.190  1.00  0.00    -0.267 OA
HETATM    4  H   UNL     1      40.693 -13.526   5.543  1.00  0.00     0.171 HD
ENDROOT
BRANCH   1   5
HETATM    5  C   UNL     1      41.116 -14.362   3.192  1.00  0.00     0.095 A 
HETATM    6  C   UNL     1      40.167 -14.198   2.202  1.00  0.00     0.093 A 
HETATM    7  C   UNL     1      39.594 -13.025   1.513  1.00  0.00     0.080 C 
HETATM    8  O   UNL     1      39.687 -15.410   1.826  1.00  0.00    -0.217 OA
HETATM    9  N   UNL     1      40.320 -16.403   2.543  1.00  0.00    -0.127 NA
HETATM   10  C   UNL     1      41.193 -15.780   3.348  1.00  0.00     0.116 A 
BRANCH  10  11
HETATM   11  C   UNL     1      42.074 -16.567   4.204  1.00  0.00     0.039 A 
HETATM   12  C   UNL     1      41.808 -16.709   5.576  1.00  0.00     0.048 A 
HETATM   13 CL   UNL     1      40.432 -15.982   6.331  1.00  0.00    -0.083 Cl
HETATM   14  C   UNL     1      42.653 -17.474   6.389  1.00  0.00     0.025 A 
HETATM   15  C   UNL     1      43.772 -18.102   5.846  1.00  0.00     0.003 A 
HETATM   16  C   UNL     1      44.045 -17.974   4.487  1.00  0.00     0.025 A 
HETATM   17  C   UNL     1      43.203 -17.213   3.669  1.00  0.00     0.048 A 
HETATM   18 CL   UNL     1      43.566 -17.181   1.976  1.00  0.00    -0.083 Cl
ENDBRANCH  10  11
ENDBRANCH   1   5
BRANCH   2  19
HETATM   19  C   UNL     1      42.107 -12.137   5.928  1.00  0.00     0.174 A 
HETATM   20  S   UNL     1      41.134 -10.784   6.287  1.00  0.00    -0.050 SA
HETATM   21  C   UNL     1      42.425 -10.115   7.213  1.00  0.00     0.039 A 
HETATM   22  C   UNL     1      43.507 -11.001   7.180  1.00  0.00     0.077 A 
HETATM   23  C   UNL     1      42.473  -8.897   7.914  1.00  0.00     0.057 A 
HETATM   24  N   UNL     1      43.302 -12.154   6.448  1.00  0.00    -0.223 NA
HETATM   25  C   UNL     1      44.687 -10.659   7.874  1.00  0.00     0.035 A 
HETATM   26  C   UNL     1      44.763  -9.451   8.576  1.00  0.00     0.038 A 
HETATM   27  C   UNL     1      43.666  -8.584   8.591  1.00  0.00     0.104 A 
BRANCH  27  28
HETATM   28  N   UNL     1      43.754  -7.315   9.328  1.00  0.00    -0.116 N 
HETATM   29  O   UNL     1      42.971  -7.143  10.272  1.00  0.00    -0.532 OA
HETATM   30  O   UNL     1      44.607  -6.494   8.961  1.00  0.00    -0.532 OA
ENDBRANCH  27  28
ENDBRANCH   2  19
TORSDOF 4
ENDMDL
MODEL 8
REMARK VINA RESULT:      -8.1      5.016      7.641
REMARK  4 active torsions:
REMARK  status: ('A' for Active; 'I' for Inactive)
REMARK    1  A    between atoms: C_5  and  C_6 
REMARK    2  A    between atoms: C_14  and  C_15 
REMARK       I    between atoms: C_15  and  N_16 
REMARK    3  A    between atoms: N_16  and  C_17 
REMARK    4  A    between atoms: C_23  and  N_24 
ROOT
HETATM    1  C   UNL     1      40.877 -15.465   2.335  1.00  0.00     0.262 C 
HETATM    2  N   UNL     1      41.130 -14.433   1.462  1.00  0.00    -0.301 N 
HETATM    3  O   UNL     1      39.846 -16.124   2.387  1.00  0.00    -0.267 OA
HETATM    4  H   UNL     1      41.925 -13.829   1.586  1.00  0.00     0.171 HD
ENDROOT
BRANCH   1   5
HETATM    5  C   UNL     1      41.954 -15.707   3.282  1.00  0.00     0.095 A 
HETATM    6  C   UNL     1      42.844 -16.760   3.208  1.00  0.00     0.093 A 
HETATM    7  C   UNL     1      43.015 -17.896   2.281  1.00  0.00     0.080 C 
HETATM    8  O   UNL     1      43.723 -16.689   4.239  1.00  0.00    -0.217 OA
HETATM    9  N   UNL     1      43.447 -15.577   5.006  1.00  0.00    -0.127 NA
HETATM   10  C   UNL     1      42.400 -14.974   4.424  1.00  0.00     0.116 A 
BRANCH  10  11
HETATM   11  C   UNL     1      41.898 -13.717   4.968  1.00  0.00     0.039 A 
HETATM   12  C   UNL     1      42.393 -12.485   4.509  1.00  0.00     0.048 A 
HETATM   13 CL   UNL     1      43.603 -12.376   3.278  1.00  0.00    -0.083 Cl
HETATM   14  C   UNL     1      41.899 -11.282   5.028  1.00  0.00     0.025 A 
HETATM   15  C   UNL     1      40.911 -11.293   6.010  1.00  0.00     0.003 A 
HETATM   16  C   UNL     1      40.409 -12.508   6.472  1.00  0.00     0.025 A 
HETATM   17  C   UNL     1      40.896 -13.713   5.954  1.00  0.00     0.048 A 
HETATM   18 CL   UNL     1      40.153 -15.171   6.518  1.00  0.00    -0.083 Cl
ENDBRANCH  10  11
ENDBRANCH   1   5
BRANCH   2  19
HETATM   19  C   UNL     1      40.276 -14.099   0.451  1.00  0.00     0.174 A 
HETATM   20  S   UNL     1      39.453 -12.628   0.712  1.00  0.00    -0.050 SA
HETATM   21  C   UNL     1      38.643 -12.827  -0.797  1.00  0.00     0.039 A 
HETATM   22  C   UNL     1      39.084 -14.014  -1.390  1.00  0.00     0.077 A 
HETATM   23  C   UNL     1      37.688 -11.993  -1.405  1.00  0.00     0.057 A 
HETATM   24  N   UNL     1      40.024 -14.721  -0.666  1.00  0.00    -0.223 NA
HETATM   25  C   UNL     1      38.551 -14.387  -2.642  1.00  0.00     0.035 A 
HETATM   26  C   UNL     1      37.597 -13.577  -3.268  1.00  0.00     0.038 A 
HETATM   27  C   UNL     1      37.174 -12.396  -2.650  1.00  0.00     0.104 A 
BRANCH  27  28
HETATM   28  N   UNL     1      36.168 -11.551  -3.313  1.00  0.00    -0.116 N 
HETATM   29  O   UNL     1      36.390 -10.334  -3.374  1.00  0.00    -0.532 OA
HETATM   30  O   UNL     1      35.160 -12.108  -3.769  1.00  0.00    -0.532 OA
ENDBRANCH  27  28
ENDBRANCH   2  19
TORSDOF 4
ENDMDL
MODEL 9
REMARK VINA RESULT:      -8.0      4.573      8.267
REMARK  4 active torsions:
REMARK  status: ('A' for Active; 'I' for Inactive)
REMARK    1  A    between atoms: C_5  and  C_6 
REMARK    2  A    between atoms: C_14  and  C_15 
REMARK       I    between atoms: C_15  and  N_16 
REMARK    3  A    between atoms: N_16  and  C_17 
REMARK    4  A    between atoms: C_23  and  N_24 
ROOT
HETATM    1  C   UNL     1      42.082 -13.531   3.133  1.00  0.00     0.262 C 
HETATM    2  N   UNL     1      40.951 -13.140   2.456  1.00  0.00    -0.301 N 
HETATM    3  O   UNL     1      43.233 -13.422   2.729  1.00  0.00    -0.267 OA
HETATM    4  H   UNL     1      40.035 -13.412   2.770  1.00  0.00     0.171 HD
ENDROOT
BRANCH   1   5
HETATM    5  C   UNL     1      41.807 -14.165   4.413  1.00  0.00     0.095 A 
HETATM    6  C   UNL     1      41.123 -13.570   5.454  1.00  0.00     0.093 A 
HETATM    7  C   UNL     1      40.505 -12.244   5.652  1.00  0.00     0.080 C 
HETATM    8  O   UNL     1      41.036 -14.435   6.496  1.00  0.00    -0.217 OA
HETATM    9  N   UNL     1      41.643 -15.626   6.161  1.00  0.00    -0.127 NA
HETATM   10  C   UNL     1      42.089 -15.476   4.906  1.00  0.00     0.116 A 
BRANCH  10  11
HETATM   11  C   UNL     1      42.733 -16.597   4.230  1.00  0.00     0.039 A 
HETATM   12  C   UNL     1      42.199 -17.125   3.042  1.00  0.00     0.048 A 
HETATM   13 CL   UNL     1      40.772 -16.484   2.305  1.00  0.00    -0.083 Cl
HETATM   14  C   UNL     1      42.828 -18.195   2.393  1.00  0.00     0.025 A 
HETATM   15  C   UNL     1      43.991 -18.751   2.920  1.00  0.00     0.003 A 
HETATM   16  C   UNL     1      44.533 -18.235   4.095  1.00  0.00     0.025 A 
HETATM   17  C   UNL     1      43.911 -17.165   4.746  1.00  0.00     0.048 A 
HETATM   18 CL   UNL     1      44.701 -16.528   6.149  1.00  0.00    -0.083 Cl
ENDBRANCH  10  11
ENDBRANCH   1   5
BRANCH   2  19
HETATM   19  C   UNL     1      41.000 -12.461   1.273  1.00  0.00     0.174 A 
HETATM   20  S   UNL     1      41.396 -10.812   1.450  1.00  0.00    -0.050 SA
HETATM   21  C   UNL     1      41.283 -10.613  -0.259  1.00  0.00     0.039 A 
HETATM   22  C   UNL     1      40.958 -11.846  -0.834  1.00  0.00     0.077 A 
HETATM   23  C   UNL     1      41.468  -9.451  -1.029  1.00  0.00     0.057 A 
HETATM   24  N   UNL     1      40.809 -12.891   0.057  1.00  0.00    -0.223 NA
HETATM   25  C   UNL     1      40.810 -11.925  -2.235  1.00  0.00     0.035 A 
HETATM   26  C   UNL     1      40.984 -10.782  -3.024  1.00  0.00     0.038 A 
HETATM   27  C   UNL     1      41.309  -9.563  -2.422  1.00  0.00     0.104 A 
BRANCH  27  28
HETATM   28  N   UNL     1      41.487  -8.366  -3.258  1.00  0.00    -0.116 N 
HETATM   29  O   UNL     1      40.635  -8.140  -4.128  1.00  0.00    -0.532 OA
HETATM   30  O   UNL     1      42.480  -7.656  -3.042  1.00  0.00    -0.532 OA
ENDBRANCH  27  28
ENDBRANCH   2  19
TORSDOF 4
ENDMDL
MODEL 10
REMARK VINA RESULT:      -8.0      1.830      4.019
REMARK  4 active torsions:
REMARK  status: ('A' for Active; 'I' for Inactive)
REMARK    1  A    between atoms: C_5  and  C_6 
REMARK    2  A    between atoms: C_14  and  C_15 
REMARK       I    between atoms: C_15  and  N_16 
REMARK    3  A    between atoms: N_16  and  C_17 
REMARK    4  A    between atoms: C_23  and  N_24 
ROOT
HETATM    1  C   UNL     1      41.797 -12.834   5.221  1.00  0.00     0.262 C 
HETATM    2  N   UNL     1      42.941 -13.321   4.635  1.00  0.00    -0.301 N 
HETATM    3  O   UNL     1      40.772 -13.470   5.432  1.00  0.00    -0.267 OA
HETATM    4  H   UNL     1      43.680 -12.704   4.340  1.00  0.00     0.171 HD
ENDROOT
BRANCH   1   5
HETATM    5  C   UNL     1      41.866 -11.418   5.549  1.00  0.00     0.095 A 
HETATM    6  C   UNL     1      42.674 -10.877   6.529  1.00  0.00     0.093 A 
HETATM    7  C   UNL     1      43.634 -11.443   7.497  1.00  0.00     0.080 C 
HETATM    8  O   UNL     1      42.501  -9.532   6.571  1.00  0.00    -0.217 OA
HETATM    9  N   UNL     1      41.591  -9.151   5.608  1.00  0.00    -0.127 NA
HETATM   10  C   UNL     1      41.223 -10.276   4.979  1.00  0.00     0.116 A 
BRANCH  10  11
HETATM   11  C   UNL     1      40.301 -10.204   3.851  1.00  0.00     0.039 A 
HETATM   12  C   UNL     1      40.746 -10.454   2.541  1.00  0.00     0.048 A 
HETATM   13 CL   UNL     1      42.386 -10.870   2.185  1.00  0.00    -0.083 Cl
HETATM   14  C   UNL     1      39.854 -10.392   1.464  1.00  0.00     0.025 A 
HETATM   15  C   UNL     1      38.513 -10.079   1.677  1.00  0.00     0.003 A 
HETATM   16  C   UNL     1      38.059  -9.833   2.971  1.00  0.00     0.025 A 
HETATM   17  C   UNL     1      38.944  -9.896   4.052  1.00  0.00     0.048 A 
HETATM   18 CL   UNL     1      38.277  -9.666   5.632  1.00  0.00    -0.083 Cl
ENDBRANCH  10  11
ENDBRANCH   1   5
BRANCH   2  19
HETATM   19  C   UNL     1      43.103 -14.640   4.321  1.00  0.00     0.174 A 
HETATM   20  S   UNL     1      43.530 -15.610   5.656  1.00  0.00    -0.050 SA
HETATM   21  C   UNL     1      43.565 -16.992   4.626  1.00  0.00     0.039 A 
HETATM   22  C   UNL     1      43.230 -16.593   3.328  1.00  0.00     0.077 A 
HETATM   23  C   UNL     1      43.866 -18.328   4.947  1.00  0.00     0.057 A 
HETATM   24  N   UNL     1      42.961 -15.247   3.176  1.00  0.00    -0.223 NA
HETATM   25  C   UNL     1      43.195 -17.565   2.306  1.00  0.00     0.035 A 
HETATM   26  C   UNL     1      43.495 -18.900   2.597  1.00  0.00     0.038 A 
HETATM   27  C   UNL     1      43.827 -19.270   3.904  1.00  0.00     0.104 A 
BRANCH  27  28
HETATM   28  N   UNL     1      44.144 -20.676   4.202  1.00  0.00    -0.116 N 
HETATM   29  O   UNL     1      44.007 -21.501   3.288  1.00  0.00    -0.532 OA
HETATM   30  O   UNL     1      44.529 -20.949   5.348  1.00  0.00    -0.532 OA
ENDBRANCH  27  28
ENDBRANCH   2  19
TORSDOF 4
ENDMDL
