MODEL 1
REMARK VINA RESULT:      -8.8      0.000      0.000
REMARK  3 active torsions:
REMARK  status: ('A' for Active; 'I' for Inactive)
REMARK    1  A    between atoms: C_2  and  C_3 
REMARK    2  A    between atoms: C_12  and  C_13 
REMARK    3  A    between atoms: C_16  and  O_17 
ROOT
HETATM    1  C   UNL     1      47.802 -30.728   3.058  1.00  0.00    -0.007 C 
HETATM    2  C   UNL     1      46.482 -29.999   3.401  1.00  0.00     0.009 C 
HETATM    3  C   UNL     1      45.881 -29.143   2.270  1.00  0.00     0.056 C 
HETATM    4  C   UNL     1      45.871 -29.811   0.877  1.00  0.00     0.129 C 
HETATM    5  N   UNL     1      44.711 -30.713   0.641  1.00  0.00    -0.223 N 
HETATM    6  C   UNL     1      44.302 -30.999  -0.671  1.00  0.00     0.142 C 
HETATM    7  N   UNL     1      43.517 -32.103  -0.857  1.00  0.00    -0.305 N 
HETATM    8  C   UNL     1      42.943 -32.747   0.207  1.00  0.00     0.278 C 
HETATM    9  O   UNL     1      42.386 -33.827   0.103  1.00  0.00    -0.265 OA
HETATM   10  C   UNL     1      43.004 -31.968   1.526  1.00  0.00     0.155 C 
HETATM   11  N   UNL     1      43.929 -31.059   1.721  1.00  0.00    -0.162 NA
HETATM   12  C   UNL     1      44.636 -30.196  -1.708  1.00  0.00     0.036 C 
HETATM   13  C   UNL     1      45.326 -28.912  -1.322  1.00  0.00     0.044 C 
HETATM   14  N   UNL     1      45.807 -28.724  -0.145  1.00  0.00    -0.361 N 
HETATM   15  H   UNL     1      46.235 -27.830   0.088  1.00  0.00     0.162 HD
HETATM   16  C   UNL     1      44.287 -30.384  -3.104  1.00  0.00     0.017 C 
HETATM   17  C   UNL     1      44.489 -29.408  -3.999  1.00  0.00     0.001 C 
HETATM   18  C   UNL     1      45.030 -28.126  -3.615  1.00  0.00     0.002 C 
HETATM   19  C   UNL     1      45.431 -27.855  -2.365  1.00  0.00     0.030 C 
HETATM   20  C   UNL     1      47.193 -30.562   0.589  1.00  0.00     0.056 C 
HETATM   21  C   UNL     1      47.614 -31.474   1.728  1.00  0.00     0.009 C 
HETATM   22  H   UNL     1      43.329 -32.506  -1.764  1.00  0.00     0.170 HD
ENDROOT
BRANCH   1  23
HETATM   23  C   UNL     1      49.127 -29.872   3.224  1.00  0.00    -0.048 C 
HETATM   24  C   UNL     1      49.865 -30.362   4.495  1.00  0.00     0.015 C 
HETATM   25  C   UNL     1      48.906 -28.359   3.395  1.00  0.00     0.015 C 
HETATM   26  C   UNL     1      50.099 -30.070   2.041  1.00  0.00     0.015 C 
ENDBRANCH   1  23
BRANCH  10  27
HETATM   27  C   UNL     1      41.933 -32.166   2.549  1.00  0.00     0.000 A 
HETATM   28  C   UNL     1      42.260 -32.151   3.909  1.00  0.00     0.017 A 
HETATM   29  C   UNL     1      41.250 -32.195   4.876  1.00  0.00     0.037 A 
HETATM   30  C   UNL     1      39.903 -32.238   4.505  1.00  0.00     0.068 A 
HETATM   31  C   UNL     1      39.574 -32.271   3.152  1.00  0.00     0.037 A 
HETATM   32  C   UNL     1      40.582 -32.229   2.180  1.00  0.00     0.017 A 
BRANCH  30  33
HETATM   33  O   UNL     1      39.017 -32.240   5.544  1.00  0.00    -0.356 OA
HETATM   34  C   UNL     1      38.123 -33.345   5.626  1.00  0.00     0.210 C 
ENDBRANCH  30  33
ENDBRANCH  10  27
TORSDOF 3
ENDMDL
MODEL 2
REMARK VINA RESULT:      -8.7     17.628     19.700
REMARK  3 active torsions:
REMARK  status: ('A' for Active; 'I' for Inactive)
REMARK    1  A    between atoms: C_2  and  C_3 
REMARK    2  A    between atoms: C_12  and  C_13 
REMARK    3  A    between atoms: C_16  and  O_17 
ROOT
HETATM    1  C   UNL     1      42.837 -15.430   4.705  1.00  0.00    -0.007 C 
HETATM    2  C   UNL     1      41.363 -15.276   4.267  1.00  0.00     0.009 C 
HETATM    3  C   UNL     1      40.579 -14.140   4.952  1.00  0.00     0.056 C 
HETATM    4  C   UNL     1      41.332 -12.796   5.059  1.00  0.00     0.129 C 
HETATM    5  N   UNL     1      41.246 -11.950   3.838  1.00  0.00    -0.223 N 
HETATM    6  C   UNL     1      41.444 -10.563   3.932  1.00  0.00     0.142 C 
HETATM    7  N   UNL     1      41.743  -9.892   2.779  1.00  0.00    -0.305 N 
HETATM    8  C   UNL     1      41.601 -10.494   1.556  1.00  0.00     0.278 C 
HETATM    9  O   UNL     1      42.020  -9.998   0.523  1.00  0.00    -0.265 OA
HETATM   10  C   UNL     1      40.817 -11.811   1.587  1.00  0.00     0.155 C 
HETATM   11  N   UNL     1      40.749 -12.521   2.688  1.00  0.00    -0.162 NA
HETATM   12  C   UNL     1      41.305  -9.906   5.107  1.00  0.00     0.036 C 
HETATM   13  C   UNL     1      40.774 -10.741   6.244  1.00  0.00     0.044 C 
HETATM   14  N   UNL     1      40.722 -12.024   6.182  1.00  0.00    -0.361 N 
HETATM   15  H   UNL     1      40.323 -12.550   6.957  1.00  0.00     0.162 HD
HETATM   16  C   UNL     1      41.490  -8.485   5.338  1.00  0.00     0.017 C 
HETATM   17  C   UNL     1      41.111  -7.924   6.494  1.00  0.00     0.001 C 
HETATM   18  C   UNL     1      40.481  -8.693   7.540  1.00  0.00     0.002 C 
HETATM   19  C   UNL     1      40.302 -10.018   7.457  1.00  0.00     0.030 C 
HETATM   20  C   UNL     1      42.813 -12.996   5.461  1.00  0.00     0.056 C 
HETATM   21  C   UNL     1      43.514 -14.053   4.626  1.00  0.00     0.009 C 
HETATM   22  H   UNL     1      42.089  -8.943   2.760  1.00  0.00     0.170 HD
ENDROOT
BRANCH   1  23
HETATM   23  C   UNL     1      43.081 -16.278   6.024  1.00  0.00    -0.048 C 
HETATM   24  C   UNL     1      42.984 -17.780   5.658  1.00  0.00     0.015 C 
HETATM   25  C   UNL     1      42.065 -16.030   7.153  1.00  0.00     0.015 C 
HETATM   26  C   UNL     1      44.491 -16.051   6.609  1.00  0.00     0.015 C 
ENDBRANCH   1  23
BRANCH  10  27
HETATM   27  C   UNL     1      40.032 -12.229   0.386  1.00  0.00     0.000 A 
HETATM   28  C   UNL     1      40.370 -13.407  -0.288  1.00  0.00     0.017 A 
HETATM   29  C   UNL     1      39.559 -13.881  -1.325  1.00  0.00     0.037 A 
HETATM   30  C   UNL     1      38.396 -13.200  -1.695  1.00  0.00     0.068 A 
HETATM   31  C   UNL     1      38.065 -12.018  -1.037  1.00  0.00     0.037 A 
HETATM   32  C   UNL     1      38.875 -11.539   0.001  1.00  0.00     0.017 A 
BRANCH  30  33
HETATM   33  O   UNL     1      37.674 -13.787  -2.695  1.00  0.00    -0.356 OA
HETATM   34  C   UNL     1      38.290 -14.871  -3.383  1.00  0.00     0.210 C 
ENDBRANCH  30  33
ENDBRANCH  10  27
TORSDOF 3
ENDMDL
MODEL 3
REMARK VINA RESULT:      -8.6     16.811     19.083
REMARK  3 active torsions:
REMARK  status: ('A' for Active; 'I' for Inactive)
REMARK    1  A    between atoms: C_2  and  C_3 
REMARK    2  A    between atoms: C_12  and  C_13 
REMARK    3  A    between atoms: C_16  and  O_17 
ROOT
HETATM    1  C   UNL     1      39.844 -12.766   0.419  1.00  0.00    -0.007 C 
HETATM    2  C   UNL     1      41.273 -13.143   0.871  1.00  0.00     0.009 C 
HETATM    3  C   UNL     1      41.927 -12.183   1.884  1.00  0.00     0.056 C 
HETATM    4  C   UNL     1      41.013 -11.734   3.045  1.00  0.00     0.129 C 
HETATM    5  N   UNL     1      40.954 -12.692   4.182  1.00  0.00    -0.223 N 
HETATM    6  C   UNL     1      40.585 -12.242   5.459  1.00  0.00     0.142 C 
HETATM    7  N   UNL     1      40.169 -13.182   6.361  1.00  0.00    -0.305 N 
HETATM    8  C   UNL     1      40.350 -14.519   6.119  1.00  0.00     0.278 C 
HETATM    9  O   UNL     1      39.841 -15.389   6.805  1.00  0.00    -0.265 OA
HETATM   10  C   UNL     1      41.295 -14.828   4.951  1.00  0.00     0.155 C 
HETATM   11  N   UNL     1      41.485 -13.949   3.997  1.00  0.00    -0.162 NA
HETATM   12  C   UNL     1      40.674 -10.936   5.803  1.00  0.00     0.036 C 
HETATM   13  C   UNL     1      41.341 -10.053   4.779  1.00  0.00     0.044 C 
HETATM   14  N   UNL     1      41.553 -10.446   3.574  1.00  0.00    -0.361 N 
HETATM   15  H   UNL     1      42.038  -9.833   2.921  1.00  0.00     0.162 HD
HETATM   16  C   UNL     1      40.318 -10.344   7.079  1.00  0.00     0.017 C 
HETATM   17  C   UNL     1      40.658  -9.080   7.368  1.00  0.00     0.001 C 
HETATM   18  C   UNL     1      41.411  -8.267   6.443  1.00  0.00     0.002 C 
HETATM   19  C   UNL     1      41.753  -8.692   5.219  1.00  0.00     0.030 C 
HETATM   20  C   UNL     1      39.581 -11.403   2.557  1.00  0.00     0.056 C 
HETATM   21  C   UNL     1      38.995 -12.487   1.670  1.00  0.00     0.009 C 
HETATM   22  H   UNL     1      39.706 -12.955   7.228  1.00  0.00     0.170 HD
ENDROOT
BRANCH   1  23
HETATM   23  C   UNL     1      39.749 -11.714  -0.765  1.00  0.00    -0.048 C 
HETATM   24  C   UNL     1      40.124 -12.434  -2.084  1.00  0.00     0.015 C 
HETATM   25  C   UNL     1      40.692 -10.504  -0.637  1.00  0.00     0.015 C 
HETATM   26  C   UNL     1      38.316 -11.170  -0.946  1.00  0.00     0.015 C 
ENDBRANCH   1  23
BRANCH  10  27
HETATM   27  C   UNL     1      42.090 -16.093   4.963  1.00  0.00     0.000 A 
HETATM   28  C   UNL     1      42.389 -16.737   3.758  1.00  0.00     0.017 A 
HETATM   29  C   UNL     1      43.248 -17.841   3.744  1.00  0.00     0.037 A 
HETATM   30  C   UNL     1      43.833 -18.309   4.924  1.00  0.00     0.068 A 
HETATM   31  C   UNL     1      43.525 -17.682   6.128  1.00  0.00     0.037 A 
HETATM   32  C   UNL     1      42.664 -16.577   6.148  1.00  0.00     0.017 A 
BRANCH  30  33
HETATM   33  O   UNL     1      44.681 -19.369   4.769  1.00  0.00    -0.356 OA
HETATM   34  C   UNL     1      44.237 -20.627   5.267  1.00  0.00     0.210 C 
ENDBRANCH  30  33
ENDBRANCH  10  27
TORSDOF 3
ENDMDL
MODEL 4
REMARK VINA RESULT:      -8.4     16.450     18.628
REMARK  3 active torsions:
REMARK  status: ('A' for Active; 'I' for Inactive)
REMARK    1  A    between atoms: C_2  and  C_3 
REMARK    2  A    between atoms: C_12  and  C_13 
REMARK    3  A    between atoms: C_16  and  O_17 
ROOT
HETATM    1  C   UNL     1      42.763 -16.886   1.917  1.00  0.00    -0.007 C 
HETATM    2  C   UNL     1      41.240 -16.624   1.964  1.00  0.00     0.009 C 
HETATM    3  C   UNL     1      40.769 -15.616   3.029  1.00  0.00     0.056 C 
HETATM    4  C   UNL     1      41.617 -14.329   3.134  1.00  0.00     0.129 C 
HETATM    5  N   UNL     1      41.249 -13.274   2.151  1.00  0.00    -0.223 N 
HETATM    6  C   UNL     1      41.565 -11.931   2.414  1.00  0.00     0.142 C 
HETATM    7  N   UNL     1      41.570 -11.068   1.354  1.00  0.00    -0.305 N 
HETATM    8  C   UNL     1      41.042 -11.435   0.144  1.00  0.00     0.278 C 
HETATM    9  O   UNL     1      41.183 -10.769  -0.868  1.00  0.00    -0.265 OA
HETATM   10  C   UNL     1      40.206 -12.720   0.182  1.00  0.00     0.155 C 
HETATM   11  N   UNL     1      40.403 -13.616   1.120  1.00  0.00    -0.162 NA
HETATM   12  C   UNL     1      41.816 -11.495   3.671  1.00  0.00     0.036 C 
HETATM   13  C   UNL     1      41.571 -12.512   4.758  1.00  0.00     0.044 C 
HETATM   14  N   UNL     1      41.411 -13.761   4.499  1.00  0.00    -0.361 N 
HETATM   15  H   UNL     1      41.213 -14.411   5.258  1.00  0.00     0.162 HD
HETATM   16  C   UNL     1      42.162 -10.145   4.072  1.00  0.00     0.017 C 
HETATM   17  C   UNL     1      42.170  -9.794   5.365  1.00  0.00     0.001 C 
HETATM   18  C   UNL     1      41.811 -10.727   6.406  1.00  0.00     0.002 C 
HETATM   19  C   UNL     1      41.520 -12.012   6.158  1.00  0.00     0.030 C 
HETATM   20  C   UNL     1      43.133 -14.629   3.044  1.00  0.00     0.056 C 
HETATM   21  C   UNL     1      43.488 -15.531   1.875  1.00  0.00     0.009 C 
HETATM   22  H   UNL     1      41.964 -10.140   1.393  1.00  0.00     0.170 HD
ENDROOT
BRANCH   1  23
HETATM   23  C   UNL     1      43.311 -17.964   2.945  1.00  0.00    -0.048 C 
HETATM   24  C   UNL     1      42.834 -19.362   2.480  1.00  0.00     0.015 C 
HETATM   25  C   UNL     1      42.823 -17.787   4.394  1.00  0.00     0.015 C 
HETATM   26  C   UNL     1      44.854 -18.007   2.975  1.00  0.00     0.015 C 
ENDBRANCH   1  23
BRANCH  10  27
HETATM   27  C   UNL     1      39.082 -12.897  -0.787  1.00  0.00     0.000 A 
HETATM   28  C   UNL     1      38.091 -11.916  -0.888  1.00  0.00     0.017 A 
HETATM   29  C   UNL     1      37.115 -12.003  -1.887  1.00  0.00     0.037 A 
HETATM   30  C   UNL     1      37.120 -13.056  -2.805  1.00  0.00     0.068 A 
HETATM   31  C   UNL     1      38.094 -14.044  -2.697  1.00  0.00     0.037 A 
HETATM   32  C   UNL     1      39.074 -13.963  -1.698  1.00  0.00     0.017 A 
BRANCH  30  33
HETATM   33  O   UNL     1      36.136 -13.003  -3.751  1.00  0.00    -0.356 OA
HETATM   34  C   UNL     1      35.181 -11.954  -3.630  1.00  0.00     0.210 C 
ENDBRANCH  30  33
ENDBRANCH  10  27
TORSDOF 3
ENDMDL
MODEL 5
REMARK VINA RESULT:      -8.3     18.886     21.246
REMARK  3 active torsions:
REMARK  status: ('A' for Active; 'I' for Inactive)
REMARK    1  A    between atoms: C_2  and  C_3 
REMARK    2  A    between atoms: C_12  and  C_13 
REMARK    3  A    between atoms: C_16  and  O_17 
ROOT
HETATM    1  C   UNL     1      40.504 -10.503   3.189  1.00  0.00    -0.007 C 
HETATM    2  C   UNL     1      40.075 -10.428   4.672  1.00  0.00     0.009 C 
HETATM    3  C   UNL     1      40.138 -11.755   5.452  1.00  0.00     0.056 C 
HETATM    4  C   UNL     1      41.418 -12.588   5.225  1.00  0.00     0.129 C 
HETATM    5  N   UNL     1      42.571 -12.180   6.072  1.00  0.00    -0.223 N 
HETATM    6  C   UNL     1      43.603 -13.093   6.337  1.00  0.00     0.142 C 
HETATM    7  N   UNL     1      44.797 -12.584   6.771  1.00  0.00    -0.305 N 
HETATM    8  C   UNL     1      44.901 -11.279   7.174  1.00  0.00     0.278 C 
HETATM    9  O   UNL     1      45.972 -10.741   7.397  1.00  0.00    -0.265 OA
HETATM   10  C   UNL     1      43.556 -10.572   7.382  1.00  0.00     0.155 C 
HETATM   11  N   UNL     1      42.480 -10.990   6.760  1.00  0.00    -0.162 NA
HETATM   12  C   UNL     1      43.418 -14.428   6.210  1.00  0.00     0.036 C 
HETATM   13  C   UNL     1      41.999 -14.849   5.926  1.00  0.00     0.044 C 
HETATM   14  N   UNL     1      41.098 -14.008   5.559  1.00  0.00    -0.361 N 
HETATM   15  H   UNL     1      40.142 -14.326   5.411  1.00  0.00     0.162 HD
HETATM   16  C   UNL     1      44.400 -15.471   6.443  1.00  0.00     0.017 C 
HETATM   17  C   UNL     1      44.034 -16.758   6.496  1.00  0.00     0.001 C 
HETATM   18  C   UNL     1      42.656 -17.161   6.354  1.00  0.00     0.002 C 
HETATM   19  C   UNL     1      41.671 -16.292   6.090  1.00  0.00     0.030 C 
HETATM   20  C   UNL     1      41.836 -12.606   3.734  1.00  0.00     0.056 C 
HETATM   21  C   UNL     1      41.860 -11.222   3.111  1.00  0.00     0.009 C 
HETATM   22  H   UNL     1      45.651 -13.121   6.805  1.00  0.00     0.170 HD
ENDROOT
BRANCH   1  23
HETATM   23  C   UNL     1      39.383 -10.969   2.167  1.00  0.00    -0.048 C 
HETATM   24  C   UNL     1      38.241  -9.922   2.192  1.00  0.00     0.015 C 
HETATM   25  C   UNL     1      38.742 -12.332   2.483  1.00  0.00     0.015 C 
HETATM   26  C   UNL     1      39.905 -11.024   0.716  1.00  0.00     0.015 C 
ENDBRANCH   1  23
BRANCH  10  27
HETATM   27  C   UNL     1      43.450  -9.471   8.387  1.00  0.00     0.000 A 
HETATM   28  C   UNL     1      43.050  -8.195   7.980  1.00  0.00     0.017 A 
HETATM   29  C   UNL     1      42.812  -7.196   8.930  1.00  0.00     0.037 A 
HETATM   30  C   UNL     1      42.955  -7.456  10.295  1.00  0.00     0.068 A 
HETATM   31  C   UNL     1      43.370  -8.720  10.704  1.00  0.00     0.037 A 
HETATM   32  C   UNL     1      43.610  -9.724   9.757  1.00  0.00     0.017 A 
BRANCH  30  33
HETATM   33  O   UNL     1      42.657  -6.407  11.118  1.00  0.00    -0.356 OA
HETATM   34  C   UNL     1      41.312  -6.309  11.577  1.00  0.00     0.210 C 
ENDBRANCH  30  33
ENDBRANCH  10  27
TORSDOF 3
ENDMDL
MODEL 6
REMARK VINA RESULT:      -8.3     18.573     20.520
REMARK  3 active torsions:
REMARK  status: ('A' for Active; 'I' for Inactive)
REMARK    1  A    between atoms: C_2  and  C_3 
REMARK    2  A    between atoms: C_12  and  C_13 
REMARK    3  A    between atoms: C_16  and  O_17 
ROOT
HETATM    1  C   UNL     1      42.102 -14.982   3.783  1.00  0.00    -0.007 C 
HETATM    2  C   UNL     1      42.811 -13.614   3.658  1.00  0.00     0.009 C 
HETATM    3  C   UNL     1      42.368 -12.740   2.469  1.00  0.00     0.056 C 
HETATM    4  C   UNL     1      40.842 -12.664   2.244  1.00  0.00     0.129 C 
HETATM    5  N   UNL     1      40.151 -11.650   3.086  1.00  0.00    -0.223 N 
HETATM    6  C   UNL     1      38.911 -11.131   2.680  1.00  0.00     0.142 C 
HETATM    7  N   UNL     1      38.143 -10.522   3.634  1.00  0.00    -0.305 N 
HETATM    8  C   UNL     1      38.664 -10.203   4.860  1.00  0.00     0.278 C 
HETATM    9  O   UNL     1      37.975  -9.825   5.793  1.00  0.00    -0.265 OA
HETATM   10  C   UNL     1      40.193 -10.301   4.943  1.00  0.00     0.155 C 
HETATM   11  N   UNL     1      40.856 -11.080   4.122  1.00  0.00    -0.162 NA
HETATM   12  C   UNL     1      38.505 -11.192   1.391  1.00  0.00     0.036 C 
HETATM   13  C   UNL     1      39.541 -11.703   0.421  1.00  0.00     0.044 C 
HETATM   14  N   UNL     1      40.613 -12.291   0.816  1.00  0.00    -0.361 N 
HETATM   15  H   UNL     1      41.305 -12.591   0.132  1.00  0.00     0.162 HD
HETATM   16  C   UNL     1      37.251 -10.705   0.848  1.00  0.00     0.017 C 
HETATM   17  C   UNL     1      37.061 -10.626  -0.476  1.00  0.00     0.001 C 
HETATM   18  C   UNL     1      38.096 -10.991  -1.414  1.00  0.00     0.002 C 
HETATM   19  C   UNL     1      39.276 -11.498  -1.029  1.00  0.00     0.030 C 
HETATM   20  C   UNL     1      40.165 -14.045   2.417  1.00  0.00     0.056 C 
HETATM   21  C   UNL     1      40.585 -14.753   3.693  1.00  0.00     0.009 C 
HETATM   22  H   UNL     1      37.170 -10.290   3.501  1.00  0.00     0.170 HD
ENDROOT
BRANCH   1  23
HETATM   23  C   UNL     1      42.707 -16.157   2.905  1.00  0.00    -0.048 C 
HETATM   24  C   UNL     1      43.675 -16.976   3.794  1.00  0.00     0.015 C 
HETATM   25  C   UNL     1      43.512 -15.701   1.675  1.00  0.00     0.015 C 
HETATM   26  C   UNL     1      41.619 -17.134   2.413  1.00  0.00     0.015 C 
ENDBRANCH   1  23
BRANCH  10  27
HETATM   27  C   UNL     1      40.937  -9.416   5.890  1.00  0.00     0.000 A 
HETATM   28  C   UNL     1      41.751  -9.984   6.876  1.00  0.00     0.017 A 
HETATM   29  C   UNL     1      42.560  -9.168   7.675  1.00  0.00     0.037 A 
HETATM   30  C   UNL     1      42.582  -7.783   7.495  1.00  0.00     0.068 A 
HETATM   31  C   UNL     1      41.760  -7.212   6.526  1.00  0.00     0.037 A 
HETATM   32  C   UNL     1      40.947  -8.024   5.724  1.00  0.00     0.017 A 
BRANCH  30  33
HETATM   33  O   UNL     1      43.441  -7.106   8.313  1.00  0.00    -0.356 OA
HETATM   34  C   UNL     1      44.445  -7.873   8.969  1.00  0.00     0.210 C 
ENDBRANCH  30  33
ENDBRANCH  10  27
TORSDOF 3
ENDMDL
MODEL 7
REMARK VINA RESULT:      -8.0      5.265      7.815
REMARK  3 active torsions:
REMARK  status: ('A' for Active; 'I' for Inactive)
REMARK    1  A    between atoms: C_2  and  C_3 
REMARK    2  A    between atoms: C_12  and  C_13 
REMARK    3  A    between atoms: C_16  and  O_17 
ROOT
HETATM    1  C   UNL     1      51.869 -32.524  -2.224  1.00  0.00    -0.007 C 
HETATM    2  C   UNL     1      50.417 -33.051  -2.282  1.00  0.00     0.009 C 
HETATM    3  C   UNL     1      49.657 -33.061  -0.941  1.00  0.00     0.056 C 
HETATM    4  C   UNL     1      49.814 -31.782  -0.089  1.00  0.00     0.129 C 
HETATM    5  N   UNL     1      48.885 -30.681  -0.464  1.00  0.00    -0.223 N 
HETATM    6  C   UNL     1      48.568 -29.684   0.472  1.00  0.00     0.142 C 
HETATM    7  N   UNL     1      48.047 -28.515  -0.009  1.00  0.00    -0.305 N 
HETATM    8  C   UNL     1      47.614 -28.417  -1.306  1.00  0.00     0.278 C 
HETATM    9  O   UNL     1      47.311 -27.354  -1.822  1.00  0.00    -0.265 OA
HETATM   10  C   UNL     1      47.484 -29.761  -2.032  1.00  0.00     0.155 C 
HETATM   11  N   UNL     1      48.183 -30.800  -1.643  1.00  0.00    -0.162 NA
HETATM   12  C   UNL     1      48.731 -29.881   1.801  1.00  0.00     0.036 C 
HETATM   13  C   UNL     1      49.116 -31.286   2.193  1.00  0.00     0.044 C 
HETATM   14  N   UNL     1      49.527 -32.146   1.330  1.00  0.00    -0.361 N 
HETATM   15  H   UNL     1      49.744 -33.095   1.629  1.00  0.00     0.162 HD
HETATM   16  C   UNL     1      48.452 -28.934   2.864  1.00  0.00     0.017 C 
HETATM   17  C   UNL     1      48.446 -29.324   4.146  1.00  0.00     0.001 C 
HETATM   18  C   UNL     1      48.686 -30.696   4.523  1.00  0.00     0.002 C 
HETATM   19  C   UNL     1      49.000 -31.647   3.632  1.00  0.00     0.030 C 
HETATM   20  C   UNL     1      51.273 -31.265  -0.089  1.00  0.00     0.056 C 
HETATM   21  C   UNL     1      51.869 -31.178  -1.483  1.00  0.00     0.009 C 
HETATM   22  H   UNL     1      47.965 -27.673   0.542  1.00  0.00     0.170 HD
ENDROOT
BRANCH   1  23
HETATM   23  C   UNL     1      52.971 -33.582  -1.795  1.00  0.00    -0.048 C 
HETATM   24  C   UNL     1      53.210 -34.542  -2.987  1.00  0.00     0.015 C 
HETATM   25  C   UNL     1      52.594 -34.459  -0.587  1.00  0.00     0.015 C 
HETATM   26  C   UNL     1      54.327 -32.915  -1.481  1.00  0.00     0.015 C 
ENDBRANCH   1  23
BRANCH  10  27
HETATM   27  C   UNL     1      46.468 -29.916  -3.118  1.00  0.00     0.000 A 
HETATM   28  C   UNL     1      46.554 -30.998  -3.999  1.00  0.00     0.017 A 
HETATM   29  C   UNL     1      45.534 -31.231  -4.928  1.00  0.00     0.037 A 
HETATM   30  C   UNL     1      44.410 -30.403  -4.982  1.00  0.00     0.068 A 
HETATM   31  C   UNL     1      44.329 -29.314  -4.118  1.00  0.00     0.037 A 
HETATM   32  C   UNL     1      45.349 -29.075  -3.187  1.00  0.00     0.017 A 
BRANCH  30  33
HETATM   33  O   UNL     1      43.471 -30.761  -5.907  1.00  0.00    -0.356 OA
HETATM   34  C   UNL     1      43.949 -31.195  -7.176  1.00  0.00     0.210 C 
ENDBRANCH  30  33
ENDBRANCH  10  27
TORSDOF 3
ENDMDL
MODEL 8
REMARK VINA RESULT:      -8.0     16.985     18.717
REMARK  3 active torsions:
REMARK  status: ('A' for Active; 'I' for Inactive)
REMARK    1  A    between atoms: C_2  and  C_3 
REMARK    2  A    between atoms: C_12  and  C_13 
REMARK    3  A    between atoms: C_16  and  O_17 
ROOT
HETATM    1  C   UNL     1      41.451 -10.154   5.706  1.00  0.00    -0.007 C 
HETATM    2  C   UNL     1      40.707 -11.487   5.951  1.00  0.00     0.009 C 
HETATM    3  C   UNL     1      39.656 -11.868   4.890  1.00  0.00     0.056 C 
HETATM    4  C   UNL     1      40.103 -11.674   3.425  1.00  0.00     0.129 C 
HETATM    5  N   UNL     1      40.891 -12.810   2.872  1.00  0.00    -0.223 N 
HETATM    6  C   UNL     1      40.951 -13.010   1.484  1.00  0.00     0.142 C 
HETATM    7  N   UNL     1      41.967 -13.791   1.006  1.00  0.00    -0.305 N 
HETATM    8  C   UNL     1      42.730 -14.551   1.853  1.00  0.00     0.278 C 
HETATM    9  O   UNL     1      43.748 -15.119   1.494  1.00  0.00    -0.265 OA
HETATM   10  C   UNL     1      42.163 -14.679   3.272  1.00  0.00     0.155 C 
HETATM   11  N   UNL     1      41.350 -13.767   3.749  1.00  0.00    -0.162 NA
HETATM   12  C   UNL     1      40.021 -12.486   0.652  1.00  0.00     0.036 C 
HETATM   13  C   UNL     1      38.853 -11.825   1.338  1.00  0.00     0.044 C 
HETATM   14  N   UNL     1      38.873 -11.536   2.590  1.00  0.00    -0.361 N 
HETATM   15  H   UNL     1      38.051 -11.121   3.025  1.00  0.00     0.162 HD
HETATM   16  C   UNL     1      39.976 -12.610  -0.793  1.00  0.00     0.017 C 
HETATM   17  C   UNL     1      38.889 -12.234  -1.480  1.00  0.00     0.001 C 
HETATM   18  C   UNL     1      37.714 -11.720  -0.819  1.00  0.00     0.002 C 
HETATM   19  C   UNL     1      37.659 -11.517   0.505  1.00  0.00     0.030 C 
HETATM   20  C   UNL     1      40.878 -10.349   3.230  1.00  0.00     0.056 C 
HETATM   21  C   UNL     1      41.974 -10.148   4.261  1.00  0.00     0.009 C 
HETATM   22  H   UNL     1      42.217 -13.843   0.029  1.00  0.00     0.170 HD
ENDROOT
BRANCH   1  23
HETATM   23  C   UNL     1      40.707  -8.845   6.208  1.00  0.00    -0.048 C 
HETATM   24  C   UNL     1      41.775  -7.855   6.736  1.00  0.00     0.015 C 
HETATM   25  C   UNL     1      39.703  -9.067   7.352  1.00  0.00     0.015 C 
HETATM   26  C   UNL     1      39.961  -8.126   5.064  1.00  0.00     0.015 C 
ENDBRANCH   1  23
BRANCH  10  27
HETATM   27  C   UNL     1      42.451 -15.907   4.072  1.00  0.00     0.000 A 
HETATM   28  C   UNL     1      43.264 -16.911   3.536  1.00  0.00     0.017 A 
HETATM   29  C   UNL     1      43.654 -17.998   4.326  1.00  0.00     0.037 A 
HETATM   30  C   UNL     1      43.254 -18.093   5.661  1.00  0.00     0.068 A 
HETATM   31  C   UNL     1      42.430 -17.105   6.195  1.00  0.00     0.037 A 
HETATM   32  C   UNL     1      42.036 -16.016   5.407  1.00  0.00     0.017 A 
BRANCH  30  33
HETATM   33  O   UNL     1      43.733 -19.183   6.332  1.00  0.00    -0.356 OA
HETATM   34  C   UNL     1      43.954 -20.364   5.569  1.00  0.00     0.210 C 
ENDBRANCH  30  33
ENDBRANCH  10  27
TORSDOF 3
ENDMDL
MODEL 9
REMARK VINA RESULT:      -8.0     25.401     27.907
REMARK  3 active torsions:
REMARK  status: ('A' for Active; 'I' for Inactive)
REMARK    1  A    between atoms: C_2  and  C_3 
REMARK    2  A    between atoms: C_12  and  C_13 
REMARK    3  A    between atoms: C_16  and  O_17 
ROOT
HETATM    1  C   UNL     1      38.506  -4.770  11.145  1.00  0.00    -0.007 C 
HETATM    2  C   UNL     1      40.025  -4.552  10.955  1.00  0.00     0.009 C 
HETATM    3  C   UNL     1      40.837  -4.355  12.250  1.00  0.00     0.056 C 
HETATM    4  C   UNL     1      40.494  -5.334  13.394  1.00  0.00     0.129 C 
HETATM    5  N   UNL     1      41.192  -6.645  13.305  1.00  0.00    -0.223 N 
HETATM    6  C   UNL     1      41.370  -7.424  14.459  1.00  0.00     0.142 C 
HETATM    7  N   UNL     1      41.649  -8.751  14.285  1.00  0.00    -0.305 N 
HETATM    8  C   UNL     1      41.995  -9.242  13.053  1.00  0.00     0.278 C 
HETATM    9  O   UNL     1      42.079 -10.436  12.818  1.00  0.00    -0.265 OA
HETATM   10  C   UNL     1      42.330  -8.165  12.014  1.00  0.00     0.155 C 
HETATM   11  N   UNL     1      41.847  -6.952  12.132  1.00  0.00    -0.162 NA
HETATM   12  C   UNL     1      41.309  -6.880  15.697  1.00  0.00     0.036 C 
HETATM   13  C   UNL     1      41.200  -5.376  15.727  1.00  0.00     0.044 C 
HETATM   14  N   UNL     1      40.909  -4.693  14.677  1.00  0.00    -0.361 N 
HETATM   15  H   UNL     1      40.880  -3.676  14.730  1.00  0.00     0.162 HD
HETATM   16  C   UNL     1      41.464  -7.573  16.962  1.00  0.00     0.017 C 
HETATM   17  C   UNL     1      41.600  -6.889  18.106  1.00  0.00     0.001 C 
HETATM   18  C   UNL     1      41.628  -5.446  18.129  1.00  0.00     0.002 C 
HETATM   19  C   UNL     1      41.447  -4.701  17.030  1.00  0.00     0.030 C 
HETATM   20  C   UNL     1      38.968  -5.555  13.525  1.00  0.00     0.056 C 
HETATM   21  C   UNL     1      38.300  -5.870  12.199  1.00  0.00     0.009 C 
HETATM   22  H   UNL     1      41.605  -9.432  15.029  1.00  0.00     0.170 HD
ENDROOT
BRANCH   1  23
HETATM   23  C   UNL     1      37.633  -3.454  11.298  1.00  0.00    -0.048 C 
HETATM   24  C   UNL     1      37.490  -2.803   9.899  1.00  0.00     0.015 C 
HETATM   25  C   UNL     1      38.231  -2.382  12.226  1.00  0.00     0.015 C 
HETATM   26  C   UNL     1      36.204  -3.758  11.796  1.00  0.00     0.015 C 
ENDBRANCH   1  23
BRANCH  10  27
HETATM   27  C   UNL     1      43.304  -8.472  10.923  1.00  0.00     0.000 A 
HETATM   28  C   UNL     1      43.253  -7.752   9.725  1.00  0.00     0.017 A 
HETATM   29  C   UNL     1      44.244  -7.933   8.754  1.00  0.00     0.037 A 
HETATM   30  C   UNL     1      45.304  -8.818   8.967  1.00  0.00     0.068 A 
HETATM   31  C   UNL     1      45.349  -9.549  10.151  1.00  0.00     0.037 A 
HETATM   32  C   UNL     1      44.358  -9.373  11.126  1.00  0.00     0.017 A 
BRANCH  30  33
HETATM   33  O   UNL     1      46.223  -8.873   7.958  1.00  0.00    -0.356 OA
HETATM   34  C   UNL     1      46.597 -10.168   7.497  1.00  0.00     0.210 C 
ENDBRANCH  30  33
ENDBRANCH  10  27
TORSDOF 3
ENDMDL
MODEL 10
REMARK VINA RESULT:      -7.8     18.822     20.684
REMARK  3 active torsions:
REMARK  status: ('A' for Active; 'I' for Inactive)
REMARK    1  A    between atoms: C_2  and  C_3 
REMARK    2  A    between atoms: C_12  and  C_13 
REMARK    3  A    between atoms: C_16  and  O_17 
ROOT
HETATM    1  C   UNL     1      42.814 -15.034   6.639  1.00  0.00    -0.007 C 
HETATM    2  C   UNL     1      43.574 -13.732   6.298  1.00  0.00     0.009 C 
HETATM    3  C   UNL     1      43.256 -13.116   4.922  1.00  0.00     0.056 C 
HETATM    4  C   UNL     1      41.756 -13.066   4.557  1.00  0.00     0.129 C 
HETATM    5  N   UNL     1      41.032 -11.890   5.111  1.00  0.00    -0.223 N 
HETATM    6  C   UNL     1      39.846 -11.448   4.504  1.00  0.00     0.142 C 
HETATM    7  N   UNL     1      39.023 -10.645   5.244  1.00  0.00    -0.305 N 
HETATM    8  C   UNL     1      39.453 -10.087   6.419  1.00  0.00     0.278 C 
HETATM    9  O   UNL     1      38.703  -9.515   7.192  1.00  0.00    -0.265 OA
HETATM   10  C   UNL     1      40.966 -10.187   6.650  1.00  0.00     0.155 C 
HETATM   11  N   UNL     1      41.668 -11.128   6.066  1.00  0.00    -0.162 NA
HETATM   12  C   UNL     1      39.543 -11.768   3.224  1.00  0.00     0.036 C 
HETATM   13  C   UNL     1      40.637 -12.483   2.471  1.00  0.00     0.044 C 
HETATM   14  N   UNL     1      41.655 -12.993   3.069  1.00  0.00    -0.361 N 
HETATM   15  H   UNL     1      42.390 -13.437   2.522  1.00  0.00     0.162 HD
HETATM   16  C   UNL     1      38.353 -11.386   2.488  1.00  0.00     0.017 C 
HETATM   17  C   UNL     1      38.273 -11.580   1.164  1.00  0.00     0.001 C 
HETATM   18  C   UNL     1      39.368 -12.145   0.413  1.00  0.00     0.002 C 
HETATM   19  C   UNL     1      40.496 -12.578   0.993  1.00  0.00     0.030 C 
HETATM   20  C   UNL     1      41.024 -14.372   4.950  1.00  0.00     0.056 C 
HETATM   21  C   UNL     1      41.317 -14.807   6.375  1.00  0.00     0.009 C 
HETATM   22  H   UNL     1      38.071 -10.431   4.983  1.00  0.00     0.170 HD
ENDROOT
BRANCH   1  23
HETATM   23  C   UNL     1      43.450 -16.373   6.075  1.00  0.00    -0.048 C 
HETATM   24  C   UNL     1      44.969 -16.353   6.380  1.00  0.00     0.015 C 
HETATM   25  C   UNL     1      43.306 -16.572   4.556  1.00  0.00     0.015 C 
HETATM   26  C   UNL     1      42.874 -17.627   6.766  1.00  0.00     0.015 C 
ENDBRANCH   1  23
BRANCH  10  27
HETATM   27  C   UNL     1      41.659  -9.137   7.456  1.00  0.00     0.000 A 
HETATM   28  C   UNL     1      41.697  -7.819   6.991  1.00  0.00     0.017 A 
HETATM   29  C   UNL     1      42.219  -6.803   7.800  1.00  0.00     0.037 A 
HETATM   30  C   UNL     1      42.695  -7.082   9.085  1.00  0.00     0.068 A 
HETATM   31  C   UNL     1      42.674  -8.396   9.544  1.00  0.00     0.037 A 
HETATM   32  C   UNL     1      42.154  -9.417   8.738  1.00  0.00     0.017 A 
BRANCH  30  33
HETATM   33  O   UNL     1      43.142  -5.998   9.784  1.00  0.00    -0.356 OA
HETATM   34  C   UNL     1      42.266  -5.459  10.769  1.00  0.00     0.210 C 
ENDBRANCH  30  33
ENDBRANCH  10  27
TORSDOF 3
ENDMDL
