MODEL 1
REMARK VINA RESULT:      -9.7      0.000      0.000
REMARK  6 active torsions:
REMARK  status: ('A' for Active; 'I' for Inactive)
REMARK    1  A    between atoms: C_2  and  C_3 
REMARK    2  A    between atoms: N_6  and  C_8 
REMARK    3  A    between atoms: C_8  and  C_9 
REMARK    4  A    between atoms: C_12  and  C_13 
REMARK    5  A    between atoms: C_13  and  O_14 
REMARK    6  A    between atoms: N_24  and  C_25 
ROOT
HETATM    1  C   UNL     1      43.191 -12.711   6.463  1.00  0.00     0.049 C 
HETATM    2  C   UNL     1      43.044 -11.209   6.214  1.00  0.00     0.116 A 
HETATM    3  N   UNL     1      41.880 -10.696   6.892  1.00  0.00    -0.324 N 
HETATM    4  C   UNL     1      42.215  -9.852   7.932  1.00  0.00     0.326 A 
HETATM    5  O   UNL     1      41.366  -9.395   8.675  1.00  0.00    -0.247 OA
HETATM    6  N   UNL     1      43.558  -9.648   7.924  1.00  0.00    -0.263 N 
HETATM    7  C   UNL     1      44.147 -10.470   7.000  1.00  0.00     0.256 A 
HETATM    8  O   UNL     1      45.344 -10.589   6.785  1.00  0.00    -0.270 OA
HETATM    9  H   UNL     1      41.008 -11.202   7.014  1.00  0.00     0.165 HD
ENDROOT
BRANCH   2  10
HETATM   10  C   UNL     1      43.098 -10.825   4.700  1.00  0.00     0.026 C 
HETATM   11  C   UNL     1      41.729 -10.563   4.039  1.00  0.00     0.035 C 
HETATM   12  C   UNL     1      40.932 -11.820   3.728  1.00  0.00     0.235 C 
HETATM   13  N   UNL     1      41.746 -12.767   2.881  1.00  0.00    -0.067 N 
HETATM   14  H   UNL     1      41.883 -12.306   1.972  1.00  0.00     0.280 HD
HETATM   15  C   UNL     1      43.105 -13.080   3.455  1.00  0.00     0.235 C 
HETATM   16  C   UNL     1      43.871 -11.810   3.803  1.00  0.00     0.035 C 
BRANCH  13  17
HETATM   17  C   UNL     1      41.001 -14.065   2.585  1.00  0.00     0.273 C 
BRANCH  17  18
HETATM   18  C   UNL     1      41.822 -15.311   2.782  1.00  0.00    -0.033 A 
HETATM   19  C   UNL     1      42.563 -15.859   1.726  1.00  0.00     0.010 A 
HETATM   20  C   UNL     1      43.271 -17.053   1.909  1.00  0.00     0.018 A 
HETATM   21  C   UNL     1      43.245 -17.717   3.143  1.00  0.00     0.039 A 
HETATM   22  C   UNL     1      42.518 -17.162   4.202  1.00  0.00     0.018 A 
HETATM   23  C   UNL     1      41.815 -15.969   4.024  1.00  0.00     0.010 A 
BRANCH  21  24
HETATM   24  C   UNL     1      43.992 -18.999   3.270  1.00  0.00     0.292 C 
HETATM   25  O   UNL     1      44.067 -19.818   2.370  1.00  0.00    -0.259 OA
BRANCH  24  26
HETATM   26  O   UNL     1      44.526 -19.116   4.510  1.00  0.00    -0.323 OA
HETATM   27  C   UNL     1      44.292 -20.385   5.126  1.00  0.00     0.213 C 
ENDBRANCH  24  26
ENDBRANCH  21  24
ENDBRANCH  17  18
ENDBRANCH  13  17
ENDBRANCH   2  10
BRANCH   6  28
HETATM   28  C   UNL     1      44.318  -8.826   8.875  1.00  0.00     0.106 C 
HETATM   29  C   UNL     1      43.738  -7.401   9.045  1.00  0.00     0.065 C 
HETATM   30  C   UNL     1      43.215  -7.403  10.444  1.00  0.00    -0.050 A 
HETATM   31  C   UNL     1      43.587  -8.559  11.131  1.00  0.00    -0.050 A 
HETATM   32  C   UNL     1      42.488  -6.403  11.071  1.00  0.00     0.007 A 
HETATM   33  C   UNL     1      44.407  -9.473  10.278  1.00  0.00     0.065 C 
HETATM   34  C   UNL     1      43.238  -8.741  12.460  1.00  0.00     0.007 A 
HETATM   35  C   UNL     1      42.500  -7.743  13.098  1.00  0.00     0.001 A 
HETATM   36  C   UNL     1      42.127  -6.580  12.407  1.00  0.00     0.001 A 
ENDBRANCH   6  28
TORSDOF 6
ENDMDL
MODEL 2
REMARK VINA RESULT:      -9.4      2.257      9.434
REMARK  6 active torsions:
REMARK  status: ('A' for Active; 'I' for Inactive)
REMARK    1  A    between atoms: C_2  and  C_3 
REMARK    2  A    between atoms: N_6  and  C_8 
REMARK    3  A    between atoms: C_8  and  C_9 
REMARK    4  A    between atoms: C_12  and  C_13 
REMARK    5  A    between atoms: C_13  and  O_14 
REMARK    6  A    between atoms: N_24  and  C_25 
ROOT
HETATM    1  C   UNL     1      39.875 -15.721   6.649  1.00  0.00     0.049 C 
HETATM    2  C   UNL     1      40.728 -14.802   5.772  1.00  0.00     0.116 A 
HETATM    3  N   UNL     1      41.781 -14.197   6.550  1.00  0.00    -0.324 N 
HETATM    4  C   UNL     1      43.029 -14.660   6.183  1.00  0.00     0.326 A 
HETATM    5  O   UNL     1      44.030 -14.329   6.790  1.00  0.00    -0.247 OA
HETATM    6  N   UNL     1      42.903 -15.461   5.093  1.00  0.00    -0.263 N 
HETATM    7  C   UNL     1      41.577 -15.675   4.825  1.00  0.00     0.256 A 
HETATM    8  O   UNL     1      41.114 -16.400   3.957  1.00  0.00    -0.270 OA
HETATM    9  H   UNL     1      41.697 -13.912   7.520  1.00  0.00     0.165 HD
ENDROOT
BRANCH   2  10
HETATM   10  C   UNL     1      39.886 -13.767   4.959  1.00  0.00     0.026 C 
HETATM   11  C   UNL     1      40.591 -13.172   3.723  1.00  0.00     0.035 C 
HETATM   12  C   UNL     1      41.639 -12.118   4.044  1.00  0.00     0.235 C 
HETATM   13  N   UNL     1      41.041 -11.016   4.884  1.00  0.00    -0.067 N 
HETATM   14  H   UNL     1      40.352 -10.535   4.291  1.00  0.00     0.280 HD
HETATM   15  C   UNL     1      40.329 -11.510   6.119  1.00  0.00     0.235 C 
HETATM   16  C   UNL     1      39.316 -12.597   5.782  1.00  0.00     0.035 C 
BRANCH  13  17
HETATM   17  C   UNL     1      42.071  -9.960   5.271  1.00  0.00     0.273 C 
BRANCH  17  18
HETATM   18  C   UNL     1      42.546 -10.050   6.697  1.00  0.00    -0.033 A 
HETATM   19  C   UNL     1      41.963  -9.265   7.701  1.00  0.00     0.010 A 
HETATM   20  C   UNL     1      42.458  -9.314   9.009  1.00  0.00     0.018 A 
HETATM   21  C   UNL     1      43.542 -10.142   9.332  1.00  0.00     0.039 A 
HETATM   22  C   UNL     1      44.114 -10.938   8.334  1.00  0.00     0.018 A 
HETATM   23  C   UNL     1      43.619 -10.894   7.029  1.00  0.00     0.010 A 
BRANCH  21  24
HETATM   24  C   UNL     1      44.045 -10.130  10.733  1.00  0.00     0.292 C 
HETATM   25  O   UNL     1      44.271 -11.147  11.368  1.00  0.00    -0.259 OA
BRANCH  24  26
HETATM   26  O   UNL     1      44.176  -8.858  11.181  1.00  0.00    -0.323 OA
HETATM   27  C   UNL     1      43.417  -8.575  12.359  1.00  0.00     0.213 C 
ENDBRANCH  24  26
ENDBRANCH  21  24
ENDBRANCH  17  18
ENDBRANCH  13  17
ENDBRANCH   2  10
BRANCH   6  28
HETATM   28  C   UNL     1      43.991 -16.166   4.403  1.00  0.00     0.106 C 
HETATM   29  C   UNL     1      44.491 -17.413   5.172  1.00  0.00     0.065 C 
HETATM   30  C   UNL     1      44.061 -18.551   4.306  1.00  0.00    -0.050 A 
HETATM   31  C   UNL     1      43.560 -18.107   3.082  1.00  0.00    -0.050 A 
HETATM   32  C   UNL     1      44.158 -19.906   4.587  1.00  0.00     0.007 A 
HETATM   33  C   UNL     1      43.595 -16.615   2.975  1.00  0.00     0.065 C 
HETATM   34  C   UNL     1      43.143 -19.005   2.113  1.00  0.00     0.007 A 
HETATM   35  C   UNL     1      43.231 -20.371   2.389  1.00  0.00     0.001 A 
HETATM   36  C   UNL     1      43.735 -20.819   3.620  1.00  0.00     0.001 A 
ENDBRANCH   6  28
TORSDOF 6
ENDMDL
MODEL 3
REMARK VINA RESULT:      -9.1      2.008      3.047
REMARK  6 active torsions:
REMARK  status: ('A' for Active; 'I' for Inactive)
REMARK    1  A    between atoms: C_2  and  C_3 
REMARK    2  A    between atoms: N_6  and  C_8 
REMARK    3  A    between atoms: C_8  and  C_9 
REMARK    4  A    between atoms: C_12  and  C_13 
REMARK    5  A    between atoms: C_13  and  O_14 
REMARK    6  A    between atoms: N_24  and  C_25 
ROOT
HETATM    1  C   UNL     1      45.429 -10.302   9.435  1.00  0.00     0.049 C 
HETATM    2  C   UNL     1      44.234  -9.895   8.573  1.00  0.00     0.116 A 
HETATM    3  N   UNL     1      43.006 -10.387   9.147  1.00  0.00    -0.324 N 
HETATM    4  C   UNL     1      42.208  -9.366   9.624  1.00  0.00     0.326 A 
HETATM    5  O   UNL     1      41.175  -9.597  10.223  1.00  0.00    -0.247 OA
HETATM    6  N   UNL     1      42.765  -8.174   9.286  1.00  0.00    -0.263 N 
HETATM    7  C   UNL     1      44.003  -8.378   8.737  1.00  0.00     0.256 A 
HETATM    8  O   UNL     1      44.799  -7.519   8.388  1.00  0.00    -0.270 OA
HETATM    9  H   UNL     1      42.906 -11.272   9.635  1.00  0.00     0.165 HD
ENDROOT
BRANCH   2  10
HETATM   10  C   UNL     1      44.403 -10.265   7.064  1.00  0.00     0.026 C 
HETATM   11  C   UNL     1      43.103 -10.263   6.237  1.00  0.00     0.035 C 
HETATM   12  C   UNL     1      42.209 -11.472   6.467  1.00  0.00     0.235 C 
HETATM   13  N   UNL     1      42.976 -12.749   6.230  1.00  0.00    -0.067 N 
HETATM   14  H   UNL     1      43.204 -12.773   5.227  1.00  0.00     0.280 HD
HETATM   15  C   UNL     1      44.268 -12.836   7.004  1.00  0.00     0.235 C 
HETATM   16  C   UNL     1      45.128 -11.596   6.796  1.00  0.00     0.035 C 
BRANCH  13  17
HETATM   17  C   UNL     1      42.131 -13.990   6.498  1.00  0.00     0.273 C 
BRANCH  17  18
HETATM   18  C   UNL     1      42.700 -15.263   5.931  1.00  0.00    -0.033 A 
HETATM   19  C   UNL     1      42.962 -15.387   4.560  1.00  0.00     0.010 A 
HETATM   20  C   UNL     1      43.432 -16.598   4.040  1.00  0.00     0.018 A 
HETATM   21  C   UNL     1      43.640 -17.702   4.878  1.00  0.00     0.039 A 
HETATM   22  C   UNL     1      43.393 -17.575   6.249  1.00  0.00     0.018 A 
HETATM   23  C   UNL     1      42.929 -16.366   6.772  1.00  0.00     0.010 A 
BRANCH  21  24
HETATM   24  C   UNL     1      44.111 -18.975   4.265  1.00  0.00     0.292 C 
HETATM   25  O   UNL     1      44.461 -19.941   4.921  1.00  0.00    -0.259 OA
BRANCH  24  26
HETATM   26  O   UNL     1      44.119 -18.876   2.913  1.00  0.00    -0.323 OA
HETATM   27  C   UNL     1      43.480 -19.969   2.247  1.00  0.00     0.213 C 
ENDBRANCH  24  26
ENDBRANCH  21  24
ENDBRANCH  17  18
ENDBRANCH  13  17
ENDBRANCH   2  10
BRANCH   6  28
HETATM   28  C   UNL     1      42.238  -6.844   9.619  1.00  0.00     0.106 C 
HETATM   29  C   UNL     1      40.764  -6.649   9.189  1.00  0.00     0.065 C 
HETATM   30  C   UNL     1      40.031  -6.564  10.487  1.00  0.00    -0.050 A 
HETATM   31  C   UNL     1      40.908  -6.498  11.570  1.00  0.00    -0.050 A 
HETATM   32  C   UNL     1      38.659  -6.504  10.676  1.00  0.00     0.007 A 
HETATM   33  C   UNL     1      42.338  -6.528  11.131  1.00  0.00     0.065 C 
HETATM   34  C   UNL     1      40.433  -6.372  12.866  1.00  0.00     0.007 A 
HETATM   35  C   UNL     1      39.053  -6.317  13.067  1.00  0.00     0.001 A 
HETATM   36  C   UNL     1      38.171  -6.383  11.978  1.00  0.00     0.001 A 
ENDBRANCH   6  28
TORSDOF 6
ENDMDL
MODEL 4
REMARK VINA RESULT:      -9.0      2.616     10.627
REMARK  6 active torsions:
REMARK  status: ('A' for Active; 'I' for Inactive)
REMARK    1  A    between atoms: C_2  and  C_3 
REMARK    2  A    between atoms: N_6  and  C_8 
REMARK    3  A    between atoms: C_8  and  C_9 
REMARK    4  A    between atoms: C_12  and  C_13 
REMARK    5  A    between atoms: C_13  and  O_14 
REMARK    6  A    between atoms: N_24  and  C_25 
ROOT
HETATM    1  C   UNL     1      39.809 -10.320   7.017  1.00  0.00     0.049 C 
HETATM    2  C   UNL     1      41.172 -10.636   6.399  1.00  0.00     0.116 A 
HETATM    3  N   UNL     1      41.573 -11.983   6.723  1.00  0.00    -0.324 N 
HETATM    4  C   UNL     1      41.584 -12.803   5.613  1.00  0.00     0.326 A 
HETATM    5  O   UNL     1      41.810 -13.995   5.709  1.00  0.00    -0.247 OA
HETATM    6  N   UNL     1      41.337 -12.055   4.506  1.00  0.00    -0.263 N 
HETATM    7  C   UNL     1      40.999 -10.780   4.873  1.00  0.00     0.256 A 
HETATM    8  O   UNL     1      40.652  -9.873   4.131  1.00  0.00    -0.270 OA
HETATM    9  H   UNL     1      41.377 -12.452   7.602  1.00  0.00     0.165 HD
ENDROOT
BRANCH   2  10
HETATM   10  C   UNL     1      42.264  -9.568   6.730  1.00  0.00     0.026 C 
HETATM   11  C   UNL     1      43.677 -10.130   6.982  1.00  0.00     0.035 C 
HETATM   12  C   UNL     1      43.859 -10.786   8.342  1.00  0.00     0.235 C 
HETATM   13  N   UNL     1      43.472  -9.833   9.446  1.00  0.00    -0.067 N 
HETATM   14  H   UNL     1      44.157  -9.066   9.426  1.00  0.00     0.280 HD
HETATM   15  C   UNL     1      42.098  -9.235   9.279  1.00  0.00     0.235 C 
HETATM   16  C   UNL     1      41.920  -8.622   7.896  1.00  0.00     0.035 C 
BRANCH  13  17
HETATM   17  C   UNL     1      43.593 -10.468  10.827  1.00  0.00     0.273 C 
BRANCH  17  18
HETATM   18  C   UNL     1      43.081  -9.609  11.952  1.00  0.00    -0.033 A 
HETATM   19  C   UNL     1      43.635  -8.347  12.205  1.00  0.00     0.010 A 
HETATM   20  C   UNL     1      43.190  -7.588  13.293  1.00  0.00     0.018 A 
HETATM   21  C   UNL     1      42.192  -8.078  14.146  1.00  0.00     0.039 A 
HETATM   22  C   UNL     1      41.627  -9.332  13.886  1.00  0.00     0.018 A 
HETATM   23  C   UNL     1      42.066 -10.089  12.798  1.00  0.00     0.010 A 
BRANCH  21  24
HETATM   24  C   UNL     1      41.780  -7.240  15.305  1.00  0.00     0.292 C 
HETATM   25  O   UNL     1      42.561  -6.851  16.157  1.00  0.00    -0.259 OA
BRANCH  24  26
HETATM   26  O   UNL     1      40.443  -7.016  15.279  1.00  0.00    -0.323 OA
HETATM   27  C   UNL     1      40.074  -5.770  14.684  1.00  0.00     0.213 C 
ENDBRANCH  24  26
ENDBRANCH  21  24
ENDBRANCH  17  18
ENDBRANCH  13  17
ENDBRANCH   2  10
BRANCH   6  28
HETATM   28  C   UNL     1      41.247 -12.550   3.126  1.00  0.00     0.106 C 
HETATM   29  C   UNL     1      42.619 -12.954   2.534  1.00  0.00     0.065 C 
HETATM   30  C   UNL     1      42.516 -14.437   2.397  1.00  0.00    -0.050 A 
HETATM   31  C   UNL     1      41.222 -14.890   2.654  1.00  0.00    -0.050 A 
HETATM   32  C   UNL     1      43.518 -15.318   2.020  1.00  0.00     0.007 A 
HETATM   33  C   UNL     1      40.296 -13.765   2.993  1.00  0.00     0.065 C 
HETATM   34  C   UNL     1      40.900 -16.233   2.542  1.00  0.00     0.007 A 
HETATM   35  C   UNL     1      41.904 -17.129   2.169  1.00  0.00     0.001 A 
HETATM   36  C   UNL     1      43.206 -16.674   1.910  1.00  0.00     0.001 A 
ENDBRANCH   6  28
TORSDOF 6
ENDMDL
MODEL 5
REMARK VINA RESULT:      -9.0      1.791      2.864
REMARK  6 active torsions:
REMARK  status: ('A' for Active; 'I' for Inactive)
REMARK    1  A    between atoms: C_2  and  C_3 
REMARK    2  A    between atoms: N_6  and  C_8 
REMARK    3  A    between atoms: C_8  and  C_9 
REMARK    4  A    between atoms: C_12  and  C_13 
REMARK    5  A    between atoms: C_13  and  O_14 
REMARK    6  A    between atoms: N_24  and  C_25 
ROOT
HETATM    1  C   UNL     1      40.818  -8.641   4.934  1.00  0.00     0.049 C 
HETATM    2  C   UNL     1      40.555  -9.713   5.993  1.00  0.00     0.116 A 
HETATM    3  N   UNL     1      41.769 -10.029   6.704  1.00  0.00    -0.324 N 
HETATM    4  C   UNL     1      41.723  -9.614   8.020  1.00  0.00     0.326 A 
HETATM    5  O   UNL     1      42.692  -9.715   8.749  1.00  0.00    -0.247 OA
HETATM    6  N   UNL     1      40.479  -9.142   8.294  1.00  0.00    -0.263 N 
HETATM    7  C   UNL     1      39.742  -9.081   7.141  1.00  0.00     0.256 A 
HETATM    8  O   UNL     1      38.608  -8.642   7.021  1.00  0.00    -0.270 OA
HETATM    9  H   UNL     1      42.696 -10.047   6.291  1.00  0.00     0.165 HD
ENDROOT
BRANCH   2  10
HETATM   10  C   UNL     1      39.822 -10.973   5.428  1.00  0.00     0.026 C 
HETATM   11  C   UNL     1      40.330 -12.325   5.969  1.00  0.00     0.035 C 
HETATM   12  C   UNL     1      41.651 -12.784   5.372  1.00  0.00     0.235 C 
HETATM   13  N   UNL     1      41.566 -12.823   3.866  1.00  0.00    -0.067 N 
HETATM   14  H   UNL     1      40.894 -13.565   3.628  1.00  0.00     0.280 HD
HETATM   15  C   UNL     1      41.077 -11.536   3.251  1.00  0.00     0.235 C 
HETATM   16  C   UNL     1      39.777 -11.069   3.892  1.00  0.00     0.035 C 
BRANCH  13  17
HETATM   17  C   UNL     1      42.887 -13.232   3.223  1.00  0.00     0.273 C 
BRANCH  17  18
HETATM   18  C   UNL     1      43.094 -14.720   3.123  1.00  0.00    -0.033 A 
HETATM   19  C   UNL     1      43.181 -15.354   1.876  1.00  0.00     0.010 A 
HETATM   20  C   UNL     1      43.309 -16.745   1.801  1.00  0.00     0.018 A 
HETATM   21  C   UNL     1      43.348 -17.523   2.967  1.00  0.00     0.039 A 
HETATM   22  C   UNL     1      43.277 -16.890   4.212  1.00  0.00     0.018 A 
HETATM   23  C   UNL     1      43.154 -15.501   4.290  1.00  0.00     0.010 A 
BRANCH  21  24
HETATM   24  C   UNL     1      43.456 -19.001   2.825  1.00  0.00     0.292 C 
HETATM   25  O   UNL     1      43.097 -19.602   1.827  1.00  0.00    -0.259 OA
BRANCH  24  26
HETATM   26  O   UNL     1      43.966 -19.551   3.954  1.00  0.00    -0.323 OA
HETATM   27  C   UNL     1      43.979 -20.980   3.950  1.00  0.00     0.213 C 
ENDBRANCH  24  26
ENDBRANCH  21  24
ENDBRANCH  17  18
ENDBRANCH  13  17
ENDBRANCH   2  10
BRANCH   6  28
HETATM   28  C   UNL     1      40.022  -8.590   9.576  1.00  0.00     0.106 C 
HETATM   29  C   UNL     1      39.969  -9.645  10.707  1.00  0.00     0.065 C 
HETATM   30  C   UNL     1      41.056  -9.214  11.636  1.00  0.00    -0.050 A 
HETATM   31  C   UNL     1      41.578  -7.971  11.276  1.00  0.00    -0.050 A 
HETATM   32  C   UNL     1      41.514  -9.881  12.762  1.00  0.00     0.007 A 
HETATM   33  C   UNL     1      40.903  -7.415  10.063  1.00  0.00     0.065 C 
HETATM   34  C   UNL     1      42.570  -7.368  12.033  1.00  0.00     0.007 A 
HETATM   35  C   UNL     1      43.043  -8.035  13.164  1.00  0.00     0.001 A 
HETATM   36  C   UNL     1      42.518  -9.285  13.527  1.00  0.00     0.001 A 
ENDBRANCH   6  28
TORSDOF 6
ENDMDL
MODEL 6
REMARK VINA RESULT:      -8.9      4.460      8.311
REMARK  6 active torsions:
REMARK  status: ('A' for Active; 'I' for Inactive)
REMARK    1  A    between atoms: C_2  and  C_3 
REMARK    2  A    between atoms: N_6  and  C_8 
REMARK    3  A    between atoms: C_8  and  C_9 
REMARK    4  A    between atoms: C_12  and  C_13 
REMARK    5  A    between atoms: C_13  and  O_14 
REMARK    6  A    between atoms: N_24  and  C_25 
ROOT
HETATM    1  C   UNL     1      43.335 -11.482   4.936  1.00  0.00     0.049 C 
HETATM    2  C   UNL     1      41.927 -11.839   4.455  1.00  0.00     0.116 A 
HETATM    3  N   UNL     1      41.934 -12.125   3.042  1.00  0.00    -0.324 N 
HETATM    4  C   UNL     1      41.679 -13.457   2.780  1.00  0.00     0.326 A 
HETATM    5  O   UNL     1      41.734 -13.901   1.648  1.00  0.00    -0.247 OA
HETATM    6  N   UNL     1      41.363 -14.085   3.942  1.00  0.00    -0.263 N 
HETATM    7  C   UNL     1      41.562 -13.237   4.998  1.00  0.00     0.256 A 
HETATM    8  O   UNL     1      41.438 -13.504   6.184  1.00  0.00    -0.270 OA
HETATM    9  H   UNL     1      42.519 -11.657   2.357  1.00  0.00     0.165 HD
ENDROOT
BRANCH   2  10
HETATM   10  C   UNL     1      40.847 -10.789   4.870  1.00  0.00     0.026 C 
HETATM   11  C   UNL     1      39.403 -11.131   4.449  1.00  0.00     0.035 C 
HETATM   12  C   UNL     1      39.108 -10.903   2.975  1.00  0.00     0.235 C 
HETATM   13  N   UNL     1      39.444  -9.486   2.581  1.00  0.00    -0.067 N 
HETATM   14  H   UNL     1      38.785  -8.877   3.082  1.00  0.00     0.280 HD
HETATM   15  C   UNL     1      40.844  -9.067   2.955  1.00  0.00     0.235 C 
HETATM   16  C   UNL     1      41.135  -9.344   4.424  1.00  0.00     0.035 C 
BRANCH  13  17
HETATM   17  C   UNL     1      39.209  -9.228   1.096  1.00  0.00     0.273 C 
BRANCH  17  18
HETATM   18  C   UNL     1      39.420 -10.431   0.216  1.00  0.00    -0.033 A 
HETATM   19  C   UNL     1      40.708 -10.821  -0.175  1.00  0.00     0.010 A 
HETATM   20  C   UNL     1      40.883 -11.903  -1.045  1.00  0.00     0.018 A 
HETATM   21  C   UNL     1      39.777 -12.608  -1.538  1.00  0.00     0.039 A 
HETATM   22  C   UNL     1      38.491 -12.230  -1.137  1.00  0.00     0.018 A 
HETATM   23  C   UNL     1      38.314 -11.153  -0.266  1.00  0.00     0.010 A 
BRANCH  21  24
HETATM   24  C   UNL     1      40.021 -13.732  -2.484  1.00  0.00     0.292 C 
HETATM   25  O   UNL     1      40.928 -13.730  -3.300  1.00  0.00    -0.259 OA
BRANCH  24  26
HETATM   26  O   UNL     1      39.091 -14.703  -2.319  1.00  0.00    -0.323 OA
HETATM   27  C   UNL     1      38.239 -14.891  -3.451  1.00  0.00     0.213 C 
ENDBRANCH  24  26
ENDBRANCH  21  24
ENDBRANCH  17  18
ENDBRANCH  13  17
ENDBRANCH   2  10
BRANCH   6  28
HETATM   28  C   UNL     1      41.042 -15.510   4.099  1.00  0.00     0.106 C 
HETATM   29  C   UNL     1      41.270 -16.330   2.806  1.00  0.00     0.065 C 
HETATM   30  C   UNL     1      42.428 -17.207   3.150  1.00  0.00    -0.050 A 
HETATM   31  C   UNL     1      42.755 -17.122   4.504  1.00  0.00    -0.050 A 
HETATM   32  C   UNL     1      43.116 -18.064   2.304  1.00  0.00     0.007 A 
HETATM   33  C   UNL     1      41.853 -16.179   5.235  1.00  0.00     0.065 C 
HETATM   34  C   UNL     1      43.776 -17.889   5.041  1.00  0.00     0.007 A 
HETATM   35  C   UNL     1      44.479 -18.750   4.195  1.00  0.00     0.001 A 
HETATM   36  C   UNL     1      44.150 -18.836   2.834  1.00  0.00     0.001 A 
ENDBRANCH   6  28
TORSDOF 6
ENDMDL
MODEL 7
REMARK VINA RESULT:      -8.9      2.337      3.710
REMARK  6 active torsions:
REMARK  status: ('A' for Active; 'I' for Inactive)
REMARK    1  A    between atoms: C_2  and  C_3 
REMARK    2  A    between atoms: N_6  and  C_8 
REMARK    3  A    between atoms: C_8  and  C_9 
REMARK    4  A    between atoms: C_12  and  C_13 
REMARK    5  A    between atoms: C_13  and  O_14 
REMARK    6  A    between atoms: N_24  and  C_25 
ROOT
HETATM    1  C   UNL     1      41.369  -8.587   4.139  1.00  0.00     0.049 C 
HETATM    2  C   UNL     1      41.283 -10.105   4.302  1.00  0.00     0.116 A 
HETATM    3  N   UNL     1      42.031 -10.768   3.262  1.00  0.00    -0.324 N 
HETATM    4  C   UNL     1      43.149 -11.411   3.756  1.00  0.00     0.326 A 
HETATM    5  O   UNL     1      43.949 -11.948   3.013  1.00  0.00    -0.247 OA
HETATM    6  N   UNL     1      43.140 -11.338   5.112  1.00  0.00    -0.263 N 
HETATM    7  C   UNL     1      42.126 -10.517   5.527  1.00  0.00     0.256 A 
HETATM    8  O   UNL     1      41.880 -10.182   6.676  1.00  0.00    -0.270 OA
HETATM    9  H   UNL     1      42.111 -10.440   2.306  1.00  0.00     0.165 HD
ENDROOT
BRANCH   2  10
HETATM   10  C   UNL     1      39.817 -10.630   4.442  1.00  0.00     0.026 C 
HETATM   11  C   UNL     1      39.660 -11.930   5.257  1.00  0.00     0.035 C 
HETATM   12  C   UNL     1      40.077 -13.191   4.516  1.00  0.00     0.235 C 
HETATM   13  N   UNL     1      39.336 -13.303   3.206  1.00  0.00    -0.067 N 
HETATM   14  H   UNL     1      38.345 -13.447   3.439  1.00  0.00     0.280 HD
HETATM   15  C   UNL     1      39.438 -12.072   2.341  1.00  0.00     0.235 C 
HETATM   16  C   UNL     1      39.060 -10.815   3.114  1.00  0.00     0.035 C 
BRANCH  13  17
HETATM   17  C   UNL     1      39.761 -14.531   2.406  1.00  0.00     0.273 C 
BRANCH  17  18
HETATM   18  C   UNL     1      40.887 -15.316   3.025  1.00  0.00    -0.033 A 
HETATM   19  C   UNL     1      40.651 -16.197   4.089  1.00  0.00     0.010 A 
HETATM   20  C   UNL     1      41.717 -16.871   4.694  1.00  0.00     0.018 A 
HETATM   21  C   UNL     1      43.031 -16.672   4.251  1.00  0.00     0.039 A 
HETATM   22  C   UNL     1      43.267 -15.804   3.180  1.00  0.00     0.018 A 
HETATM   23  C   UNL     1      42.204 -15.134   2.570  1.00  0.00     0.010 A 
BRANCH  21  24
HETATM   24  C   UNL     1      44.129 -17.392   4.953  1.00  0.00     0.292 C 
HETATM   25  O   UNL     1      44.430 -18.549   4.709  1.00  0.00    -0.259 OA
BRANCH  24  26
HETATM   26  O   UNL     1      44.696 -16.596   5.892  1.00  0.00    -0.323 OA
HETATM   27  C   UNL     1      44.161 -16.775   7.206  1.00  0.00     0.213 C 
ENDBRANCH  24  26
ENDBRANCH  21  24
ENDBRANCH  17  18
ENDBRANCH  13  17
ENDBRANCH   2  10
BRANCH   6  28
HETATM   28  C   UNL     1      44.162 -11.882   6.017  1.00  0.00     0.106 C 
HETATM   29  C   UNL     1      45.402 -10.966   6.153  1.00  0.00     0.065 C 
HETATM   30  C   UNL     1      45.324 -10.481   7.563  1.00  0.00    -0.050 A 
HETATM   31  C   UNL     1      44.324 -11.140   8.280  1.00  0.00    -0.050 A 
HETATM   32  C   UNL     1      46.134  -9.536   8.174  1.00  0.00     0.007 A 
HETATM   33  C   UNL     1      43.611 -12.151   7.439  1.00  0.00     0.065 C 
HETATM   34  C   UNL     1      44.112 -10.868   9.622  1.00  0.00     0.007 A 
HETATM   35  C   UNL     1      44.918  -9.913  10.244  1.00  0.00     0.001 A 
HETATM   36  C   UNL     1      45.923  -9.251   9.524  1.00  0.00     0.001 A 
ENDBRANCH   6  28
TORSDOF 6
ENDMDL
MODEL 8
REMARK VINA RESULT:      -8.8      2.098      9.756
REMARK  6 active torsions:
REMARK  status: ('A' for Active; 'I' for Inactive)
REMARK    1  A    between atoms: C_2  and  C_3 
REMARK    2  A    between atoms: N_6  and  C_8 
REMARK    3  A    between atoms: C_8  and  C_9 
REMARK    4  A    between atoms: C_12  and  C_13 
REMARK    5  A    between atoms: C_13  and  O_14 
REMARK    6  A    between atoms: N_24  and  C_25 
ROOT
HETATM    1  C   UNL     1      39.575 -14.601   1.538  1.00  0.00     0.049 C 
HETATM    2  C   UNL     1      40.455 -14.201   2.723  1.00  0.00     0.116 A 
HETATM    3  N   UNL     1      40.156 -15.019   3.873  1.00  0.00    -0.324 N 
HETATM    4  C   UNL     1      41.199 -15.864   4.194  1.00  0.00     0.326 A 
HETATM    5  O   UNL     1      41.093 -16.692   5.080  1.00  0.00    -0.247 OA
HETATM    6  N   UNL     1      42.264 -15.577   3.400  1.00  0.00    -0.263 N 
HETATM    7  C   UNL     1      41.899 -14.668   2.444  1.00  0.00     0.256 A 
HETATM    8  O   UNL     1      42.594 -14.246   1.532  1.00  0.00    -0.270 OA
HETATM    9  H   UNL     1      39.233 -15.364   4.116  1.00  0.00     0.165 HD
ENDROOT
BRANCH   2  10
HETATM   10  C   UNL     1      40.422 -12.668   3.028  1.00  0.00     0.026 C 
HETATM   11  C   UNL     1      41.730 -11.910   2.727  1.00  0.00     0.035 C 
HETATM   12  C   UNL     1      42.832 -12.125   3.753  1.00  0.00     0.235 C 
HETATM   13  N   UNL     1      42.339 -11.784   5.138  1.00  0.00    -0.067 N 
HETATM   14  H   UNL     1      42.161 -10.771   5.145  1.00  0.00     0.280 HD
HETATM   15  C   UNL     1      41.059 -12.485   5.517  1.00  0.00     0.235 C 
HETATM   16  C   UNL     1      39.983 -12.296   4.456  1.00  0.00     0.035 C 
BRANCH  13  17
HETATM   17  C   UNL     1      43.399 -12.033   6.206  1.00  0.00     0.273 C 
BRANCH  17  18
HETATM   18  C   UNL     1      43.371 -11.051   7.347  1.00  0.00    -0.033 A 
HETATM   19  C   UNL     1      42.494  -9.958   7.337  1.00  0.00     0.010 A 
HETATM   20  C   UNL     1      42.525  -9.020   8.375  1.00  0.00     0.018 A 
HETATM   21  C   UNL     1      43.433  -9.157   9.434  1.00  0.00     0.039 A 
HETATM   22  C   UNL     1      44.299 -10.256   9.454  1.00  0.00     0.018 A 
HETATM   23  C   UNL     1      44.267 -11.196   8.421  1.00  0.00     0.010 A 
BRANCH  21  24
HETATM   24  C   UNL     1      43.442  -8.113  10.495  1.00  0.00     0.292 C 
HETATM   25  O   UNL     1      43.144  -6.949  10.286  1.00  0.00    -0.259 OA
BRANCH  24  26
HETATM   26  O   UNL     1      43.849  -8.638  11.676  1.00  0.00    -0.323 OA
HETATM   27  C   UNL     1      42.781  -8.939  12.578  1.00  0.00     0.213 C 
ENDBRANCH  24  26
ENDBRANCH  21  24
ENDBRANCH  17  18
ENDBRANCH  13  17
ENDBRANCH   2  10
BRANCH   6  28
HETATM   28  C   UNL     1      43.565 -16.259   3.412  1.00  0.00     0.106 C 
HETATM   29  C   UNL     1      43.905 -16.896   4.782  1.00  0.00     0.065 C 
HETATM   30  C   UNL     1      43.855 -18.362   4.506  1.00  0.00    -0.050 A 
HETATM   31  C   UNL     1      43.719 -18.626   3.143  1.00  0.00    -0.050 A 
HETATM   32  C   UNL     1      43.971 -19.395   5.424  1.00  0.00     0.007 A 
HETATM   33  C   UNL     1      43.663 -17.367   2.336  1.00  0.00     0.065 C 
HETATM   34  C   UNL     1      43.694 -19.927   2.667  1.00  0.00     0.007 A 
HETATM   35  C   UNL     1      43.803 -20.974   3.584  1.00  0.00     0.001 A 
HETATM   36  C   UNL     1      43.940 -20.709   4.955  1.00  0.00     0.001 A 
ENDBRANCH   6  28
TORSDOF 6
ENDMDL
MODEL 9
REMARK VINA RESULT:      -8.8      2.741      4.180
REMARK  6 active torsions:
REMARK  status: ('A' for Active; 'I' for Inactive)
REMARK    1  A    between atoms: C_2  and  C_3 
REMARK    2  A    between atoms: N_6  and  C_8 
REMARK    3  A    between atoms: C_8  and  C_9 
REMARK    4  A    between atoms: C_12  and  C_13 
REMARK    5  A    between atoms: C_13  and  O_14 
REMARK    6  A    between atoms: N_24  and  C_25 
ROOT
HETATM    1  C   UNL     1      42.636 -10.957   5.059  1.00  0.00     0.049 C 
HETATM    2  C   UNL     1      43.232 -11.604   6.311  1.00  0.00     0.116 A 
HETATM    3  N   UNL     1      44.623 -11.923   6.101  1.00  0.00    -0.324 N 
HETATM    4  C   UNL     1      45.458 -11.141   6.874  1.00  0.00     0.326 A 
HETATM    5  O   UNL     1      46.668 -11.207   6.763  1.00  0.00    -0.247 OA
HETATM    6  N   UNL     1      44.705 -10.382   7.713  1.00  0.00    -0.263 N 
HETATM    7  C   UNL     1      43.379 -10.521   7.401  1.00  0.00     0.256 A 
HETATM    8  O   UNL     1      42.441  -9.929   7.913  1.00  0.00    -0.270 OA
HETATM    9  H   UNL     1      45.021 -12.236   5.221  1.00  0.00     0.165 HD
ENDROOT
BRANCH   2  10
HETATM   10  C   UNL     1      42.394 -12.810   6.843  1.00  0.00     0.026 C 
HETATM   11  C   UNL     1      43.199 -14.092   7.136  1.00  0.00     0.035 C 
HETATM   12  C   UNL     1      43.603 -14.876   5.897  1.00  0.00     0.235 C 
HETATM   13  N   UNL     1      42.392 -15.201   5.058  1.00  0.00    -0.067 N 
HETATM   14  H   UNL     1      41.817 -15.852   5.610  1.00  0.00     0.280 HD
HETATM   15  C   UNL     1      41.544 -13.999   4.723  1.00  0.00     0.235 C 
HETATM   16  C   UNL     1      41.187 -13.203   5.971  1.00  0.00     0.035 C 
BRANCH  13  17
HETATM   17  C   UNL     1      42.758 -15.946   3.778  1.00  0.00     0.273 C 
BRANCH  17  18
HETATM   18  C   UNL     1      41.959 -15.534   2.571  1.00  0.00    -0.033 A 
HETATM   19  C   UNL     1      42.379 -14.475   1.756  1.00  0.00     0.010 A 
HETATM   20  C   UNL     1      41.592 -14.064   0.674  1.00  0.00     0.018 A 
HETATM   21  C   UNL     1      40.375 -14.699   0.394  1.00  0.00     0.039 A 
HETATM   22  C   UNL     1      39.961 -15.767   1.198  1.00  0.00     0.018 A 
HETATM   23  C   UNL     1      40.747 -16.182   2.276  1.00  0.00     0.010 A 
BRANCH  21  24
HETATM   24  C   UNL     1      39.564 -14.199  -0.751  1.00  0.00     0.292 C 
HETATM   25  O   UNL     1      39.074 -14.935  -1.591  1.00  0.00    -0.259 OA
BRANCH  24  26
HETATM   26  O   UNL     1      39.490 -12.847  -0.726  1.00  0.00    -0.323 OA
HETATM   27  C   UNL     1      38.199 -12.329  -1.055  1.00  0.00     0.213 C 
ENDBRANCH  24  26
ENDBRANCH  21  24
ENDBRANCH  17  18
ENDBRANCH  13  17
ENDBRANCH   2  10
BRANCH   6  28
HETATM   28  C   UNL     1      45.208  -9.404   8.686  1.00  0.00     0.106 C 
HETATM   29  C   UNL     1      44.453  -8.053   8.635  1.00  0.00     0.065 C 
HETATM   30  C   UNL     1      43.719  -8.017   9.935  1.00  0.00    -0.050 A 
HETATM   31  C   UNL     1      44.105  -9.063  10.774  1.00  0.00    -0.050 A 
HETATM   32  C   UNL     1      42.795  -7.071  10.353  1.00  0.00     0.007 A 
HETATM   33  C   UNL     1      45.147  -9.928  10.141  1.00  0.00     0.065 C 
HETATM   34  C   UNL     1      43.574  -9.188  12.048  1.00  0.00     0.007 A 
HETATM   35  C   UNL     1      42.637  -8.245  12.475  1.00  0.00     0.001 A 
HETATM   36  C   UNL     1      42.250  -7.193  11.632  1.00  0.00     0.001 A 
ENDBRANCH   6  28
TORSDOF 6
ENDMDL
MODEL 10
REMARK VINA RESULT:      -8.7      2.477      9.157
REMARK  6 active torsions:
REMARK  status: ('A' for Active; 'I' for Inactive)
REMARK    1  A    between atoms: C_2  and  C_3 
REMARK    2  A    between atoms: N_6  and  C_8 
REMARK    3  A    between atoms: C_8  and  C_9 
REMARK    4  A    between atoms: C_12  and  C_13 
REMARK    5  A    between atoms: C_13  and  O_14 
REMARK    6  A    between atoms: N_24  and  C_25 
ROOT
HETATM    1  C   UNL     1      38.975 -12.203   0.840  1.00  0.00     0.049 C 
HETATM    2  C   UNL     1      39.389 -12.792   2.190  1.00  0.00     0.116 A 
HETATM    3  N   UNL     1      39.072 -14.198   2.247  1.00  0.00    -0.324 N 
HETATM    4  C   UNL     1      40.206 -14.985   2.267  1.00  0.00     0.326 A 
HETATM    5  O   UNL     1      40.133 -16.199   2.223  1.00  0.00    -0.247 OA
HETATM    6  N   UNL     1      41.300 -14.186   2.363  1.00  0.00    -0.263 N 
HETATM    7  C   UNL     1      40.929 -12.874   2.240  1.00  0.00     0.256 A 
HETATM    8  O   UNL     1      41.671 -11.903   2.213  1.00  0.00    -0.270 OA
HETATM    9  H   UNL     1      38.258 -14.627   1.819  1.00  0.00     0.165 HD
ENDROOT
BRANCH   2  10
HETATM   10  C   UNL     1      38.842 -11.984   3.411  1.00  0.00     0.026 C 
HETATM   11  C   UNL     1      38.968 -10.452   3.295  1.00  0.00     0.035 C 
HETATM   12  C   UNL     1      40.372  -9.918   3.528  1.00  0.00     0.235 C 
HETATM   13  N   UNL     1      40.901 -10.385   4.862  1.00  0.00    -0.067 N 
HETATM   14  H   UNL     1      40.322  -9.935   5.583  1.00  0.00     0.280 HD
HETATM   15  C   UNL     1      40.817 -11.878   5.061  1.00  0.00     0.235 C 
HETATM   16  C   UNL     1      39.413 -12.400   4.779  1.00  0.00     0.035 C 
BRANCH  13  17
HETATM   17  C   UNL     1      42.329  -9.912   5.116  1.00  0.00     0.273 C 
BRANCH  17  18
HETATM   18  C   UNL     1      42.788 -10.063   6.542  1.00  0.00    -0.033 A 
HETATM   19  C   UNL     1      42.146  -9.377   7.582  1.00  0.00     0.010 A 
HETATM   20  C   UNL     1      42.625  -9.478   8.893  1.00  0.00     0.018 A 
HETATM   21  C   UNL     1      43.752 -10.260   9.183  1.00  0.00     0.039 A 
HETATM   22  C   UNL     1      44.384 -10.957   8.149  1.00  0.00     0.018 A 
HETATM   23  C   UNL     1      43.906 -10.862   6.840  1.00  0.00     0.010 A 
BRANCH  21  24
HETATM   24  C   UNL     1      44.234 -10.307  10.591  1.00  0.00     0.292 C 
HETATM   25  O   UNL     1      45.212 -10.948  10.939  1.00  0.00    -0.259 OA
BRANCH  24  26
HETATM   26  O   UNL     1      43.425  -9.576  11.395  1.00  0.00    -0.323 OA
HETATM   27  C   UNL     1      42.831 -10.325  12.459  1.00  0.00     0.213 C 
ENDBRANCH  24  26
ENDBRANCH  21  24
ENDBRANCH  17  18
ENDBRANCH  13  17
ENDBRANCH   2  10
BRANCH   6  28
HETATM   28  C   UNL     1      42.700 -14.630   2.396  1.00  0.00     0.106 C 
HETATM   29  C   UNL     1      43.193 -14.979   3.821  1.00  0.00     0.065 C 
HETATM   30  C   UNL     1      43.390 -16.458   3.769  1.00  0.00    -0.050 A 
HETATM   31  C   UNL     1      43.255 -16.950   2.471  1.00  0.00    -0.050 A 
HETATM   32  C   UNL     1      43.717 -17.300   4.821  1.00  0.00     0.007 A 
HETATM   33  C   UNL     1      42.953 -15.861   1.491  1.00  0.00     0.065 C 
HETATM   34  C   UNL     1      43.441 -18.296   2.195  1.00  0.00     0.007 A 
HETATM   35  C   UNL     1      43.764 -19.153   3.249  1.00  0.00     0.001 A 
HETATM   36  C   UNL     1      43.900 -18.658   4.554  1.00  0.00     0.001 A 
ENDBRANCH   6  28
TORSDOF 6
ENDMDL
