MODEL 1
REMARK VINA RESULT:      -8.5      0.000      0.000
REMARK  6 active torsions:
REMARK  status: ('A' for Active; 'I' for Inactive)
REMARK    1  A    between atoms: C_2  and  C_3 
REMARK    2  A    between atoms: C_6  and  C_7 
REMARK    3  A    between atoms: C_11  and  C_12 
REMARK       I    between atoms: C_12  and  N_13 
REMARK    4  A    between atoms: N_13  and  N_14 
REMARK    5  A    between atoms: C_15  and  C_16 
REMARK    6  A    between atoms: C_19  and  O_20 
ROOT
HETATM    1  C   UNL     1      44.553 -11.674   7.455  1.00  0.00     0.289 C 
HETATM    2  N   UNL     1      43.665 -12.737   7.394  1.00  0.00    -0.241 N 
HETATM    3  O   UNL     1      45.414 -11.436   6.611  1.00  0.00    -0.264 OA
HETATM    4  H   UNL     1      42.995 -12.874   8.137  1.00  0.00     0.192 HD
ENDROOT
BRANCH   1   5
HETATM    5  C   UNL     1      44.413 -10.849   8.631  1.00  0.00     0.121 A 
HETATM    6  N   UNL     1      45.334  -9.888   8.943  1.00  0.00    -0.272 N 
HETATM    7  N   UNL     1      45.083  -9.235  10.087  1.00  0.00    -0.174 NA
HETATM    8  H   UNL     1      46.168  -9.651   8.410  1.00  0.00     0.189 HD
HETATM    9  C   UNL     1      43.928  -9.756  10.529  1.00  0.00     0.089 A 
HETATM   10  C   UNL     1      43.477 -10.774   9.643  1.00  0.00     0.071 A 
BRANCH   9  11
HETATM   11  C   UNL     1      43.295  -9.303  11.771  1.00  0.00    -0.006 A 
HETATM   12  C   UNL     1      42.308 -10.075  12.401  1.00  0.00     0.014 A 
HETATM   13  C   UNL     1      41.727  -9.651  13.600  1.00  0.00     0.008 A 
HETATM   14  C   UNL     1      42.118  -8.444  14.192  1.00  0.00    -0.059 A 
HETATM   15  C   UNL     1      43.098  -7.668  13.563  1.00  0.00     0.008 A 
HETATM   16  C   UNL     1      43.676  -8.091  12.363  1.00  0.00     0.014 A 
BRANCH  14  17
HETATM   17  C   UNL     1      41.512  -8.004  15.499  1.00  0.00     0.034 C 
HETATM   18  C   UNL     1      42.163  -6.733  16.025  1.00  0.00     0.010 C 
ENDBRANCH  14  17
ENDBRANCH   9  11
ENDBRANCH   1   5
BRANCH   2  19
HETATM   19  N   UNL     1      43.680 -13.590   6.333  1.00  0.00    -0.176 NA
HETATM   20  C   UNL     1      43.343 -14.835   6.509  1.00  0.00     0.061 C 
HETATM   21  C   UNL     1      42.982 -15.425   7.858  1.00  0.00     0.073 C 
BRANCH  20  22
HETATM   22  C   UNL     1      43.316 -15.734   5.308  1.00  0.00    -0.010 A 
HETATM   23  C   UNL     1      43.870 -17.019   5.412  1.00  0.00     0.016 A 
HETATM   24  C   UNL     1      43.868 -17.887   4.317  1.00  0.00     0.037 A 
HETATM   25  C   UNL     1      43.314 -17.464   3.114  1.00  0.00     0.065 A 
HETATM   26  C   UNL     1      42.771 -16.191   2.989  1.00  0.00     0.037 A 
HETATM   27  C   UNL     1      42.777 -15.321   4.082  1.00  0.00     0.016 A 
BRANCH  25  28
HETATM   28  O   UNL     1      43.286 -18.275   2.019  1.00  0.00    -0.361 OA
HETATM   29  H   UNL     1      43.530 -17.751   1.239  1.00  0.00     0.217 HD
ENDBRANCH  25  28
ENDBRANCH  20  22
ENDBRANCH   2  19
TORSDOF 6
ENDMDL
MODEL 2
REMARK VINA RESULT:      -8.5      2.663     10.675
REMARK  6 active torsions:
REMARK  status: ('A' for Active; 'I' for Inactive)
REMARK    1  A    between atoms: C_2  and  C_3 
REMARK    2  A    between atoms: C_6  and  C_7 
REMARK    3  A    between atoms: C_11  and  C_12 
REMARK       I    between atoms: C_12  and  N_13 
REMARK    4  A    between atoms: N_13  and  N_14 
REMARK    5  A    between atoms: C_15  and  C_16 
REMARK    6  A    between atoms: C_19  and  O_20 
ROOT
HETATM    1  C   UNL     1      43.965 -10.778   8.806  1.00  0.00     0.289 C 
HETATM    2  N   UNL     1      42.880 -10.120   9.365  1.00  0.00    -0.241 N 
HETATM    3  O   UNL     1      45.093 -10.796   9.292  1.00  0.00    -0.264 OA
HETATM    4  H   UNL     1      41.986 -10.138   8.896  1.00  0.00     0.192 HD
ENDROOT
BRANCH   1   5
HETATM    5  C   UNL     1      43.679 -11.441   7.557  1.00  0.00     0.121 A 
HETATM    6  N   UNL     1      43.226 -10.750   6.469  1.00  0.00    -0.272 N 
HETATM    7  N   UNL     1      42.970 -11.515   5.397  1.00  0.00    -0.174 NA
HETATM    8  H   UNL     1      43.057  -9.749   6.414  1.00  0.00     0.189 HD
HETATM    9  C   UNL     1      43.306 -12.757   5.779  1.00  0.00     0.089 A 
HETATM   10  C   UNL     1      43.754 -12.752   7.129  1.00  0.00     0.071 A 
BRANCH   9  11
HETATM   11  C   UNL     1      43.179 -13.908   4.880  1.00  0.00    -0.006 A 
HETATM   12  C   UNL     1      43.022 -13.730   3.498  1.00  0.00     0.014 A 
HETATM   13  C   UNL     1      42.929 -14.832   2.642  1.00  0.00     0.008 A 
HETATM   14  C   UNL     1      42.986 -16.135   3.152  1.00  0.00    -0.059 A 
HETATM   15  C   UNL     1      43.137 -16.316   4.531  1.00  0.00     0.008 A 
HETATM   16  C   UNL     1      43.227 -15.214   5.386  1.00  0.00     0.014 A 
BRANCH  14  17
HETATM   17  C   UNL     1      42.916 -17.321   2.224  1.00  0.00     0.034 C 
HETATM   18  C   UNL     1      43.702 -18.507   2.763  1.00  0.00     0.010 C 
ENDBRANCH  14  17
ENDBRANCH   9  11
ENDBRANCH   1   5
BRANCH   2  19
HETATM   19  N   UNL     1      43.006  -9.460  10.549  1.00  0.00    -0.176 NA
HETATM   20  C   UNL     1      41.961  -9.308  11.311  1.00  0.00     0.061 C 
HETATM   21  C   UNL     1      40.570  -9.777  10.933  1.00  0.00     0.073 C 
BRANCH  20  22
HETATM   22  C   UNL     1      42.148  -8.625  12.634  1.00  0.00    -0.010 A 
HETATM   23  C   UNL     1      43.223  -7.736  12.790  1.00  0.00     0.016 A 
HETATM   24  C   UNL     1      43.434  -7.081  14.006  1.00  0.00     0.037 A 
HETATM   25  C   UNL     1      42.571  -7.321  15.069  1.00  0.00     0.065 A 
HETATM   26  C   UNL     1      41.509  -8.208  14.936  1.00  0.00     0.037 A 
HETATM   27  C   UNL     1      41.299  -8.867  13.722  1.00  0.00     0.016 A 
BRANCH  25  28
HETATM   28  O   UNL     1      42.735  -6.705  16.273  1.00  0.00    -0.361 OA
HETATM   29  H   UNL     1      43.637  -6.878  16.590  1.00  0.00     0.217 HD
ENDBRANCH  25  28
ENDBRANCH  20  22
ENDBRANCH   2  19
TORSDOF 6
ENDMDL
MODEL 3
REMARK VINA RESULT:      -8.5      1.945      3.112
REMARK  6 active torsions:
REMARK  status: ('A' for Active; 'I' for Inactive)
REMARK    1  A    between atoms: C_2  and  C_3 
REMARK    2  A    between atoms: C_6  and  C_7 
REMARK    3  A    between atoms: C_11  and  C_12 
REMARK       I    between atoms: C_12  and  N_13 
REMARK    4  A    between atoms: N_13  and  N_14 
REMARK    5  A    between atoms: C_15  and  C_16 
REMARK    6  A    between atoms: C_19  and  O_20 
ROOT
HETATM    1  C   UNL     1      43.185 -12.897   4.982  1.00  0.00     0.289 C 
HETATM    2  N   UNL     1      43.013 -14.159   5.531  1.00  0.00    -0.241 N 
HETATM    3  O   UNL     1      43.418 -12.680   3.796  1.00  0.00    -0.264 OA
HETATM    4  H   UNL     1      42.840 -14.256   6.521  1.00  0.00     0.192 HD
ENDROOT
BRANCH   1   5
HETATM    5  C   UNL     1      43.097 -11.817   5.936  1.00  0.00     0.121 A 
HETATM    6  N   UNL     1      42.696 -10.565   5.560  1.00  0.00    -0.272 N 
HETATM    7  N   UNL     1      42.703  -9.664   6.554  1.00  0.00    -0.174 NA
HETATM    8  H   UNL     1      42.421 -10.271   4.627  1.00  0.00     0.189 HD
HETATM    9  C   UNL     1      43.085 -10.356   7.638  1.00  0.00     0.089 A 
HETATM   10  C   UNL     1      43.344 -11.712   7.290  1.00  0.00     0.071 A 
BRANCH   9  11
HETATM   11  C   UNL     1      43.217  -9.728   8.955  1.00  0.00    -0.006 A 
HETATM   12  C   UNL     1      42.708  -8.444   9.197  1.00  0.00     0.014 A 
HETATM   13  C   UNL     1      42.812  -7.861  10.463  1.00  0.00     0.008 A 
HETATM   14  C   UNL     1      43.431  -8.548  11.514  1.00  0.00    -0.059 A 
HETATM   15  C   UNL     1      43.945  -9.827  11.276  1.00  0.00     0.008 A 
HETATM   16  C   UNL     1      43.844 -10.408  10.009  1.00  0.00     0.014 A 
BRANCH  14  17
HETATM   17  C   UNL     1      43.515  -7.929  12.886  1.00  0.00     0.034 C 
HETATM   18  C   UNL     1      42.461  -8.495  13.826  1.00  0.00     0.010 C 
ENDBRANCH  14  17
ENDBRANCH   9  11
ENDBRANCH   1   5
BRANCH   2  19
HETATM   19  N   UNL     1      43.062 -15.268   4.743  1.00  0.00    -0.176 NA
HETATM   20  C   UNL     1      43.719 -16.316   5.153  1.00  0.00     0.061 C 
HETATM   21  C   UNL     1      44.497 -16.362   6.453  1.00  0.00     0.073 C 
BRANCH  20  22
HETATM   22  C   UNL     1      43.705 -17.539   4.285  1.00  0.00    -0.010 A 
HETATM   23  C   UNL     1      43.136 -17.454   3.005  1.00  0.00     0.016 A 
HETATM   24  C   UNL     1      43.101 -18.570   2.166  1.00  0.00     0.037 A 
HETATM   25  C   UNL     1      43.632 -19.775   2.612  1.00  0.00     0.065 A 
HETATM   26  C   UNL     1      44.188 -19.882   3.881  1.00  0.00     0.037 A 
HETATM   27  C   UNL     1      44.219 -18.766   4.723  1.00  0.00     0.016 A 
BRANCH  25  28
HETATM   28  O   UNL     1      43.622 -20.891   1.829  1.00  0.00    -0.361 OA
HETATM   29  H   UNL     1      43.904 -20.644   0.933  1.00  0.00     0.217 HD
ENDBRANCH  25  28
ENDBRANCH  20  22
ENDBRANCH   2  19
TORSDOF 6
ENDMDL
MODEL 4
REMARK VINA RESULT:      -8.2      2.987     10.692
REMARK  6 active torsions:
REMARK  status: ('A' for Active; 'I' for Inactive)
REMARK    1  A    between atoms: C_2  and  C_3 
REMARK    2  A    between atoms: C_6  and  C_7 
REMARK    3  A    between atoms: C_11  and  C_12 
REMARK       I    between atoms: C_12  and  N_13 
REMARK    4  A    between atoms: N_13  and  N_14 
REMARK    5  A    between atoms: C_15  and  C_16 
REMARK    6  A    between atoms: C_19  and  O_20 
ROOT
HETATM    1  C   UNL     1      42.143  -9.997   6.611  1.00  0.00     0.289 C 
HETATM    2  N   UNL     1      42.599 -10.297   7.886  1.00  0.00    -0.241 N 
HETATM    3  O   UNL     1      41.505  -8.989   6.319  1.00  0.00    -0.264 OA
HETATM    4  H   UNL     1      43.104 -11.155   8.050  1.00  0.00     0.192 HD
ENDROOT
BRANCH   1   5
HETATM    5  C   UNL     1      42.455 -10.997   5.618  1.00  0.00     0.121 A 
HETATM    6  N   UNL     1      42.959 -10.655   4.395  1.00  0.00    -0.272 N 
HETATM    7  N   UNL     1      43.159 -11.695   3.572  1.00  0.00    -0.174 NA
HETATM    8  H   UNL     1      43.168  -9.716   4.066  1.00  0.00     0.189 HD
HETATM    9  C   UNL     1      42.812 -12.771   4.293  1.00  0.00     0.089 A 
HETATM   10  C   UNL     1      42.363 -12.374   5.584  1.00  0.00     0.071 A 
BRANCH   9  11
HETATM   11  C   UNL     1      42.892 -14.130   3.750  1.00  0.00    -0.006 A 
HETATM   12  C   UNL     1      43.211 -14.352   2.403  1.00  0.00     0.014 A 
HETATM   13  C   UNL     1      43.312 -15.651   1.897  1.00  0.00     0.008 A 
HETATM   14  C   UNL     1      43.091 -16.757   2.727  1.00  0.00    -0.059 A 
HETATM   15  C   UNL     1      42.767 -16.540   4.071  1.00  0.00     0.008 A 
HETATM   16  C   UNL     1      42.663 -15.241   4.575  1.00  0.00     0.014 A 
BRANCH  14  17
HETATM   17  C   UNL     1      43.230 -18.157   2.186  1.00  0.00     0.034 C 
HETATM   18  C   UNL     1      44.086 -19.029   3.092  1.00  0.00     0.010 C 
ENDBRANCH  14  17
ENDBRANCH   9  11
ENDBRANCH   1   5
BRANCH   2  19
HETATM   19  N   UNL     1      42.382  -9.435   8.917  1.00  0.00    -0.176 NA
HETATM   20  C   UNL     1      43.269  -9.337   9.867  1.00  0.00     0.061 C 
HETATM   21  C   UNL     1      44.528 -10.180   9.929  1.00  0.00     0.073 C 
BRANCH  20  22
HETATM   22  C   UNL     1      43.025  -8.337  10.958  1.00  0.00    -0.010 A 
HETATM   23  C   UNL     1      43.435  -8.648  12.264  1.00  0.00     0.016 A 
HETATM   24  C   UNL     1      43.225  -7.746  13.310  1.00  0.00     0.037 A 
HETATM   25  C   UNL     1      42.598  -6.533  13.048  1.00  0.00     0.065 A 
HETATM   26  C   UNL     1      42.175  -6.213  11.764  1.00  0.00     0.037 A 
HETATM   27  C   UNL     1      42.380  -7.117  10.718  1.00  0.00     0.016 A 
BRANCH  25  28
HETATM   28  O   UNL     1      42.373  -5.620  14.035  1.00  0.00    -0.361 OA
HETATM   29  H   UNL     1      41.590  -5.097  13.801  1.00  0.00     0.217 HD
ENDBRANCH  25  28
ENDBRANCH  20  22
ENDBRANCH   2  19
TORSDOF 6
ENDMDL
MODEL 5
REMARK VINA RESULT:      -8.0      8.841     11.912
REMARK  6 active torsions:
REMARK  status: ('A' for Active; 'I' for Inactive)
REMARK    1  A    between atoms: C_2  and  C_3 
REMARK    2  A    between atoms: C_6  and  C_7 
REMARK    3  A    between atoms: C_11  and  C_12 
REMARK       I    between atoms: C_12  and  N_13 
REMARK    4  A    between atoms: N_13  and  N_14 
REMARK    5  A    between atoms: C_15  and  C_16 
REMARK    6  A    between atoms: C_19  and  O_20 
ROOT
HETATM    1  C   UNL     1      40.183 -13.386  -0.387  1.00  0.00     0.289 C 
HETATM    2  N   UNL     1      41.282 -12.675  -0.842  1.00  0.00    -0.241 N 
HETATM    3  O   UNL     1      39.029 -13.203  -0.765  1.00  0.00    -0.264 OA
HETATM    4  H   UNL     1      42.199 -12.874  -0.470  1.00  0.00     0.192 HD
ENDROOT
BRANCH   1   5
HETATM    5  C   UNL     1      40.490 -14.375   0.619  1.00  0.00     0.121 A 
HETATM    6  N   UNL     1      39.555 -14.782   1.529  1.00  0.00    -0.272 N 
HETATM    7  N   UNL     1      40.008 -15.677   2.420  1.00  0.00    -0.174 NA
HETATM    8  H   UNL     1      38.592 -14.463   1.593  1.00  0.00     0.189 HD
HETATM    9  C   UNL     1      41.281 -15.900   2.061  1.00  0.00     0.089 A 
HETATM   10  C   UNL     1      41.622 -15.100   0.935  1.00  0.00     0.071 A 
BRANCH   9  11
HETATM   11  C   UNL     1      42.142 -16.835   2.790  1.00  0.00    -0.006 A 
HETATM   12  C   UNL     1      42.432 -16.640   4.148  1.00  0.00     0.014 A 
HETATM   13  C   UNL     1      43.233 -17.550   4.846  1.00  0.00     0.008 A 
HETATM   14  C   UNL     1      43.763 -18.673   4.199  1.00  0.00    -0.059 A 
HETATM   15  C   UNL     1      43.481 -18.868   2.842  1.00  0.00     0.008 A 
HETATM   16  C   UNL     1      42.683 -17.956   2.145  1.00  0.00     0.014 A 
BRANCH  14  17
HETATM   17  C   UNL     1      44.600 -19.668   4.960  1.00  0.00     0.034 C 
HETATM   18  C   UNL     1      43.842 -20.961   5.221  1.00  0.00     0.010 C 
ENDBRANCH  14  17
ENDBRANCH   9  11
ENDBRANCH   1   5
BRANCH   2  19
HETATM   19  N   UNL     1      41.137 -11.717  -1.800  1.00  0.00    -0.176 NA
HETATM   20  C   UNL     1      41.299 -10.465  -1.481  1.00  0.00     0.061 C 
HETATM   21  C   UNL     1      41.588  -9.987  -0.072  1.00  0.00     0.073 C 
BRANCH  20  22
HETATM   22  C   UNL     1      41.187  -9.441  -2.572  1.00  0.00    -0.010 A 
HETATM   23  C   UNL     1      41.832  -8.205  -2.408  1.00  0.00     0.016 A 
HETATM   24  C   UNL     1      41.751  -7.223  -3.399  1.00  0.00     0.037 A 
HETATM   25  C   UNL     1      41.019  -7.477  -4.553  1.00  0.00     0.065 A 
HETATM   26  C   UNL     1      40.364  -8.690  -4.727  1.00  0.00     0.037 A 
HETATM   27  C   UNL     1      40.440  -9.672  -3.735  1.00  0.00     0.016 A 
BRANCH  25  28
HETATM   28  O   UNL     1      40.913  -6.551  -5.547  1.00  0.00    -0.361 OA
HETATM   29  H   UNL     1      40.687  -5.694  -5.151  1.00  0.00     0.217 HD
ENDBRANCH  25  28
ENDBRANCH  20  22
ENDBRANCH   2  19
TORSDOF 6
ENDMDL
MODEL 6
REMARK VINA RESULT:      -8.0      8.449     10.989
REMARK  6 active torsions:
REMARK  status: ('A' for Active; 'I' for Inactive)
REMARK    1  A    between atoms: C_2  and  C_3 
REMARK    2  A    between atoms: C_6  and  C_7 
REMARK    3  A    between atoms: C_11  and  C_12 
REMARK       I    between atoms: C_12  and  N_13 
REMARK    4  A    between atoms: N_13  and  N_14 
REMARK    5  A    between atoms: C_15  and  C_16 
REMARK    6  A    between atoms: C_19  and  O_20 
ROOT
HETATM    1  C   UNL     1      40.773 -14.988   0.896  1.00  0.00     0.289 C 
HETATM    2  N   UNL     1      42.119 -15.310   0.985  1.00  0.00    -0.241 N 
HETATM    3  O   UNL     1      39.858 -15.707   1.289  1.00  0.00    -0.264 OA
HETATM    4  H   UNL     1      42.813 -14.672   0.624  1.00  0.00     0.192 HD
ENDROOT
BRANCH   1   5
HETATM    5  C   UNL     1      40.506 -13.719   0.264  1.00  0.00     0.121 A 
HETATM    6  N   UNL     1      39.230 -13.309  -0.004  1.00  0.00    -0.272 N 
HETATM    7  N   UNL     1      39.152 -12.125  -0.628  1.00  0.00    -0.174 NA
HETATM    8  H   UNL     1      38.374 -13.816   0.206  1.00  0.00     0.189 HD
HETATM    9  C   UNL     1      40.424 -11.715  -0.741  1.00  0.00     0.089 A 
HETATM   10  C   UNL     1      41.305 -12.690  -0.194  1.00  0.00     0.071 A 
BRANCH   9  11
HETATM   11  C   UNL     1      40.778 -10.441  -1.372  1.00  0.00    -0.006 A 
HETATM   12  C   UNL     1      41.446  -9.439  -0.652  1.00  0.00     0.014 A 
HETATM   13  C   UNL     1      41.805  -8.236  -1.266  1.00  0.00     0.008 A 
HETATM   14  C   UNL     1      41.501  -8.007  -2.614  1.00  0.00    -0.059 A 
HETATM   15  C   UNL     1      40.830  -9.001  -3.334  1.00  0.00     0.008 A 
HETATM   16  C   UNL     1      40.468 -10.202  -2.718  1.00  0.00     0.014 A 
BRANCH  14  17
HETATM   17  C   UNL     1      41.916  -6.722  -3.282  1.00  0.00     0.034 C 
HETATM   18  C   UNL     1      42.830  -6.974  -4.472  1.00  0.00     0.010 C 
ENDBRANCH  14  17
ENDBRANCH   9  11
ENDBRANCH   1   5
BRANCH   2  19
HETATM   19  N   UNL     1      42.514 -16.475   1.568  1.00  0.00    -0.176 NA
HETATM   20  C   UNL     1      42.996 -16.455   2.778  1.00  0.00     0.061 C 
HETATM   21  C   UNL     1      43.204 -15.183   3.577  1.00  0.00     0.073 C 
BRANCH  20  22
HETATM   22  C   UNL     1      43.368 -17.763   3.410  1.00  0.00    -0.010 A 
HETATM   23  C   UNL     1      43.444 -18.907   2.601  1.00  0.00     0.016 A 
HETATM   24  C   UNL     1      43.786 -20.146   3.151  1.00  0.00     0.037 A 
HETATM   25  C   UNL     1      44.046 -20.239   4.513  1.00  0.00     0.065 A 
HETATM   26  C   UNL     1      43.964 -19.119   5.331  1.00  0.00     0.037 A 
HETATM   27  C   UNL     1      43.618 -17.880   4.784  1.00  0.00     0.016 A 
BRANCH  25  28
HETATM   28  O   UNL     1      44.385 -21.424   5.094  1.00  0.00    -0.361 OA
HETATM   29  H   UNL     1      43.599 -21.792   5.530  1.00  0.00     0.217 HD
ENDBRANCH  25  28
ENDBRANCH  20  22
ENDBRANCH   2  19
TORSDOF 6
ENDMDL
MODEL 7
REMARK VINA RESULT:      -8.0      2.314      3.190
REMARK  6 active torsions:
REMARK  status: ('A' for Active; 'I' for Inactive)
REMARK    1  A    between atoms: C_2  and  C_3 
REMARK    2  A    between atoms: C_6  and  C_7 
REMARK    3  A    between atoms: C_11  and  C_12 
REMARK       I    between atoms: C_12  and  N_13 
REMARK    4  A    between atoms: N_13  and  N_14 
REMARK    5  A    between atoms: C_15  and  C_16 
REMARK    6  A    between atoms: C_19  and  O_20 
ROOT
HETATM    1  C   UNL     1      43.304 -12.972   5.371  1.00  0.00     0.289 C 
HETATM    2  N   UNL     1      43.432 -14.288   5.790  1.00  0.00    -0.241 N 
HETATM    3  O   UNL     1      43.105 -12.628   4.209  1.00  0.00    -0.264 OA
HETATM    4  H   UNL     1      43.610 -14.490   6.763  1.00  0.00     0.192 HD
ENDROOT
BRANCH   1   5
HETATM    5  C   UNL     1      43.451 -11.996   6.424  1.00  0.00     0.121 A 
HETATM    6  N   UNL     1      44.424 -12.116   7.377  1.00  0.00    -0.272 N 
HETATM    7  N   UNL     1      44.405 -11.150   8.307  1.00  0.00    -0.174 NA
HETATM    8  H   UNL     1      45.119 -12.855   7.445  1.00  0.00     0.189 HD
HETATM    9  C   UNL     1      43.406 -10.336   7.932  1.00  0.00     0.089 A 
HETATM   10  C   UNL     1      42.781 -10.835   6.754  1.00  0.00     0.071 A 
BRANCH   9  11
HETATM   11  C   UNL     1      43.054  -9.135   8.693  1.00  0.00    -0.006 A 
HETATM   12  C   UNL     1      42.036  -9.164   9.658  1.00  0.00     0.014 A 
HETATM   13  C   UNL     1      41.723  -8.021  10.401  1.00  0.00     0.008 A 
HETATM   14  C   UNL     1      42.418  -6.824  10.191  1.00  0.00    -0.059 A 
HETATM   15  C   UNL     1      43.430  -6.789   9.226  1.00  0.00     0.008 A 
HETATM   16  C   UNL     1      43.741  -7.931   8.482  1.00  0.00     0.014 A 
BRANCH  14  17
HETATM   17  C   UNL     1      42.099  -5.603  11.014  1.00  0.00     0.034 C 
HETATM   18  C   UNL     1      41.601  -5.972  12.403  1.00  0.00     0.010 C 
ENDBRANCH  14  17
ENDBRANCH   9  11
ENDBRANCH   1   5
BRANCH   2  19
HETATM   19  N   UNL     1      43.305 -15.311   4.902  1.00  0.00    -0.176 NA
HETATM   20  C   UNL     1      43.872 -16.456   5.159  1.00  0.00     0.061 C 
HETATM   21  C   UNL     1      44.731 -16.711   6.382  1.00  0.00     0.073 C 
BRANCH  20  22
HETATM   22  C   UNL     1      43.665 -17.579   4.185  1.00  0.00    -0.010 A 
HETATM   23  C   UNL     1      42.910 -17.338   3.027  1.00  0.00     0.016 A 
HETATM   24  C   UNL     1      42.692 -18.357   2.096  1.00  0.00     0.037 A 
HETATM   25  C   UNL     1      43.226 -19.619   2.329  1.00  0.00     0.065 A 
HETATM   26  C   UNL     1      43.965 -19.879   3.476  1.00  0.00     0.037 A 
HETATM   27  C   UNL     1      44.180 -18.861   4.410  1.00  0.00     0.016 A 
BRANCH  25  28
HETATM   28  O   UNL     1      43.041 -20.644   1.449  1.00  0.00    -0.361 OA
HETATM   29  H   UNL     1      42.575 -20.303   0.668  1.00  0.00     0.217 HD
ENDBRANCH  25  28
ENDBRANCH  20  22
ENDBRANCH   2  19
TORSDOF 6
ENDMDL
MODEL 8
REMARK VINA RESULT:      -7.8      9.013     11.428
REMARK  6 active torsions:
REMARK  status: ('A' for Active; 'I' for Inactive)
REMARK    1  A    between atoms: C_2  and  C_3 
REMARK    2  A    between atoms: C_6  and  C_7 
REMARK    3  A    between atoms: C_11  and  C_12 
REMARK       I    between atoms: C_12  and  N_13 
REMARK    4  A    between atoms: N_13  and  N_14 
REMARK    5  A    between atoms: C_15  and  C_16 
REMARK    6  A    between atoms: C_19  and  O_20 
ROOT
HETATM    1  C   UNL     1      40.266 -14.487   2.231  1.00  0.00     0.289 C 
HETATM    2  N   UNL     1      40.684 -15.606   1.527  1.00  0.00    -0.241 N 
HETATM    3  O   UNL     1      40.329 -14.368   3.452  1.00  0.00    -0.264 OA
HETATM    4  H   UNL     1      40.584 -15.634   0.523  1.00  0.00     0.192 HD
ENDROOT
BRANCH   1   5
HETATM    5  C   UNL     1      39.705 -13.442   1.408  1.00  0.00     0.121 A 
HETATM    6  N   UNL     1      38.741 -12.599   1.884  1.00  0.00    -0.272 N 
HETATM    7  N   UNL     1      38.296 -11.708   0.985  1.00  0.00    -0.174 NA
HETATM    8  H   UNL     1      38.338 -12.603   2.817  1.00  0.00     0.189 HD
HETATM    9  C   UNL     1      39.024 -11.945  -0.117  1.00  0.00     0.089 A 
HETATM   10  C   UNL     1      39.919 -13.028   0.108  1.00  0.00     0.071 A 
BRANCH   9  11
HETATM   11  C   UNL     1      38.847 -11.169  -1.348  1.00  0.00    -0.006 A 
HETATM   12  C   UNL     1      39.939 -10.870  -2.175  1.00  0.00     0.014 A 
HETATM   13  C   UNL     1      39.760 -10.153  -3.363  1.00  0.00     0.008 A 
HETATM   14  C   UNL     1      38.486  -9.716  -3.745  1.00  0.00    -0.059 A 
HETATM   15  C   UNL     1      37.395 -10.008  -2.919  1.00  0.00     0.008 A 
HETATM   16  C   UNL     1      37.575 -10.722  -1.731  1.00  0.00     0.014 A 
BRANCH  14  17
HETATM   17  C   UNL     1      38.292  -8.970  -5.039  1.00  0.00     0.034 C 
HETATM   18  C   UNL     1      39.581  -8.314  -5.511  1.00  0.00     0.010 C 
ENDBRANCH  14  17
ENDBRANCH   9  11
ENDBRANCH   1   5
BRANCH   2  19
HETATM   19  N   UNL     1      41.242 -16.663   2.178  1.00  0.00    -0.176 NA
HETATM   20  C   UNL     1      42.538 -16.790   2.200  1.00  0.00     0.061 C 
HETATM   21  C   UNL     1      43.486 -15.848   1.484  1.00  0.00     0.073 C 
BRANCH  20  22
HETATM   22  C   UNL     1      43.120 -17.936   2.975  1.00  0.00    -0.010 A 
HETATM   23  C   UNL     1      43.231 -19.188   2.349  1.00  0.00     0.016 A 
HETATM   24  C   UNL     1      43.766 -20.281   3.035  1.00  0.00     0.037 A 
HETATM   25  C   UNL     1      44.185 -20.122   4.351  1.00  0.00     0.065 A 
HETATM   26  C   UNL     1      44.072 -18.893   4.990  1.00  0.00     0.037 A 
HETATM   27  C   UNL     1      43.533 -17.799   4.306  1.00  0.00     0.016 A 
BRANCH  25  28
HETATM   28  O   UNL     1      44.715 -21.158   5.060  1.00  0.00    -0.361 OA
HETATM   29  H   UNL     1      45.512 -20.846   5.517  1.00  0.00     0.217 HD
ENDBRANCH  25  28
ENDBRANCH  20  22
ENDBRANCH   2  19
TORSDOF 6
ENDMDL
MODEL 9
REMARK VINA RESULT:      -7.8      3.069     10.838
REMARK  6 active torsions:
REMARK  status: ('A' for Active; 'I' for Inactive)
REMARK    1  A    between atoms: C_2  and  C_3 
REMARK    2  A    between atoms: C_6  and  C_7 
REMARK    3  A    between atoms: C_11  and  C_12 
REMARK       I    between atoms: C_12  and  N_13 
REMARK    4  A    between atoms: N_13  and  N_14 
REMARK    5  A    between atoms: C_15  and  C_16 
REMARK    6  A    between atoms: C_19  and  O_20 
ROOT
HETATM    1  C   UNL     1      43.532 -11.831   7.336  1.00  0.00     0.289 C 
HETATM    2  N   UNL     1      42.658 -10.765   7.187  1.00  0.00    -0.241 N 
HETATM    3  O   UNL     1      44.434 -11.881   8.169  1.00  0.00    -0.264 OA
HETATM    4  H   UNL     1      41.951 -10.792   6.467  1.00  0.00     0.192 HD
ENDROOT
BRANCH   1   5
HETATM    5  C   UNL     1      43.322 -12.907   6.398  1.00  0.00     0.121 A 
HETATM    6  N   UNL     1      42.498 -12.761   5.317  1.00  0.00    -0.272 N 
HETATM    7  N   UNL     1      42.378 -13.864   4.563  1.00  0.00    -0.174 NA
HETATM    8  H   UNL     1      41.977 -11.927   5.060  1.00  0.00     0.189 HD
HETATM    9  C   UNL     1      43.187 -14.763   5.144  1.00  0.00     0.089 A 
HETATM   10  C   UNL     1      43.797 -14.200   6.301  1.00  0.00     0.071 A 
BRANCH   9  11
HETATM   11  C   UNL     1      43.349 -16.120   4.616  1.00  0.00    -0.006 A 
HETATM   12  C   UNL     1      42.835 -16.471   3.360  1.00  0.00     0.014 A 
HETATM   13  C   UNL     1      43.016 -17.760   2.848  1.00  0.00     0.008 A 
HETATM   14  C   UNL     1      43.712 -18.726   3.585  1.00  0.00    -0.059 A 
HETATM   15  C   UNL     1      44.222 -18.381   4.841  1.00  0.00     0.008 A 
HETATM   16  C   UNL     1      44.038 -17.094   5.353  1.00  0.00     0.014 A 
BRANCH  14  17
HETATM   17  C   UNL     1      43.932 -20.105   3.019  1.00  0.00     0.034 C 
HETATM   18  C   UNL     1      43.247 -20.278   1.671  1.00  0.00     0.010 C 
ENDBRANCH  14  17
ENDBRANCH   9  11
ENDBRANCH   1   5
BRANCH   2  19
HETATM   19  N   UNL     1      42.737  -9.686   8.013  1.00  0.00    -0.176 NA
HETATM   20  C   UNL     1      41.644  -9.089   8.392  1.00  0.00     0.061 C 
HETATM   21  C   UNL     1      40.261  -9.489   7.918  1.00  0.00     0.073 C 
BRANCH  20  22
HETATM   22  C   UNL     1      41.765  -7.938   9.347  1.00  0.00    -0.010 A 
HETATM   23  C   UNL     1      42.741  -6.958   9.106  1.00  0.00     0.016 A 
HETATM   24  C   UNL     1      42.888  -5.871   9.972  1.00  0.00     0.037 A 
HETATM   25  C   UNL     1      42.060  -5.769  11.084  1.00  0.00     0.065 A 
HETATM   26  C   UNL     1      41.096  -6.736  11.345  1.00  0.00     0.037 A 
HETATM   27  C   UNL     1      40.951  -7.826  10.482  1.00  0.00     0.016 A 
BRANCH  25  28
HETATM   28  O   UNL     1      42.164  -4.727  11.956  1.00  0.00    -0.361 OA
HETATM   29  H   UNL     1      41.636  -3.985  11.618  1.00  0.00     0.217 HD
ENDBRANCH  25  28
ENDBRANCH  20  22
ENDBRANCH   2  19
TORSDOF 6
ENDMDL
MODEL 10
REMARK VINA RESULT:      -7.7      2.073      2.447
REMARK  6 active torsions:
REMARK  status: ('A' for Active; 'I' for Inactive)
REMARK    1  A    between atoms: C_2  and  C_3 
REMARK    2  A    between atoms: C_6  and  C_7 
REMARK    3  A    between atoms: C_11  and  C_12 
REMARK       I    between atoms: C_12  and  N_13 
REMARK    4  A    between atoms: N_13  and  N_14 
REMARK    5  A    between atoms: C_15  and  C_16 
REMARK    6  A    between atoms: C_19  and  O_20 
ROOT
HETATM    1  C   UNL     1      43.707 -11.538   6.922  1.00  0.00     0.289 C 
HETATM    2  N   UNL     1      43.442 -12.867   7.217  1.00  0.00    -0.241 N 
HETATM    3  O   UNL     1      44.068 -11.128   5.823  1.00  0.00    -0.264 OA
HETATM    4  H   UNL     1      43.164 -13.129   8.152  1.00  0.00     0.192 HD
ENDROOT
BRANCH   1   5
HETATM    5  C   UNL     1      43.550 -10.639   8.040  1.00  0.00     0.121 A 
HETATM    6  N   UNL     1      43.732 -11.062   9.327  1.00  0.00    -0.272 N 
HETATM    7  N   UNL     1      43.511 -10.118  10.254  1.00  0.00    -0.174 NA
HETATM    8  H   UNL     1      43.993 -11.998   9.627  1.00  0.00     0.189 HD
HETATM    9  C   UNL     1      43.210  -9.016   9.550  1.00  0.00     0.089 A 
HETATM   10  C   UNL     1      43.222  -9.303   8.157  1.00  0.00     0.071 A 
BRANCH   9  11
HETATM   11  C   UNL     1      42.902  -7.739  10.200  1.00  0.00    -0.006 A 
HETATM   12  C   UNL     1      42.593  -7.680  11.566  1.00  0.00     0.014 A 
HETATM   13  C   UNL     1      42.327  -6.455  12.187  1.00  0.00     0.008 A 
HETATM   14  C   UNL     1      42.359  -5.264  11.452  1.00  0.00    -0.059 A 
HETATM   15  C   UNL     1      42.660  -5.319  10.087  1.00  0.00     0.008 A 
HETATM   16  C   UNL     1      42.924  -6.544   9.467  1.00  0.00     0.014 A 
BRANCH  14  17
HETATM   17  C   UNL     1      42.100  -3.943  12.129  1.00  0.00     0.034 C 
HETATM   18  C   UNL     1      43.094  -2.879  11.688  1.00  0.00     0.010 C 
ENDBRANCH  14  17
ENDBRANCH   9  11
ENDBRANCH   1   5
BRANCH   2  19
HETATM   19  N   UNL     1      43.542 -13.822   6.252  1.00  0.00    -0.176 NA
HETATM   20  C   UNL     1      43.294 -15.065   6.553  1.00  0.00     0.061 C 
HETATM   21  C   UNL     1      42.949 -15.537   7.952  1.00  0.00     0.073 C 
BRANCH  20  22
HETATM   22  C   UNL     1      43.359 -16.083   5.452  1.00  0.00    -0.010 A 
HETATM   23  C   UNL     1      44.278 -17.138   5.561  1.00  0.00     0.016 A 
HETATM   24  C   UNL     1      44.371 -18.106   4.557  1.00  0.00     0.037 A 
HETATM   25  C   UNL     1      43.547 -18.013   3.442  1.00  0.00     0.065 A 
HETATM   26  C   UNL     1      42.640 -16.969   3.311  1.00  0.00     0.037 A 
HETATM   27  C   UNL     1      42.549 -15.997   4.313  1.00  0.00     0.016 A 
BRANCH  25  28
HETATM   28  O   UNL     1      43.601 -18.934   2.438  1.00  0.00    -0.361 OA
HETATM   29  H   UNL     1      42.894 -18.740   1.801  1.00  0.00     0.217 HD
ENDBRANCH  25  28
ENDBRANCH  20  22
ENDBRANCH   2  19
TORSDOF 6
ENDMDL
