MODEL 1
REMARK VINA RESULT:      -8.9      0.000      0.000
REMARK  2 active torsions:
REMARK  status: ('A' for Active; 'I' for Inactive)
REMARK    1  A    between atoms: C_6  and  N_7 
REMARK    2  A    between atoms: N_7  and  C_8 
ROOT
HETATM    1  C   UNL     1      43.128 -15.537   8.161  1.00  0.00     0.093 C 
HETATM    2  C   UNL     1      43.288 -16.340   6.906  1.00  0.00     0.125 A 
HETATM    3  N   UNL     1      43.436 -17.660   7.039  1.00  0.00    -0.226 NA
HETATM    4  C   UNL     1      43.547 -18.294   5.863  1.00  0.00     0.114 A 
HETATM    5  C   UNL     1      43.513 -17.711   4.596  1.00  0.00     0.053 A 
HETATM    6  C   UNL     1      43.359 -16.306   4.561  1.00  0.00     0.143 A 
HETATM    7  N   UNL     1      43.244 -15.658   5.746  1.00  0.00    -0.215 NA
HETATM    8  S   UNL     1      43.763 -20.001   5.821  1.00  0.00    -0.073 SA
HETATM    9  C   UNL     1      43.810 -19.973   4.153  1.00  0.00    -0.008 A 
HETATM   10  C   UNL     1      43.660 -18.727   3.608  1.00  0.00    -0.028 A 
HETATM   11  C   UNL     1      43.717 -18.797   2.124  1.00  0.00     0.041 C 
HETATM   12  C   UNL     1      43.587 -20.328   1.849  1.00  0.00     0.010 C 
HETATM   13  C   UNL     1      43.994 -21.059   3.163  1.00  0.00     0.047 C 
ENDROOT
BRANCH   6  14
HETATM   14  N   UNL     1      43.303 -15.609   3.345  1.00  0.00    -0.340 N 
HETATM   15  H   UNL     1      44.177 -15.176   3.092  1.00  0.00     0.167 HD
BRANCH  14  16
HETATM   16  C   UNL     1      42.247 -15.321   2.461  1.00  0.00     0.036 A 
HETATM   17  C   UNL     1      42.328 -14.145   1.691  1.00  0.00     0.069 A 
HETATM   18  C   UNL     1      41.312 -13.855   0.803  1.00  0.00     0.107 A 
HETATM   19  C   UNL     1      40.229 -14.684   0.646  1.00  0.00     0.105 A 
HETATM   20  O   UNL     1      41.246 -12.759  -0.000  1.00  0.00    -0.323 OA
HETATM   21  O   UNL     1      39.344 -14.217  -0.272  1.00  0.00    -0.323 OA
HETATM   22  C   UNL     1      40.111 -15.850   1.366  1.00  0.00     0.042 A 
HETATM   23  C   UNL     1      39.994 -12.996  -0.679  1.00  0.00     0.352 A 
HETATM   24  C   UNL     1      41.133 -16.166   2.273  1.00  0.00     0.032 A 
ENDBRANCH  14  16
ENDBRANCH   6  14
TORSDOF 2
ENDMDL
MODEL 2
REMARK VINA RESULT:      -8.1      2.023      2.895
REMARK  2 active torsions:
REMARK  status: ('A' for Active; 'I' for Inactive)
REMARK    1  A    between atoms: C_6  and  N_7 
REMARK    2  A    between atoms: N_7  and  C_8 
ROOT
HETATM    1  C   UNL     1      40.060 -13.174   6.040  1.00  0.00     0.093 C 
HETATM    2  C   UNL     1      40.803 -14.258   5.322  1.00  0.00     0.125 A 
HETATM    3  N   UNL     1      41.639 -15.009   6.044  1.00  0.00    -0.226 NA
HETATM    4  C   UNL     1      42.239 -15.966   5.322  1.00  0.00     0.114 A 
HETATM    5  C   UNL     1      42.058 -16.219   3.962  1.00  0.00     0.053 A 
HETATM    6  C   UNL     1      41.158 -15.365   3.284  1.00  0.00     0.143 A 
HETATM    7  N   UNL     1      40.546 -14.396   4.008  1.00  0.00    -0.215 NA
HETATM    8  S   UNL     1      43.367 -17.030   6.069  1.00  0.00    -0.073 SA
HETATM    9  C   UNL     1      43.614 -17.816   4.617  1.00  0.00    -0.008 A 
HETATM   10  C   UNL     1      42.874 -17.322   3.578  1.00  0.00    -0.028 A 
HETATM   11  C   UNL     1      43.159 -18.079   2.330  1.00  0.00     0.041 C 
HETATM   12  C   UNL     1      43.937 -19.325   2.856  1.00  0.00     0.010 C 
HETATM   13  C   UNL     1      44.499 -18.948   4.259  1.00  0.00     0.047 C 
ENDROOT
BRANCH   6  14
HETATM   14  N   UNL     1      40.889 -15.528   1.917  1.00  0.00    -0.340 N 
HETATM   15  H   UNL     1      40.932 -16.488   1.613  1.00  0.00     0.167 HD
BRANCH  14  16
HETATM   16  C   UNL     1      40.663 -14.610   0.875  1.00  0.00     0.036 A 
HETATM   17  C   UNL     1      39.769 -14.975  -0.149  1.00  0.00     0.069 A 
HETATM   18  C   UNL     1      39.520 -14.080  -1.170  1.00  0.00     0.107 A 
HETATM   19  C   UNL     1      40.114 -12.843  -1.210  1.00  0.00     0.105 A 
HETATM   20  O   UNL     1      38.690 -14.290  -2.227  1.00  0.00    -0.323 OA
HETATM   21  O   UNL     1      39.738 -12.119  -2.295  1.00  0.00    -0.323 OA
HETATM   22  C   UNL     1      40.984 -12.436  -0.226  1.00  0.00     0.042 A 
HETATM   23  C   UNL     1      38.834 -13.042  -2.937  1.00  0.00     0.352 A 
HETATM   24  C   UNL     1      41.251 -13.328   0.822  1.00  0.00     0.032 A 
ENDBRANCH  14  16
ENDBRANCH   6  14
TORSDOF 2
ENDMDL
MODEL 3
REMARK VINA RESULT:      -7.9      2.150      2.942
REMARK  2 active torsions:
REMARK  status: ('A' for Active; 'I' for Inactive)
REMARK    1  A    between atoms: C_6  and  N_7 
REMARK    2  A    between atoms: N_7  and  C_8 
ROOT
HETATM    1  C   UNL     1      40.119 -12.709   5.973  1.00  0.00     0.093 C 
HETATM    2  C   UNL     1      40.777 -13.836   5.238  1.00  0.00     0.125 A 
HETATM    3  N   UNL     1      41.710 -14.532   5.893  1.00  0.00    -0.226 NA
HETATM    4  C   UNL     1      42.224 -15.533   5.164  1.00  0.00     0.114 A 
HETATM    5  C   UNL     1      41.868 -15.880   3.860  1.00  0.00     0.053 A 
HETATM    6  C   UNL     1      40.876 -15.080   3.251  1.00  0.00     0.143 A 
HETATM    7  N   UNL     1      40.351 -14.067   3.982  1.00  0.00    -0.215 NA
HETATM    8  S   UNL     1      43.455 -16.537   5.826  1.00  0.00    -0.073 SA
HETATM    9  C   UNL     1      43.520 -17.421   4.411  1.00  0.00    -0.008 A 
HETATM   10  C   UNL     1      42.642 -17.004   3.447  1.00  0.00    -0.028 A 
HETATM   11  C   UNL     1      42.771 -17.843   2.228  1.00  0.00     0.041 C 
HETATM   12  C   UNL     1      43.629 -19.047   2.730  1.00  0.00     0.010 C 
HETATM   13  C   UNL     1      44.366 -18.570   4.016  1.00  0.00     0.047 C 
ENDROOT
BRANCH   6  14
HETATM   14  N   UNL     1      40.431 -15.339   1.946  1.00  0.00    -0.340 N 
HETATM   15  H   UNL     1      40.192 -16.306   1.790  1.00  0.00     0.167 HD
BRANCH  14  16
HETATM   16  C   UNL     1      40.342 -14.536   0.794  1.00  0.00     0.036 A 
HETATM   17  C   UNL     1      40.949 -13.266   0.820  1.00  0.00     0.069 A 
HETATM   18  C   UNL     1      40.889 -12.473  -0.308  1.00  0.00     0.107 A 
HETATM   19  C   UNL     1      40.260 -12.890  -1.454  1.00  0.00     0.105 A 
HETATM   20  O   UNL     1      41.420 -11.227  -0.433  1.00  0.00    -0.323 OA
HETATM   21  O   UNL     1      40.311 -11.962  -2.445  1.00  0.00    -0.323 OA
HETATM   22  C   UNL     1      39.663 -14.126  -1.533  1.00  0.00     0.042 A 
HETATM   23  C   UNL     1      41.049 -10.909  -1.791  1.00  0.00     0.352 A 
HETATM   24  C   UNL     1      39.713 -14.951  -0.400  1.00  0.00     0.032 A 
ENDBRANCH  14  16
ENDBRANCH   6  14
TORSDOF 2
ENDMDL
MODEL 4
REMARK VINA RESULT:      -7.8      2.820      4.254
REMARK  2 active torsions:
REMARK  status: ('A' for Active; 'I' for Inactive)
REMARK    1  A    between atoms: C_6  and  N_7 
REMARK    2  A    between atoms: N_7  and  C_8 
ROOT
HETATM    1  C   UNL     1      39.096 -11.353   5.235  1.00  0.00     0.093 C 
HETATM    2  C   UNL     1      39.952 -12.411   4.609  1.00  0.00     0.125 A 
HETATM    3  N   UNL     1      40.197 -13.507   5.331  1.00  0.00    -0.226 NA
HETATM    4  C   UNL     1      40.950 -14.405   4.680  1.00  0.00     0.114 A 
HETATM    5  C   UNL     1      41.455 -14.285   3.385  1.00  0.00     0.053 A 
HETATM    6  C   UNL     1      41.146 -13.086   2.705  1.00  0.00     0.143 A 
HETATM    7  N   UNL     1      40.384 -12.173   3.356  1.00  0.00    -0.215 NA
HETATM    8  S   UNL     1      41.390 -15.880   5.450  1.00  0.00    -0.073 SA
HETATM    9  C   UNL     1      42.236 -16.357   4.092  1.00  0.00    -0.008 A 
HETATM   10  C   UNL     1      42.200 -15.457   3.062  1.00  0.00    -0.028 A 
HETATM   11  C   UNL     1      42.978 -15.962   1.901  1.00  0.00     0.041 C 
HETATM   12  C   UNL     1      43.209 -17.461   2.270  1.00  0.00     0.010 C 
HETATM   13  C   UNL     1      43.023 -17.580   3.812  1.00  0.00     0.047 C 
ENDROOT
BRANCH   6  14
HETATM   14  N   UNL     1      41.591 -12.855   1.395  1.00  0.00    -0.340 N 
HETATM   15  H   UNL     1      42.520 -12.464   1.351  1.00  0.00     0.167 HD
BRANCH  14  16
HETATM   16  C   UNL     1      40.965 -12.976   0.141  1.00  0.00     0.036 A 
HETATM   17  C   UNL     1      40.281 -14.172  -0.148  1.00  0.00     0.069 A 
HETATM   18  C   UNL     1      39.644 -14.301  -1.365  1.00  0.00     0.107 A 
HETATM   19  C   UNL     1      39.652 -13.294  -2.298  1.00  0.00     0.105 A 
HETATM   20  O   UNL     1      38.951 -15.393  -1.788  1.00  0.00    -0.323 OA
HETATM   21  O   UNL     1      38.971 -13.622  -3.426  1.00  0.00    -0.323 OA
HETATM   22  C   UNL     1      40.295 -12.103  -2.058  1.00  0.00     0.042 A 
HETATM   23  C   UNL     1      38.528 -14.955  -3.097  1.00  0.00     0.352 A 
HETATM   24  C   UNL     1      40.949 -11.948  -0.826  1.00  0.00     0.032 A 
ENDBRANCH  14  16
ENDBRANCH   6  14
TORSDOF 2
ENDMDL
MODEL 5
REMARK VINA RESULT:      -7.6      4.257      7.169
REMARK  2 active torsions:
REMARK  status: ('A' for Active; 'I' for Inactive)
REMARK    1  A    between atoms: C_6  and  N_7 
REMARK    2  A    between atoms: N_7  and  C_8 
ROOT
HETATM    1  C   UNL     1      39.146 -10.740   4.943  1.00  0.00     0.093 C 
HETATM    2  C   UNL     1      39.251 -11.487   3.650  1.00  0.00     0.125 A 
HETATM    3  N   UNL     1      39.183 -10.774   2.523  1.00  0.00    -0.226 NA
HETATM    4  C   UNL     1      39.310 -11.525   1.420  1.00  0.00     0.114 A 
HETATM    5  C   UNL     1      39.503 -12.906   1.371  1.00  0.00     0.053 A 
HETATM    6  C   UNL     1      39.555 -13.572   2.616  1.00  0.00     0.143 A 
HETATM    7  N   UNL     1      39.429 -12.819   3.736  1.00  0.00    -0.215 NA
HETATM    8  S   UNL     1      39.232 -10.792  -0.136  1.00  0.00    -0.073 SA
HETATM    9  C   UNL     1      39.452 -12.277  -0.867  1.00  0.00    -0.008 A 
HETATM   10  C   UNL     1      39.594 -13.319   0.010  1.00  0.00    -0.028 A 
HETATM   11  C   UNL     1      39.782 -14.596  -0.727  1.00  0.00     0.041 C 
HETATM   12  C   UNL     1      40.068 -14.113  -2.183  1.00  0.00     0.010 C 
HETATM   13  C   UNL     1      39.511 -12.662  -2.295  1.00  0.00     0.047 C 
ENDROOT
BRANCH   6  14
HETATM   14  N   UNL     1      39.754 -14.958   2.693  1.00  0.00    -0.340 N 
HETATM   15  H   UNL     1      38.904 -15.491   2.583  1.00  0.00     0.167 HD
BRANCH  14  16
HETATM   16  C   UNL     1      40.884 -15.744   2.986  1.00  0.00     0.036 A 
HETATM   17  C   UNL     1      41.150 -16.049   4.334  1.00  0.00     0.069 A 
HETATM   18  C   UNL     1      42.243 -16.835   4.638  1.00  0.00     0.107 A 
HETATM   19  C   UNL     1      43.072 -17.332   3.663  1.00  0.00     0.105 A 
HETATM   20  O   UNL     1      42.630 -17.209   5.888  1.00  0.00    -0.323 OA
HETATM   21  O   UNL     1      44.087 -18.077   4.173  1.00  0.00    -0.323 OA
HETATM   22  C   UNL     1      42.846 -17.072   2.333  1.00  0.00     0.042 A 
HETATM   23  C   UNL     1      43.801 -17.996   5.584  1.00  0.00     0.352 A 
HETATM   24  C   UNL     1      41.740 -16.277   1.999  1.00  0.00     0.032 A 
ENDBRANCH  14  16
ENDBRANCH   6  14
TORSDOF 2
ENDMDL
MODEL 6
REMARK VINA RESULT:      -7.1      4.145      6.558
REMARK  2 active torsions:
REMARK  status: ('A' for Active; 'I' for Inactive)
REMARK    1  A    between atoms: C_6  and  N_7 
REMARK    2  A    between atoms: N_7  and  C_8 
ROOT
HETATM    1  C   UNL     1      40.949 -10.316   6.728  1.00  0.00     0.093 C 
HETATM    2  C   UNL     1      40.695 -11.267   5.599  1.00  0.00     0.125 A 
HETATM    3  N   UNL     1      40.572 -10.747   4.375  1.00  0.00    -0.226 NA
HETATM    4  C   UNL     1      40.371 -11.676   3.430  1.00  0.00     0.114 A 
HETATM    5  C   UNL     1      40.295 -13.055   3.622  1.00  0.00     0.053 A 
HETATM    6  C   UNL     1      40.432 -13.507   4.953  1.00  0.00     0.143 A 
HETATM    7  N   UNL     1      40.637 -12.574   5.915  1.00  0.00    -0.215 NA
HETATM    8  S   UNL     1      40.169 -11.203   1.787  1.00  0.00    -0.073 SA
HETATM    9  C   UNL     1      39.985 -12.799   1.332  1.00  0.00    -0.008 A 
HETATM   10  C   UNL     1      40.078 -13.692   2.365  1.00  0.00    -0.028 A 
HETATM   11  C   UNL     1      39.901 -15.082   1.869  1.00  0.00     0.041 C 
HETATM   12  C   UNL     1      40.023 -14.911   0.322  1.00  0.00     0.010 C 
HETATM   13  C   UNL     1      39.732 -13.413   0.009  1.00  0.00     0.047 C 
ENDROOT
BRANCH   6  14
HETATM   14  N   UNL     1      40.382 -14.873   5.268  1.00  0.00    -0.340 N 
HETATM   15  H   UNL     1      39.464 -15.187   5.544  1.00  0.00     0.167 HD
BRANCH  14  16
HETATM   16  C   UNL     1      41.374 -15.866   5.362  1.00  0.00     0.036 A 
HETATM   17  C   UNL     1      41.918 -16.378   4.169  1.00  0.00     0.069 A 
HETATM   18  C   UNL     1      42.907 -17.338   4.242  1.00  0.00     0.107 A 
HETATM   19  C   UNL     1      43.378 -17.802   5.444  1.00  0.00     0.105 A 
HETATM   20  O   UNL     1      43.521 -17.928   3.181  1.00  0.00    -0.323 OA
HETATM   21  O   UNL     1      44.346 -18.744   5.296  1.00  0.00    -0.323 OA
HETATM   22  C   UNL     1      42.888 -17.325   6.637  1.00  0.00     0.042 A 
HETATM   23  C   UNL     1      44.432 -18.820   3.859  1.00  0.00     0.352 A 
HETATM   24  C   UNL     1      41.884 -16.347   6.587  1.00  0.00     0.032 A 
ENDBRANCH  14  16
ENDBRANCH   6  14
TORSDOF 2
ENDMDL
MODEL 7
REMARK VINA RESULT:      -7.1     13.422     14.477
REMARK  2 active torsions:
REMARK  status: ('A' for Active; 'I' for Inactive)
REMARK    1  A    between atoms: C_6  and  N_7 
REMARK    2  A    between atoms: N_7  and  C_8 
ROOT
HETATM    1  C   UNL     1      48.486 -29.499   4.099  1.00  0.00     0.093 C 
HETATM    2  C   UNL     1      47.674 -29.280   2.860  1.00  0.00     0.125 A 
HETATM    3  N   UNL     1      48.334 -29.197   1.702  1.00  0.00    -0.226 NA
HETATM    4  C   UNL     1      47.523 -29.024   0.649  1.00  0.00     0.114 A 
HETATM    5  C   UNL     1      46.130 -28.940   0.676  1.00  0.00     0.053 A 
HETATM    6  C   UNL     1      45.526 -29.032   1.950  1.00  0.00     0.143 A 
HETATM    7  N   UNL     1      46.339 -29.208   3.020  1.00  0.00    -0.215 NA
HETATM    8  S   UNL     1      48.184 -28.877  -0.934  1.00  0.00    -0.073 SA
HETATM    9  C   UNL     1      46.653 -28.704  -1.577  1.00  0.00    -0.008 A 
HETATM   10  C   UNL     1      45.646 -28.762  -0.653  1.00  0.00    -0.028 A 
HETATM   11  C   UNL     1      44.324 -28.597  -1.312  1.00  0.00     0.041 C 
HETATM   12  C   UNL     1      44.673 -28.769  -2.824  1.00  0.00     0.010 C 
HETATM   13  C   UNL     1      46.199 -28.492  -2.970  1.00  0.00     0.047 C 
ENDROOT
BRANCH   6  14
HETATM   14  N   UNL     1      44.133 -28.969   2.101  1.00  0.00    -0.340 N 
HETATM   15  H   UNL     1      43.788 -28.031   2.236  1.00  0.00     0.167 HD
BRANCH  14  16
HETATM   16  C   UNL     1      43.138 -29.960   2.194  1.00  0.00     0.036 A 
HETATM   17  C   UNL     1      42.324 -29.979   3.342  1.00  0.00     0.069 A 
HETATM   18  C   UNL     1      41.330 -30.932   3.442  1.00  0.00     0.107 A 
HETATM   19  C   UNL     1      41.111 -31.856   2.451  1.00  0.00     0.105 A 
HETATM   20  O   UNL     1      40.472 -31.079   4.487  1.00  0.00    -0.323 OA
HETATM   21  O   UNL     1      40.091 -32.703   2.745  1.00  0.00    -0.323 OA
HETATM   22  C   UNL     1      41.871 -31.870   1.306  1.00  0.00     0.042 A 
HETATM   23  C   UNL     1      39.689 -32.205   4.038  1.00  0.00     0.352 A 
HETATM   24  C   UNL     1      42.886 -30.910   1.181  1.00  0.00     0.032 A 
ENDBRANCH  14  16
ENDBRANCH   6  14
TORSDOF 2
ENDMDL
MODEL 8
REMARK VINA RESULT:      -7.0     14.468     16.215
REMARK  2 active torsions:
REMARK  status: ('A' for Active; 'I' for Inactive)
REMARK    1  A    between atoms: C_6  and  N_7 
REMARK    2  A    between atoms: N_7  and  C_8 
ROOT
HETATM    1  C   UNL     1      46.841 -30.310   4.257  1.00  0.00     0.093 C 
HETATM    2  C   UNL     1      46.698 -29.980   2.803  1.00  0.00     0.125 A 
HETATM    3  N   UNL     1      45.460 -29.939   2.304  1.00  0.00    -0.226 NA
HETATM    4  C   UNL     1      45.431 -29.614   1.004  1.00  0.00     0.114 A 
HETATM    5  C   UNL     1      46.529 -29.326   0.193  1.00  0.00     0.053 A 
HETATM    6  C   UNL     1      47.797 -29.403   0.812  1.00  0.00     0.143 A 
HETATM    7  N   UNL     1      47.835 -29.730   2.127  1.00  0.00    -0.215 NA
HETATM    8  S   UNL     1      43.927 -29.525   0.171  1.00  0.00    -0.073 SA
HETATM    9  C   UNL     1      44.713 -29.111  -1.243  1.00  0.00    -0.008 A 
HETATM   10  C   UNL     1      46.074 -29.023  -1.123  1.00  0.00    -0.028 A 
HETATM   11  C   UNL     1      46.688 -28.654  -2.426  1.00  0.00     0.041 C 
HETATM   12  C   UNL     1      45.455 -28.203  -3.269  1.00  0.00     0.010 C 
HETATM   13  C   UNL     1      44.196 -28.832  -2.601  1.00  0.00     0.047 C 
ENDROOT
BRANCH   6  14
HETATM   14  N   UNL     1      48.974 -29.127   0.100  1.00  0.00    -0.340 N 
HETATM   15  H   UNL     1      49.143 -28.141  -0.025  1.00  0.00     0.167 HD
BRANCH  14  16
HETATM   16  C   UNL     1      49.910 -29.952  -0.550  1.00  0.00     0.036 A 
HETATM   17  C   UNL     1      50.646 -30.864   0.230  1.00  0.00     0.069 A 
HETATM   18  C   UNL     1      51.554 -31.696  -0.392  1.00  0.00     0.107 A 
HETATM   19  C   UNL     1      51.754 -31.663  -1.750  1.00  0.00     0.105 A 
HETATM   20  O   UNL     1      52.339 -32.620   0.225  1.00  0.00    -0.323 OA
HETATM   21  O   UNL     1      52.690 -32.557  -2.160  1.00  0.00    -0.323 OA
HETATM   22  C   UNL     1      51.051 -30.799  -2.555  1.00  0.00     0.042 A 
HETATM   23  C   UNL     1      53.058 -33.162  -0.903  1.00  0.00     0.352 A 
HETATM   24  C   UNL     1      50.121 -29.946  -1.945  1.00  0.00     0.032 A 
ENDBRANCH  14  16
ENDBRANCH   6  14
TORSDOF 2
ENDMDL
MODEL 9
REMARK VINA RESULT:      -6.8      2.721      3.575
REMARK  2 active torsions:
REMARK  status: ('A' for Active; 'I' for Inactive)
REMARK    1  A    between atoms: C_6  and  N_7 
REMARK    2  A    between atoms: N_7  and  C_8 
ROOT
HETATM    1  C   UNL     1      43.482 -11.198   7.149  1.00  0.00     0.093 C 
HETATM    2  C   UNL     1      43.378 -12.294   6.133  1.00  0.00     0.125 A 
HETATM    3  N   UNL     1      43.559 -13.545   6.563  1.00  0.00    -0.226 NA
HETATM    4  C   UNL     1      43.424 -14.457   5.589  1.00  0.00     0.114 A 
HETATM    5  C   UNL     1      43.121 -14.206   4.251  1.00  0.00     0.053 A 
HETATM    6  C   UNL     1      42.955 -12.849   3.894  1.00  0.00     0.143 A 
HETATM    7  N   UNL     1      43.088 -11.921   4.873  1.00  0.00    -0.215 NA
HETATM    8  S   UNL     1      43.636 -16.129   5.938  1.00  0.00    -0.073 SA
HETATM    9  C   UNL     1      43.331 -16.519   4.344  1.00  0.00    -0.008 A 
HETATM   10  C   UNL     1      43.062 -15.442   3.544  1.00  0.00    -0.028 A 
HETATM   11  C   UNL     1      42.806 -15.883   2.148  1.00  0.00     0.041 C 
HETATM   12  C   UNL     1      42.630 -17.426   2.302  1.00  0.00     0.010 C 
HETATM   13  C   UNL     1      43.309 -17.825   3.646  1.00  0.00     0.047 C 
ENDROOT
BRANCH   6  14
HETATM   14  N   UNL     1      42.639 -12.475   2.579  1.00  0.00    -0.340 N 
HETATM   15  H   UNL     1      43.435 -12.144   2.056  1.00  0.00     0.167 HD
BRANCH  14  16
HETATM   16  C   UNL     1      41.421 -12.384   1.880  1.00  0.00     0.036 A 
HETATM   17  C   UNL     1      40.357 -11.692   2.488  1.00  0.00     0.069 A 
HETATM   18  C   UNL     1      39.160 -11.576   1.810  1.00  0.00     0.107 A 
HETATM   19  C   UNL     1      38.983 -12.109   0.557  1.00  0.00     0.105 A 
HETATM   20  O   UNL     1      38.045 -10.946   2.267  1.00  0.00    -0.323 OA
HETATM   21  O   UNL     1      37.736 -11.887   0.068  1.00  0.00    -0.323 OA
HETATM   22  C   UNL     1      39.996 -12.782  -0.083  1.00  0.00     0.042 A 
HETATM   23  C   UNL     1      37.146 -11.148   1.157  1.00  0.00     0.352 A 
HETATM   24  C   UNL     1      41.222 -12.912   0.587  1.00  0.00     0.032 A 
ENDBRANCH  14  16
ENDBRANCH   6  14
TORSDOF 2
ENDMDL
MODEL 10
REMARK VINA RESULT:      -6.8      4.598      7.140
REMARK  2 active torsions:
REMARK  status: ('A' for Active; 'I' for Inactive)
REMARK    1  A    between atoms: C_6  and  N_7 
REMARK    2  A    between atoms: N_7  and  C_8 
ROOT
HETATM    1  C   UNL     1      43.354 -16.911   6.893  1.00  0.00     0.093 C 
HETATM    2  C   UNL     1      43.028 -15.960   5.783  1.00  0.00     0.125 A 
HETATM    3  N   UNL     1      42.412 -16.462   4.709  1.00  0.00    -0.226 NA
HETATM    4  C   UNL     1      42.141 -15.534   3.781  1.00  0.00     0.114 A 
HETATM    5  C   UNL     1      42.431 -14.171   3.856  1.00  0.00     0.053 A 
HETATM    6  C   UNL     1      43.091 -13.739   5.029  1.00  0.00     0.143 A 
HETATM    7  N   UNL     1      43.367 -14.672   5.974  1.00  0.00    -0.215 NA
HETATM    8  S   UNL     1      41.363 -15.984   2.313  1.00  0.00    -0.073 SA
HETATM    9  C   UNL     1      41.407 -14.402   1.783  1.00  0.00    -0.008 A 
HETATM   10  C   UNL     1      41.977 -13.528   2.668  1.00  0.00    -0.028 A 
HETATM   11  C   UNL     1      41.975 -12.149   2.114  1.00  0.00     0.041 C 
HETATM   12  C   UNL     1      41.007 -12.272   0.895  1.00  0.00     0.010 C 
HETATM   13  C   UNL     1      40.944 -13.783   0.520  1.00  0.00     0.047 C 
ENDROOT
BRANCH   6  14
HETATM   14  N   UNL     1      43.427 -12.391   5.222  1.00  0.00    -0.340 N 
HETATM   15  H   UNL     1      43.212 -11.808   4.428  1.00  0.00     0.167 HD
BRANCH  14  16
HETATM   16  C   UNL     1      44.085 -11.713   6.264  1.00  0.00     0.036 A 
HETATM   17  C   UNL     1      43.312 -11.236   7.339  1.00  0.00     0.069 A 
HETATM   18  C   UNL     1      43.944 -10.586   8.381  1.00  0.00     0.107 A 
HETATM   19  C   UNL     1      45.303 -10.398   8.399  1.00  0.00     0.105 A 
HETATM   20  O   UNL     1      43.334 -10.067   9.480  1.00  0.00    -0.323 OA
HETATM   21  O   UNL     1      45.723  -9.736   9.508  1.00  0.00    -0.323 OA
HETATM   22  C   UNL     1      46.102 -10.856   7.378  1.00  0.00     0.042 A 
HETATM   23  C   UNL     1      44.469  -9.528  10.190  1.00  0.00     0.352 A 
HETATM   24  C   UNL     1      45.483 -11.522   6.310  1.00  0.00     0.032 A 
ENDBRANCH  14  16
ENDBRANCH   6  14
TORSDOF 2
ENDMDL
