MODEL 1
REMARK VINA RESULT:      -8.8      0.000      0.000
REMARK  4 active torsions:
REMARK  status: ('A' for Active; 'I' for Inactive)
REMARK    1  A    between atoms: O_2  and  C_3 
REMARK    2  A    between atoms: C_5  and  C_6 
REMARK    3  A    between atoms: C_10  and  C_11 
REMARK       I    between atoms: C_11  and  N_12 
REMARK    4  A    between atoms: N_12  and  N_13 
ROOT
HETATM    1  C   UNL     1      41.700 -13.633   3.448  1.00  0.00     0.289 C 
HETATM    2  N   UNL     1      41.018 -14.616   4.149  1.00  0.00    -0.241 N 
HETATM    3  O   UNL     1      42.645 -12.987   3.887  1.00  0.00    -0.264 OA
HETATM    4  H   UNL     1      40.338 -15.183   3.665  1.00  0.00     0.192 HD
ENDROOT
BRANCH   1   5
HETATM    5  C   UNL     1      41.172 -13.385   2.127  1.00  0.00     0.121 A 
HETATM    6  N   UNL     1      41.502 -12.258   1.428  1.00  0.00    -0.272 N 
HETATM    7  N   UNL     1      40.882 -12.145   0.242  1.00  0.00    -0.174 NA
HETATM    8  H   UNL     1      42.130 -11.518   1.730  1.00  0.00     0.189 HD
HETATM    9  C   UNL     1      40.149 -13.264   0.134  1.00  0.00     0.089 A 
HETATM   10  C   UNL     1      40.309 -14.070   1.296  1.00  0.00     0.071 A 
BRANCH   9  11
HETATM   11  C   UNL     1      39.305 -13.531  -1.035  1.00  0.00    -0.003 A 
HETATM   12  C   UNL     1      38.321 -12.605  -1.423  1.00  0.00     0.050 A 
HETATM   13  C   UNL     1      37.489 -12.862  -2.516  1.00  0.00     0.069 A 
HETATM   14  C   UNL     1      37.645 -14.053  -3.229  1.00  0.00     0.037 A 
HETATM   15  C   UNL     1      38.623 -14.975  -2.865  1.00  0.00     0.004 A 
HETATM   16  C   UNL     1      39.451 -14.716  -1.771  1.00  0.00     0.014 A 
BRANCH  13  17
HETATM   17  O   UNL     1      36.495 -12.045  -2.980  1.00  0.00    -0.356 OA
HETATM   18  C   UNL     1      36.757 -10.647  -2.967  1.00  0.00     0.210 C 
ENDBRANCH  13  17
ENDBRANCH   9  11
ENDBRANCH   1   5
BRANCH   2  19
HETATM   19  N   UNL     1      41.460 -15.051   5.361  1.00  0.00    -0.165 NA
HETATM   20  C   UNL     1      42.287 -16.048   5.395  1.00  0.00     0.157 A 
HETATM   21  C   UNL     1      43.002 -16.457   6.699  1.00  0.00     0.277 A 
HETATM   22  C   UNL     1      42.779 -16.979   4.366  1.00  0.00     0.027 A 
HETATM   23  O   UNL     1      42.841 -15.971   7.796  1.00  0.00    -0.266 OA
HETATM   24  N   UNL     1      43.870 -17.463   6.339  1.00  0.00    -0.321 N 
HETATM   25  C   UNL     1      43.740 -17.777   4.992  1.00  0.00     0.048 A 
HETATM   26  H   UNL     1      44.472 -17.923   7.006  1.00  0.00     0.169 HD
HETATM   27  C   UNL     1      44.420 -18.771   4.317  1.00  0.00     0.030 A 
HETATM   28  C   UNL     1      44.099 -18.973   2.973  1.00  0.00     0.002 A 
HETATM   29  C   UNL     1      43.105 -18.201   2.345  1.00  0.00     0.001 A 
HETATM   30  C   UNL     1      42.425 -17.198   3.046  1.00  0.00     0.016 A 
ENDBRANCH   2  19
TORSDOF 4
ENDMDL
MODEL 2
REMARK VINA RESULT:      -8.7      4.767      8.104
REMARK  4 active torsions:
REMARK  status: ('A' for Active; 'I' for Inactive)
REMARK    1  A    between atoms: O_2  and  C_3 
REMARK    2  A    between atoms: C_5  and  C_6 
REMARK    3  A    between atoms: C_10  and  C_11 
REMARK       I    between atoms: C_11  and  N_12 
REMARK    4  A    between atoms: N_12  and  N_13 
ROOT
HETATM    1  C   UNL     1      40.148 -12.332   6.003  1.00  0.00     0.289 C 
HETATM    2  N   UNL     1      41.183 -11.505   6.413  1.00  0.00    -0.241 N 
HETATM    3  O   UNL     1      38.974 -12.202   6.332  1.00  0.00    -0.264 OA
HETATM    4  H   UNL     1      42.094 -11.610   5.992  1.00  0.00     0.192 HD
ENDROOT
BRANCH   1   5
HETATM    5  C   UNL     1      40.573 -13.426   5.162  1.00  0.00     0.121 A 
HETATM    6  N   UNL     1      39.907 -13.740   4.011  1.00  0.00    -0.272 N 
HETATM    7  N   UNL     1      40.390 -14.819   3.373  1.00  0.00    -0.174 NA
HETATM    8  H   UNL     1      39.096 -13.261   3.628  1.00  0.00     0.189 HD
HETATM    9  C   UNL     1      41.444 -15.206   4.109  1.00  0.00     0.089 A 
HETATM   10  C   UNL     1      41.594 -14.352   5.238  1.00  0.00     0.071 A 
BRANCH   9  11
HETATM   11  C   UNL     1      42.258 -16.371   3.750  1.00  0.00    -0.003 A 
HETATM   12  C   UNL     1      42.880 -17.135   4.753  1.00  0.00     0.050 A 
HETATM   13  C   UNL     1      43.683 -18.229   4.422  1.00  0.00     0.069 A 
HETATM   14  C   UNL     1      43.865 -18.564   3.079  1.00  0.00     0.037 A 
HETATM   15  C   UNL     1      43.246 -17.824   2.073  1.00  0.00     0.004 A 
HETATM   16  C   UNL     1      42.445 -16.731   2.407  1.00  0.00     0.014 A 
BRANCH  13  17
HETATM   17  O   UNL     1      44.345 -19.038   5.306  1.00  0.00    -0.356 OA
HETATM   18  C   UNL     1      44.124 -20.438   5.179  1.00  0.00     0.210 C 
ENDBRANCH  13  17
ENDBRANCH   9  11
ENDBRANCH   1   5
BRANCH   2  19
HETATM   19  N   UNL     1      40.935 -10.364   7.113  1.00  0.00    -0.165 NA
HETATM   20  C   UNL     1      41.943  -9.695   7.579  1.00  0.00     0.157 A 
HETATM   21  C   UNL     1      41.764  -8.288   8.186  1.00  0.00     0.277 A 
HETATM   22  C   UNL     1      43.386  -9.979   7.660  1.00  0.00     0.027 A 
HETATM   23  O   UNL     1      40.720  -7.698   8.352  1.00  0.00    -0.266 OA
HETATM   24  N   UNL     1      43.037  -7.848   8.468  1.00  0.00    -0.321 N 
HETATM   25  C   UNL     1      43.980  -8.825   8.175  1.00  0.00     0.048 A 
HETATM   26  H   UNL     1      43.220  -6.944   8.880  1.00  0.00     0.169 HD
HETATM   27  C   UNL     1      45.342  -8.733   8.384  1.00  0.00     0.030 A 
HETATM   28  C   UNL     1      46.117  -9.855   8.082  1.00  0.00     0.002 A 
HETATM   29  C   UNL     1      45.522 -11.034   7.602  1.00  0.00     0.001 A 
HETATM   30  C   UNL     1      44.139 -11.109   7.396  1.00  0.00     0.016 A 
ENDBRANCH   2  19
TORSDOF 4
ENDMDL
MODEL 3
REMARK VINA RESULT:      -8.5      6.421     10.435
REMARK  4 active torsions:
REMARK  status: ('A' for Active; 'I' for Inactive)
REMARK    1  A    between atoms: O_2  and  C_3 
REMARK    2  A    between atoms: C_5  and  C_6 
REMARK    3  A    between atoms: C_10  and  C_11 
REMARK       I    between atoms: C_11  and  N_12 
REMARK    4  A    between atoms: N_12  and  N_13 
ROOT
HETATM    1  C   UNL     1      44.674 -11.101   7.150  1.00  0.00     0.289 C 
HETATM    2  N   UNL     1      43.471 -11.358   6.511  1.00  0.00    -0.241 N 
HETATM    3  O   UNL     1      45.781 -11.357   6.690  1.00  0.00    -0.264 OA
HETATM    4  H   UNL     1      42.616 -10.997   6.907  1.00  0.00     0.192 HD
ENDROOT
BRANCH   1   5
HETATM    5  C   UNL     1      44.525 -10.525   8.465  1.00  0.00     0.121 A 
HETATM    6  N   UNL     1      45.608 -10.105   9.187  1.00  0.00    -0.272 N 
HETATM    7  N   UNL     1      45.308  -9.650  10.414  1.00  0.00    -0.174 NA
HETATM    8  H   UNL     1      46.581 -10.133   8.893  1.00  0.00     0.189 HD
HETATM    9  C   UNL     1      43.970  -9.729  10.488  1.00  0.00     0.089 A 
HETATM   10  C   UNL     1      43.442 -10.269   9.282  1.00  0.00     0.071 A 
BRANCH   9  11
HETATM   11  C   UNL     1      43.233  -9.324  11.689  1.00  0.00    -0.003 A 
HETATM   12  C   UNL     1      42.110 -10.058  12.110  1.00  0.00     0.050 A 
HETATM   13  C   UNL     1      41.380  -9.665  13.235  1.00  0.00     0.069 A 
HETATM   14  C   UNL     1      41.777  -8.530  13.946  1.00  0.00     0.037 A 
HETATM   15  C   UNL     1      42.894  -7.799  13.549  1.00  0.00     0.004 A 
HETATM   16  C   UNL     1      43.620  -8.194  12.424  1.00  0.00     0.014 A 
BRANCH  13  17
HETATM   17  O   UNL     1      40.269 -10.289  13.733  1.00  0.00    -0.356 OA
HETATM   18  C   UNL     1      39.321 -10.761  12.782  1.00  0.00     0.210 C 
ENDBRANCH  13  17
ENDBRANCH   9  11
ENDBRANCH   1   5
BRANCH   2  19
HETATM   19  N   UNL     1      43.438 -11.791   5.221  1.00  0.00    -0.165 NA
HETATM   20  C   UNL     1      43.149 -13.035   4.994  1.00  0.00     0.157 A 
HETATM   21  C   UNL     1      42.876 -13.551   3.567  1.00  0.00     0.277 A 
HETATM   22  C   UNL     1      42.980 -14.202   5.875  1.00  0.00     0.027 A 
HETATM   23  O   UNL     1      42.957 -12.916   2.539  1.00  0.00    -0.266 OA
HETATM   24  N   UNL     1      42.500 -14.866   3.720  1.00  0.00    -0.321 N 
HETATM   25  C   UNL     1      42.567 -15.253   5.053  1.00  0.00     0.048 A 
HETATM   26  H   UNL     1      42.261 -15.456   2.937  1.00  0.00     0.169 HD
HETATM   27  C   UNL     1      42.307 -16.514   5.550  1.00  0.00     0.030 A 
HETATM   28  C   UNL     1      42.494 -16.719   6.919  1.00  0.00     0.002 A 
HETATM   29  C   UNL     1      42.949 -15.678   7.747  1.00  0.00     0.001 A 
HETATM   30  C   UNL     1      43.208 -14.405   7.225  1.00  0.00     0.016 A 
ENDBRANCH   2  19
TORSDOF 4
ENDMDL
MODEL 4
REMARK VINA RESULT:      -8.5      1.501      2.039
REMARK  4 active torsions:
REMARK  status: ('A' for Active; 'I' for Inactive)
REMARK    1  A    between atoms: O_2  and  C_3 
REMARK    2  A    between atoms: C_5  and  C_6 
REMARK    3  A    between atoms: C_10  and  C_11 
REMARK       I    between atoms: C_11  and  N_12 
REMARK    4  A    between atoms: N_12  and  N_13 
ROOT
HETATM    1  C   UNL     1      42.568 -12.613   4.203  1.00  0.00     0.289 C 
HETATM    2  N   UNL     1      41.837 -13.712   4.630  1.00  0.00    -0.241 N 
HETATM    3  O   UNL     1      43.444 -12.058   4.856  1.00  0.00    -0.264 OA
HETATM    4  H   UNL     1      41.227 -14.181   3.978  1.00  0.00     0.192 HD
ENDROOT
BRANCH   1   5
HETATM    5  C   UNL     1      42.181 -12.125   2.901  1.00  0.00     0.121 A 
HETATM    6  N   UNL     1      42.428 -10.836   2.521  1.00  0.00    -0.272 N 
HETATM    7  N   UNL     1      41.953 -10.520   1.305  1.00  0.00    -0.174 NA
HETATM    8  H   UNL     1      42.897 -10.120   3.070  1.00  0.00     0.189 HD
HETATM    9  C   UNL     1      41.412 -11.659   0.845  1.00  0.00     0.089 A 
HETATM   10  C   UNL     1      41.540 -12.691   1.817  1.00  0.00     0.071 A 
BRANCH   9  11
HETATM   11  C   UNL     1      40.771 -11.740  -0.471  1.00  0.00    -0.003 A 
HETATM   12  C   UNL     1      39.726 -12.654  -0.694  1.00  0.00     0.050 A 
HETATM   13  C   UNL     1      39.128 -12.763  -1.952  1.00  0.00     0.069 A 
HETATM   14  C   UNL     1      39.577 -11.951  -2.995  1.00  0.00     0.037 A 
HETATM   15  C   UNL     1      40.603 -11.031  -2.788  1.00  0.00     0.004 A 
HETATM   16  C   UNL     1      41.198 -10.926  -1.530  1.00  0.00     0.014 A 
BRANCH  13  17
HETATM   17  O   UNL     1      38.116 -13.619  -2.290  1.00  0.00    -0.356 OA
HETATM   18  C   UNL     1      38.427 -14.635  -3.236  1.00  0.00     0.210 C 
ENDBRANCH  13  17
ENDBRANCH   9  11
ENDBRANCH   1   5
BRANCH   2  19
HETATM   19  N   UNL     1      42.155 -14.363   5.782  1.00  0.00    -0.165 NA
HETATM   20  C   UNL     1      42.738 -15.518   5.698  1.00  0.00     0.157 A 
HETATM   21  C   UNL     1      43.327 -16.215   6.942  1.00  0.00     0.277 A 
HETATM   22  C   UNL     1      43.024 -16.418   4.568  1.00  0.00     0.027 A 
HETATM   23  O   UNL     1      43.264 -15.828   8.087  1.00  0.00    -0.266 OA
HETATM   24  N   UNL     1      43.953 -17.344   6.465  1.00  0.00    -0.321 N 
HETATM   25  C   UNL     1      43.774 -17.473   5.093  1.00  0.00     0.048 A 
HETATM   26  H   UNL     1      44.429 -17.997   7.070  1.00  0.00     0.169 HD
HETATM   27  C   UNL     1      44.225 -18.514   4.306  1.00  0.00     0.030 A 
HETATM   28  C   UNL     1      43.885 -18.491   2.951  1.00  0.00     0.002 A 
HETATM   29  C   UNL     1      43.096 -17.454   2.423  1.00  0.00     0.001 A 
HETATM   30  C   UNL     1      42.647 -16.407   3.237  1.00  0.00     0.016 A 
ENDBRANCH   2  19
TORSDOF 4
ENDMDL
MODEL 5
REMARK VINA RESULT:      -8.4      2.356      8.542
REMARK  4 active torsions:
REMARK  status: ('A' for Active; 'I' for Inactive)
REMARK    1  A    between atoms: O_2  and  C_3 
REMARK    2  A    between atoms: C_5  and  C_6 
REMARK    3  A    between atoms: C_10  and  C_11 
REMARK       I    between atoms: C_11  and  N_12 
REMARK    4  A    between atoms: N_12  and  N_13 
ROOT
HETATM    1  C   UNL     1      40.344 -12.892   2.002  1.00  0.00     0.289 C 
HETATM    2  N   UNL     1      40.627 -12.078   0.915  1.00  0.00    -0.241 N 
HETATM    3  O   UNL     1      39.365 -12.774   2.731  1.00  0.00    -0.264 OA
HETATM    4  H   UNL     1      41.384 -12.327   0.298  1.00  0.00     0.192 HD
ENDROOT
BRANCH   1   5
HETATM    5  C   UNL     1      41.345 -13.902   2.250  1.00  0.00     0.121 A 
HETATM    6  N   UNL     1      42.453 -14.018   1.459  1.00  0.00    -0.272 N 
HETATM    7  N   UNL     1      43.256 -15.044   1.783  1.00  0.00    -0.174 NA
HETATM    8  H   UNL     1      42.695 -13.432   0.664  1.00  0.00     0.189 HD
HETATM    9  C   UNL     1      42.679 -15.601   2.859  1.00  0.00     0.089 A 
HETATM   10  C   UNL     1      41.479 -14.909   3.186  1.00  0.00     0.071 A 
BRANCH   9  11
HETATM   11  C   UNL     1      43.250 -16.773   3.529  1.00  0.00    -0.003 A 
HETATM   12  C   UNL     1      43.408 -17.981   2.827  1.00  0.00     0.050 A 
HETATM   13  C   UNL     1      43.923 -19.114   3.463  1.00  0.00     0.069 A 
HETATM   14  C   UNL     1      44.284 -19.039   4.809  1.00  0.00     0.037 A 
HETATM   15  C   UNL     1      44.145 -17.846   5.516  1.00  0.00     0.004 A 
HETATM   16  C   UNL     1      43.630 -16.717   4.878  1.00  0.00     0.014 A 
BRANCH  13  17
HETATM   17  O   UNL     1      44.113 -20.342   2.890  1.00  0.00    -0.356 OA
HETATM   18  C   UNL     1      43.499 -20.559   1.625  1.00  0.00     0.210 C 
ENDBRANCH  13  17
ENDBRANCH   9  11
ENDBRANCH   1   5
BRANCH   2  19
HETATM   19  N   UNL     1      39.729 -11.153   0.478  1.00  0.00    -0.165 NA
HETATM   20  C   UNL     1      38.915 -11.485  -0.476  1.00  0.00     0.157 A 
HETATM   21  C   UNL     1      37.732 -10.581  -0.875  1.00  0.00     0.277 A 
HETATM   22  C   UNL     1      38.828 -12.662  -1.356  1.00  0.00     0.027 A 
HETATM   23  O   UNL     1      37.469  -9.488  -0.424  1.00  0.00    -0.266 OA
HETATM   24  N   UNL     1      37.034 -11.291  -1.825  1.00  0.00    -0.321 N 
HETATM   25  C   UNL     1      37.668 -12.493  -2.116  1.00  0.00     0.048 A 
HETATM   26  H   UNL     1      36.201 -10.932  -2.269  1.00  0.00     0.169 HD
HETATM   27  C   UNL     1      37.267 -13.421  -3.056  1.00  0.00     0.030 A 
HETATM   28  C   UNL     1      38.080 -14.541  -3.245  1.00  0.00     0.002 A 
HETATM   29  C   UNL     1      39.270 -14.699  -2.513  1.00  0.00     0.001 A 
HETATM   30  C   UNL     1      39.661 -13.747  -1.564  1.00  0.00     0.016 A 
ENDBRANCH   2  19
TORSDOF 4
ENDMDL
MODEL 6
REMARK VINA RESULT:      -8.1      2.494      9.119
REMARK  4 active torsions:
REMARK  status: ('A' for Active; 'I' for Inactive)
REMARK    1  A    between atoms: O_2  and  C_3 
REMARK    2  A    between atoms: C_5  and  C_6 
REMARK    3  A    between atoms: C_10  and  C_11 
REMARK       I    between atoms: C_11  and  N_12 
REMARK    4  A    between atoms: N_12  and  N_13 
ROOT
HETATM    1  C   UNL     1      39.446 -14.200  -0.552  1.00  0.00     0.289 C 
HETATM    2  N   UNL     1      38.799 -13.017  -0.224  1.00  0.00    -0.241 N 
HETATM    3  O   UNL     1      39.190 -14.890  -1.532  1.00  0.00    -0.264 OA
HETATM    4  H   UNL     1      39.160 -12.451   0.528  1.00  0.00     0.192 HD
ENDROOT
BRANCH   1   5
HETATM    5  C   UNL     1      40.453 -14.598   0.402  1.00  0.00     0.121 A 
HETATM    6  N   UNL     1      41.533 -13.805   0.670  1.00  0.00    -0.272 N 
HETATM    7  N   UNL     1      42.410 -14.343   1.534  1.00  0.00    -0.174 NA
HETATM    8  H   UNL     1      41.732 -12.893   0.268  1.00  0.00     0.189 HD
HETATM    9  C   UNL     1      41.864 -15.518   1.884  1.00  0.00     0.089 A 
HETATM   10  C   UNL     1      40.632 -15.712   1.198  1.00  0.00     0.071 A 
BRANCH   9  11
HETATM   11  C   UNL     1      42.520 -16.431   2.825  1.00  0.00    -0.003 A 
HETATM   12  C   UNL     1      42.465 -16.180   4.208  1.00  0.00     0.050 A 
HETATM   13  C   UNL     1      43.112 -17.025   5.113  1.00  0.00     0.069 A 
HETATM   14  C   UNL     1      43.818 -18.130   4.633  1.00  0.00     0.037 A 
HETATM   15  C   UNL     1      43.871 -18.400   3.267  1.00  0.00     0.004 A 
HETATM   16  C   UNL     1      43.225 -17.553   2.366  1.00  0.00     0.014 A 
BRANCH  13  17
HETATM   17  O   UNL     1      43.139 -16.879   6.473  1.00  0.00    -0.356 OA
HETATM   18  C   UNL     1      42.090 -16.112   7.054  1.00  0.00     0.210 C 
ENDBRANCH  13  17
ENDBRANCH   9  11
ENDBRANCH   1   5
BRANCH   2  19
HETATM   19  N   UNL     1      37.906 -12.444  -1.077  1.00  0.00    -0.165 NA
HETATM   20  C   UNL     1      38.316 -11.484  -1.847  1.00  0.00     0.157 A 
HETATM   21  C   UNL     1      37.435 -10.936  -2.988  1.00  0.00     0.277 A 
HETATM   22  C   UNL     1      39.571 -10.717  -1.913  1.00  0.00     0.027 A 
HETATM   23  O   UNL     1      36.300 -11.265  -3.250  1.00  0.00    -0.266 OA
HETATM   24  N   UNL     1      38.223 -10.021  -3.649  1.00  0.00    -0.321 N 
HETATM   25  C   UNL     1      39.457  -9.882  -3.027  1.00  0.00     0.048 A 
HETATM   26  H   UNL     1      37.894  -9.501  -4.449  1.00  0.00     0.169 HD
HETATM   27  C   UNL     1      40.465  -9.015  -3.398  1.00  0.00     0.030 A 
HETATM   28  C   UNL     1      41.611  -8.979  -2.601  1.00  0.00     0.002 A 
HETATM   29  C   UNL     1      41.717  -9.787  -1.455  1.00  0.00     0.001 A 
HETATM   30  C   UNL     1      40.685 -10.661  -1.093  1.00  0.00     0.016 A 
ENDBRANCH   2  19
TORSDOF 4
ENDMDL
MODEL 7
REMARK VINA RESULT:      -8.0      5.556      9.022
REMARK  4 active torsions:
REMARK  status: ('A' for Active; 'I' for Inactive)
REMARK    1  A    between atoms: O_2  and  C_3 
REMARK    2  A    between atoms: C_5  and  C_6 
REMARK    3  A    between atoms: C_10  and  C_11 
REMARK       I    between atoms: C_11  and  N_12 
REMARK    4  A    between atoms: N_12  and  N_13 
ROOT
HETATM    1  C   UNL     1      43.529 -11.806   4.876  1.00  0.00     0.289 C 
HETATM    2  N   UNL     1      42.825 -12.989   4.706  1.00  0.00    -0.241 N 
HETATM    3  O   UNL     1      44.050 -11.164   3.971  1.00  0.00    -0.264 OA
HETATM    4  H   UNL     1      42.323 -13.380   5.488  1.00  0.00     0.192 HD
ENDROOT
BRANCH   1   5
HETATM    5  C   UNL     1      43.645 -11.389   6.253  1.00  0.00     0.121 A 
HETATM    6  N   UNL     1      44.431 -12.069   7.140  1.00  0.00    -0.272 N 
HETATM    7  N   UNL     1      44.385 -11.592   8.394  1.00  0.00    -0.174 NA
HETATM    8  H   UNL     1      45.003 -12.886   6.942  1.00  0.00     0.189 HD
HETATM    9  C   UNL     1      43.570 -10.527   8.323  1.00  0.00     0.089 A 
HETATM   10  C   UNL     1      43.089 -10.364   6.993  1.00  0.00     0.071 A 
BRANCH   9  11
HETATM   11  C   UNL     1      43.248  -9.715   9.500  1.00  0.00    -0.003 A 
HETATM   12  C   UNL     1      41.986  -9.105   9.614  1.00  0.00     0.050 A 
HETATM   13  C   UNL     1      41.676  -8.303  10.715  1.00  0.00     0.069 A 
HETATM   14  C   UNL     1      42.635  -8.111  11.712  1.00  0.00     0.037 A 
HETATM   15  C   UNL     1      43.886  -8.717  11.621  1.00  0.00     0.004 A 
HETATM   16  C   UNL     1      44.192  -9.517  10.518  1.00  0.00     0.014 A 
BRANCH  13  17
HETATM   17  O   UNL     1      40.492  -7.653  10.930  1.00  0.00    -0.356 OA
HETATM   18  C   UNL     1      40.272  -7.141  12.240  1.00  0.00     0.210 C 
ENDBRANCH  13  17
ENDBRANCH   9  11
ENDBRANCH   1   5
BRANCH   2  19
HETATM   19  N   UNL     1      42.527 -13.457   3.463  1.00  0.00    -0.165 NA
HETATM   20  C   UNL     1      42.663 -14.726   3.231  1.00  0.00     0.157 A 
HETATM   21  C   UNL     1      42.141 -15.367   1.930  1.00  0.00     0.277 A 
HETATM   22  C   UNL     1      43.246 -15.831   4.010  1.00  0.00     0.027 A 
HETATM   23  O   UNL     1      41.630 -14.794   0.993  1.00  0.00    -0.266 OA
HETATM   24  N   UNL     1      42.356 -16.719   2.077  1.00  0.00    -0.321 N 
HETATM   25  C   UNL     1      43.004 -16.994   3.275  1.00  0.00     0.048 A 
HETATM   26  H   UNL     1      42.106 -17.389   1.364  1.00  0.00     0.169 HD
HETATM   27  C   UNL     1      43.415 -18.236   3.713  1.00  0.00     0.030 A 
HETATM   28  C   UNL     1      44.112 -18.296   4.922  1.00  0.00     0.002 A 
HETATM   29  C   UNL     1      44.396 -17.125   5.648  1.00  0.00     0.001 A 
HETATM   30  C   UNL     1      43.971 -15.873   5.188  1.00  0.00     0.016 A 
ENDBRANCH   2  19
TORSDOF 4
ENDMDL
MODEL 8
REMARK VINA RESULT:      -7.9      2.755      3.296
REMARK  4 active torsions:
REMARK  status: ('A' for Active; 'I' for Inactive)
REMARK    1  A    between atoms: O_2  and  C_3 
REMARK    2  A    between atoms: C_5  and  C_6 
REMARK    3  A    between atoms: C_10  and  C_11 
REMARK       I    between atoms: C_11  and  N_12 
REMARK    4  A    between atoms: N_12  and  N_13 
ROOT
HETATM    1  C   UNL     1      40.275 -13.317   4.266  1.00  0.00     0.289 C 
HETATM    2  N   UNL     1      41.318 -14.228   4.322  1.00  0.00    -0.241 N 
HETATM    3  O   UNL     1      39.530 -13.046   5.201  1.00  0.00    -0.264 OA
HETATM    4  H   UNL     1      41.958 -14.293   3.544  1.00  0.00     0.192 HD
ENDROOT
BRANCH   1   5
HETATM    5  C   UNL     1      40.094 -12.716   2.966  1.00  0.00     0.121 A 
HETATM    6  N   UNL     1      38.978 -12.961   2.216  1.00  0.00    -0.272 N 
HETATM    7  N   UNL     1      38.988 -12.377   1.007  1.00  0.00    -0.174 NA
HETATM    8  H   UNL     1      38.188 -13.545   2.477  1.00  0.00     0.189 HD
HETATM    9  C   UNL     1      40.136 -11.681   0.976  1.00  0.00     0.089 A 
HETATM   10  C   UNL     1      40.855 -11.865   2.190  1.00  0.00     0.071 A 
BRANCH   9  11
HETATM   11  C   UNL     1      40.534 -10.891  -0.193  1.00  0.00    -0.003 A 
HETATM   12  C   UNL     1      41.705 -10.113  -0.155  1.00  0.00     0.050 A 
HETATM   13  C   UNL     1      42.080  -9.331  -1.251  1.00  0.00     0.069 A 
HETATM   14  C   UNL     1      41.280  -9.329  -2.395  1.00  0.00     0.037 A 
HETATM   15  C   UNL     1      40.123 -10.104  -2.454  1.00  0.00     0.004 A 
HETATM   16  C   UNL     1      39.751 -10.882  -1.357  1.00  0.00     0.014 A 
BRANCH  13  17
HETATM   17  O   UNL     1      43.186  -8.530  -1.327  1.00  0.00    -0.356 OA
HETATM   18  C   UNL     1      42.972  -7.130  -1.183  1.00  0.00     0.210 C 
ENDBRANCH  13  17
ENDBRANCH   9  11
ENDBRANCH   1   5
BRANCH   2  19
HETATM   19  N   UNL     1      41.695 -14.795   5.501  1.00  0.00    -0.165 NA
HETATM   20  C   UNL     1      42.395 -15.885   5.467  1.00  0.00     0.157 A 
HETATM   21  C   UNL     1      43.045 -16.465   6.740  1.00  0.00     0.277 A 
HETATM   22  C   UNL     1      42.781 -16.796   4.376  1.00  0.00     0.027 A 
HETATM   23  O   UNL     1      42.935 -16.040   7.868  1.00  0.00    -0.266 OA
HETATM   24  N   UNL     1      43.788 -17.542   6.312  1.00  0.00    -0.321 N 
HETATM   25  C   UNL     1      43.633 -17.745   4.946  1.00  0.00     0.048 A 
HETATM   26  H   UNL     1      44.325 -18.116   6.945  1.00  0.00     0.169 HD
HETATM   27  C   UNL     1      44.195 -18.765   4.204  1.00  0.00     0.030 A 
HETATM   28  C   UNL     1      43.863 -18.834   2.849  1.00  0.00     0.002 A 
HETATM   29  C   UNL     1      42.975 -17.907   2.277  1.00  0.00     0.001 A 
HETATM   30  C   UNL     1      42.414 -16.880   3.045  1.00  0.00     0.016 A 
ENDBRANCH   2  19
TORSDOF 4
ENDMDL
MODEL 9
REMARK VINA RESULT:      -7.8      2.833      8.897
REMARK  4 active torsions:
REMARK  status: ('A' for Active; 'I' for Inactive)
REMARK    1  A    between atoms: O_2  and  C_3 
REMARK    2  A    between atoms: C_5  and  C_6 
REMARK    3  A    between atoms: C_10  and  C_11 
REMARK       I    between atoms: C_11  and  N_12 
REMARK    4  A    between atoms: N_12  and  N_13 
ROOT
HETATM    1  C   UNL     1      39.047 -12.533   2.775  1.00  0.00     0.289 C 
HETATM    2  N   UNL     1      38.194 -12.482   1.682  1.00  0.00    -0.241 N 
HETATM    3  O   UNL     1      39.189 -11.635   3.596  1.00  0.00    -0.264 OA
HETATM    4  H   UNL     1      38.047 -13.316   1.133  1.00  0.00     0.192 HD
ENDROOT
BRANCH   1   5
HETATM    5  C   UNL     1      39.816 -13.752   2.859  1.00  0.00     0.121 A 
HETATM    6  N   UNL     1      39.374 -14.914   2.291  1.00  0.00    -0.272 N 
HETATM    7  N   UNL     1      40.173 -15.971   2.508  1.00  0.00    -0.174 NA
HETATM    8  H   UNL     1      38.515 -15.044   1.762  1.00  0.00     0.189 HD
HETATM    9  C   UNL     1      41.206 -15.478   3.209  1.00  0.00     0.089 A 
HETATM   10  C   UNL     1      41.021 -14.087   3.445  1.00  0.00     0.071 A 
BRANCH   9  11
HETATM   11  C   UNL     1      42.317 -16.324   3.658  1.00  0.00    -0.003 A 
HETATM   12  C   UNL     1      42.682 -17.462   2.917  1.00  0.00     0.050 A 
HETATM   13  C   UNL     1      43.718 -18.294   3.350  1.00  0.00     0.069 A 
HETATM   14  C   UNL     1      44.396 -17.984   4.530  1.00  0.00     0.037 A 
HETATM   15  C   UNL     1      44.055 -16.853   5.269  1.00  0.00     0.004 A 
HETATM   16  C   UNL     1      43.019 -16.026   4.834  1.00  0.00     0.014 A 
BRANCH  13  17
HETATM   17  O   UNL     1      44.154 -19.429   2.723  1.00  0.00    -0.356 OA
HETATM   18  C   UNL     1      43.181 -20.175   2.001  1.00  0.00     0.210 C 
ENDBRANCH  13  17
ENDBRANCH   9  11
ENDBRANCH   1   5
BRANCH   2  19
HETATM   19  N   UNL     1      37.316 -11.454   1.523  1.00  0.00    -0.165 NA
HETATM   20  C   UNL     1      37.287 -10.838   0.383  1.00  0.00     0.157 A 
HETATM   21  C   UNL     1      36.180  -9.818   0.047  1.00  0.00     0.277 A 
HETATM   22  C   UNL     1      38.144 -10.899  -0.814  1.00  0.00     0.027 A 
HETATM   23  O   UNL     1      35.295  -9.440   0.782  1.00  0.00    -0.266 OA
HETATM   24  N   UNL     1      36.402  -9.458  -1.263  1.00  0.00    -0.321 N 
HETATM   25  C   UNL     1      37.542 -10.072  -1.765  1.00  0.00     0.048 A 
HETATM   26  H   UNL     1      35.818  -8.791  -1.748  1.00  0.00     0.169 HD
HETATM   27  C   UNL     1      38.079  -9.892  -3.024  1.00  0.00     0.030 A 
HETATM   28  C   UNL     1      39.273 -10.555  -3.316  1.00  0.00     0.002 A 
HETATM   29  C   UNL     1      39.907 -11.357  -2.350  1.00  0.00     0.001 A 
HETATM   30  C   UNL     1      39.348 -11.528  -1.078  1.00  0.00     0.016 A 
ENDBRANCH   2  19
TORSDOF 4
ENDMDL
MODEL 10
REMARK VINA RESULT:      -7.7      2.825      8.986
REMARK  4 active torsions:
REMARK  status: ('A' for Active; 'I' for Inactive)
REMARK    1  A    between atoms: O_2  and  C_3 
REMARK    2  A    between atoms: C_5  and  C_6 
REMARK    3  A    between atoms: C_10  and  C_11 
REMARK       I    between atoms: C_11  and  N_12 
REMARK    4  A    between atoms: N_12  and  N_13 
ROOT
HETATM    1  C   UNL     1      39.562 -13.981  -0.197  1.00  0.00     0.289 C 
HETATM    2  N   UNL     1      38.743 -12.899   0.088  1.00  0.00    -0.241 N 
HETATM    3  O   UNL     1      39.670 -14.508  -1.298  1.00  0.00    -0.264 OA
HETATM    4  H   UNL     1      38.814 -12.451   0.989  1.00  0.00     0.192 HD
ENDROOT
BRANCH   1   5
HETATM    5  C   UNL     1      40.275 -14.490   0.950  1.00  0.00     0.121 A 
HETATM    6  N   UNL     1      40.150 -13.912   2.182  1.00  0.00    -0.272 N 
HETATM    7  N   UNL     1      40.924 -14.464   3.131  1.00  0.00    -0.174 NA
HETATM    8  H   UNL     1      39.564 -13.117   2.423  1.00  0.00     0.189 HD
HETATM    9  C   UNL     1      41.552 -15.476   2.511  1.00  0.00     0.089 A 
HETATM   10  C   UNL     1      41.167 -15.528   1.141  1.00  0.00     0.071 A 
BRANCH   9  11
HETATM   11  C   UNL     1      42.507 -16.342   3.208  1.00  0.00    -0.003 A 
HETATM   12  C   UNL     1      42.772 -17.636   2.724  1.00  0.00     0.050 A 
HETATM   13  C   UNL     1      43.657 -18.482   3.397  1.00  0.00     0.069 A 
HETATM   14  C   UNL     1      44.284 -18.032   4.560  1.00  0.00     0.037 A 
HETATM   15  C   UNL     1      44.043 -16.748   5.045  1.00  0.00     0.004 A 
HETATM   16  C   UNL     1      43.157 -15.906   4.372  1.00  0.00     0.014 A 
BRANCH  13  17
HETATM   17  O   UNL     1      43.984 -19.759   3.030  1.00  0.00    -0.356 OA
HETATM   18  C   UNL     1      43.379 -20.259   1.843  1.00  0.00     0.210 C 
ENDBRANCH  13  17
ENDBRANCH   9  11
ENDBRANCH   1   5
BRANCH   2  19
HETATM   19  N   UNL     1      38.093 -12.229  -0.904  1.00  0.00    -0.165 NA
HETATM   20  C   UNL     1      38.675 -11.202  -1.440  1.00  0.00     0.157 A 
HETATM   21  C   UNL     1      38.111 -10.529  -2.708  1.00  0.00     0.277 A 
HETATM   22  C   UNL     1      39.896 -10.451  -1.103  1.00  0.00     0.027 A 
HETATM   23  O   UNL     1      37.086 -10.813  -3.285  1.00  0.00    -0.266 OA
HETATM   24  N   UNL     1      39.032  -9.563  -3.047  1.00  0.00    -0.321 N 
HETATM   25  C   UNL     1      40.063  -9.506  -2.118  1.00  0.00     0.048 A 
HETATM   26  H   UNL     1      38.914  -8.960  -3.848  1.00  0.00     0.169 HD
HETATM   27  C   UNL     1      41.121  -8.620  -2.127  1.00  0.00     0.030 A 
HETATM   28  C   UNL     1      42.023  -8.683  -1.063  1.00  0.00     0.002 A 
HETATM   29  C   UNL     1      41.840  -9.603  -0.016  1.00  0.00     0.001 A 
HETATM   30  C   UNL     1      40.760 -10.494  -0.023  1.00  0.00     0.016 A 
ENDBRANCH   2  19
TORSDOF 4
ENDMDL
