MODEL 1
REMARK VINA RESULT:      -8.5      0.000      0.000
REMARK  5 active torsions:
REMARK  status: ('A' for Active; 'I' for Inactive)
REMARK    1  A    between atoms: C_2  and  C_3 
REMARK    2  A    between atoms: C_2  and  C_19 
REMARK       I    between atoms: C_3  and  N_4 
REMARK    3  A    between atoms: N_4  and  C_5 
REMARK    4  A    between atoms: C_8  and  O_9 
REMARK    5  A    between atoms: O_9  and  C_10 
ROOT
HETATM    1  C   UNL     1      43.010 -16.001   4.465  1.00  0.00     0.234 C 
HETATM    2  N   UNL     1      41.652 -16.032   4.181  1.00  0.00    -0.325 N 
HETATM    3  O   UNL     1      43.824 -15.272   3.904  1.00  0.00    -0.272 OA
HETATM    4  H   UNL     1      41.074 -16.599   4.790  1.00  0.00     0.169 HD
ENDROOT
BRANCH   2   5
HETATM    5  C   UNL     1      40.977 -15.298   3.185  1.00  0.00     0.052 A 
HETATM    6  C   UNL     1      40.387 -14.050   3.364  1.00  0.00     0.149 A 
HETATM    7  N   UNL     1      39.760 -13.356   2.379  1.00  0.00    -0.235 NA
HETATM    8  C   UNL     1      39.719 -13.927   1.158  1.00  0.00     0.169 A 
HETATM    9  C   UNL     1      40.261 -15.170   0.879  1.00  0.00     0.060 A 
HETATM   10  C   UNL     1      40.904 -15.860   1.907  1.00  0.00     0.035 A 
BRANCH   8  11
HETATM   11  O   UNL     1      39.061 -13.293   0.111  1.00  0.00    -0.291 OA
BRANCH  11  12
HETATM   12  C   UNL     1      39.806 -12.941  -0.984  1.00  0.00     0.095 A 
HETATM   13  C   UNL     1      39.694 -13.561  -2.223  1.00  0.00     0.153 A 
HETATM   14  N   UNL     1      40.367 -13.162  -3.331  1.00  0.00    -0.270 NA
HETATM   15  C   UNL     1      41.192 -12.102  -3.184  1.00  0.00     0.116 A 
HETATM   16  C   UNL     1      41.360 -11.412  -1.992  1.00  0.00     0.022 A 
HETATM   17  C   UNL     1      40.642 -11.835  -0.877  1.00  0.00     0.040 A 
ENDBRANCH  11  12
ENDBRANCH   8  11
ENDBRANCH   2   5
BRANCH   1  18
HETATM   18  C   UNL     1      43.441 -17.022   5.558  1.00  0.00     0.061 C 
HETATM   19  C   UNL     1      44.710 -16.444   6.226  1.00  0.00     0.030 C 
HETATM   20  C   UNL     1      42.352 -17.105   6.650  1.00  0.00     0.030 C 
BRANCH  18  21
HETATM   21  C   UNL     1      43.631 -18.424   4.947  1.00  0.00    -0.038 A 
HETATM   22  C   UNL     1      43.661 -18.652   3.562  1.00  0.00     0.050 A 
HETATM   23  C   UNL     1      43.827 -19.943   3.061  1.00  0.00     0.117 A 
HETATM   24  F   UNL     1      43.843 -20.133   1.735  1.00  0.00    -0.206 F 
HETATM   25  C   UNL     1      43.973 -21.032   3.909  1.00  0.00     0.042 A 
HETATM   26  C   UNL     1      43.953 -20.829   5.284  1.00  0.00     0.004 A 
HETATM   27  C   UNL     1      43.783 -19.539   5.797  1.00  0.00     0.008 A 
ENDBRANCH  18  21
ENDBRANCH   1  18
TORSDOF 5
ENDMDL
MODEL 2
REMARK VINA RESULT:      -8.5      4.780      7.423
REMARK  5 active torsions:
REMARK  status: ('A' for Active; 'I' for Inactive)
REMARK    1  A    between atoms: C_2  and  C_3 
REMARK    2  A    between atoms: C_2  and  C_19 
REMARK       I    between atoms: C_3  and  N_4 
REMARK    3  A    between atoms: N_4  and  C_5 
REMARK    4  A    between atoms: C_8  and  O_9 
REMARK    5  A    between atoms: O_9  and  C_10 
ROOT
HETATM    1  C   UNL     1      42.630 -14.641   3.542  1.00  0.00     0.234 C 
HETATM    2  N   UNL     1      42.297 -14.201   4.816  1.00  0.00    -0.325 N 
HETATM    3  O   UNL     1      43.458 -14.101   2.811  1.00  0.00    -0.272 OA
HETATM    4  H   UNL     1      41.680 -14.797   5.355  1.00  0.00     0.169 HD
ENDROOT
BRANCH   2   5
HETATM    5  C   UNL     1      42.786 -13.054   5.472  1.00  0.00     0.052 A 
HETATM    6  C   UNL     1      42.375 -11.747   5.223  1.00  0.00     0.149 A 
HETATM    7  N   UNL     1      42.850 -10.660   5.886  1.00  0.00    -0.235 NA
HETATM    8  C   UNL     1      43.775 -10.882   6.842  1.00  0.00     0.169 A 
HETATM    9  C   UNL     1      44.261 -12.140   7.156  1.00  0.00     0.060 A 
HETATM   10  C   UNL     1      43.753 -13.239   6.464  1.00  0.00     0.035 A 
BRANCH   8  11
HETATM   11  O   UNL     1      44.333  -9.815   7.535  1.00  0.00    -0.291 OA
BRANCH  11  12
HETATM   12  C   UNL     1      43.860  -9.561   8.796  1.00  0.00     0.095 A 
HETATM   13  C   UNL     1      42.514  -9.384   9.092  1.00  0.00     0.153 A 
HETATM   14  N   UNL     1      42.034  -9.217  10.350  1.00  0.00    -0.270 NA
HETATM   15  C   UNL     1      42.945  -9.220  11.347  1.00  0.00     0.116 A 
HETATM   16  C   UNL     1      44.306  -9.402  11.151  1.00  0.00     0.022 A 
HETATM   17  C   UNL     1      44.767  -9.588   9.850  1.00  0.00     0.040 A 
ENDBRANCH  11  12
ENDBRANCH   8  11
ENDBRANCH   2   5
BRANCH   1  18
HETATM   18  C   UNL     1      41.820 -15.887   3.081  1.00  0.00     0.061 C 
HETATM   19  C   UNL     1      40.517 -15.899   3.914  1.00  0.00     0.030 C 
HETATM   20  C   UNL     1      41.409 -15.721   1.601  1.00  0.00     0.030 C 
BRANCH  18  21
HETATM   21  C   UNL     1      42.667 -17.166   3.215  1.00  0.00    -0.038 A 
HETATM   22  C   UNL     1      42.688 -18.171   2.233  1.00  0.00     0.050 A 
HETATM   23  C   UNL     1      43.468 -19.313   2.408  1.00  0.00     0.117 A 
HETATM   24  F   UNL     1      43.461 -20.260   1.459  1.00  0.00    -0.206 F 
HETATM   25  C   UNL     1      44.245 -19.491   3.544  1.00  0.00     0.042 A 
HETATM   26  C   UNL     1      44.244 -18.506   4.526  1.00  0.00     0.004 A 
HETATM   27  C   UNL     1      43.464 -17.357   4.363  1.00  0.00     0.008 A 
ENDBRANCH  18  21
ENDBRANCH   1  18
TORSDOF 5
ENDMDL
MODEL 3
REMARK VINA RESULT:      -8.2      4.937      7.694
REMARK  5 active torsions:
REMARK  status: ('A' for Active; 'I' for Inactive)
REMARK    1  A    between atoms: C_2  and  C_3 
REMARK    2  A    between atoms: C_2  and  C_19 
REMARK       I    between atoms: C_3  and  N_4 
REMARK    3  A    between atoms: N_4  and  C_5 
REMARK    4  A    between atoms: C_8  and  O_9 
REMARK    5  A    between atoms: O_9  and  C_10 
ROOT
HETATM    1  C   UNL     1      41.696 -14.370   4.197  1.00  0.00     0.234 C 
HETATM    2  N   UNL     1      42.823 -13.559   4.211  1.00  0.00    -0.325 N 
HETATM    3  O   UNL     1      40.780 -14.306   5.013  1.00  0.00    -0.272 OA
HETATM    4  H   UNL     1      43.451 -13.641   3.420  1.00  0.00     0.169 HD
ENDROOT
BRANCH   2   5
HETATM    5  C   UNL     1      43.151 -12.579   5.169  1.00  0.00     0.052 A 
HETATM    6  C   UNL     1      42.768 -11.242   5.116  1.00  0.00     0.149 A 
HETATM    7  N   UNL     1      43.081 -10.321   6.065  1.00  0.00    -0.235 NA
HETATM    8  C   UNL     1      43.806 -10.750   7.118  1.00  0.00     0.169 A 
HETATM    9  C   UNL     1      44.249 -12.055   7.258  1.00  0.00     0.060 A 
HETATM   10  C   UNL     1      43.910 -12.981   6.271  1.00  0.00     0.035 A 
BRANCH   8  11
HETATM   11  O   UNL     1      44.196  -9.858   8.108  1.00  0.00    -0.291 OA
BRANCH  11  12
HETATM   12  C   UNL     1      43.413  -9.774   9.230  1.00  0.00     0.095 A 
HETATM   13  C   UNL     1      42.093  -9.338   9.216  1.00  0.00     0.153 A 
HETATM   14  N   UNL     1      41.288  -9.333  10.308  1.00  0.00    -0.270 NA
HETATM   15  C   UNL     1      41.835  -9.776  11.461  1.00  0.00     0.116 A 
HETATM   16  C   UNL     1      43.138 -10.242  11.570  1.00  0.00     0.022 A 
HETATM   17  C   UNL     1      43.934 -10.250  10.427  1.00  0.00     0.040 A 
ENDBRANCH  11  12
ENDBRANCH   8  11
ENDBRANCH   2   5
BRANCH   1  18
HETATM   18  C   UNL     1      41.702 -15.425   3.053  1.00  0.00     0.061 C 
HETATM   19  C   UNL     1      40.223 -15.742   2.737  1.00  0.00     0.030 C 
HETATM   20  C   UNL     1      42.315 -14.805   1.777  1.00  0.00     0.030 C 
BRANCH  18  21
HETATM   21  C   UNL     1      42.541 -16.654   3.452  1.00  0.00    -0.038 A 
HETATM   22  C   UNL     1      42.845 -16.967   4.787  1.00  0.00     0.050 A 
HETATM   23  C   UNL     1      43.616 -18.088   5.092  1.00  0.00     0.117 A 
HETATM   24  F   UNL     1      43.899 -18.357   6.374  1.00  0.00    -0.206 F 
HETATM   25  C   UNL     1      44.097 -18.926   4.096  1.00  0.00     0.042 A 
HETATM   26  C   UNL     1      43.802 -18.640   2.768  1.00  0.00     0.004 A 
HETATM   27  C   UNL     1      43.033 -17.517   2.449  1.00  0.00     0.008 A 
ENDBRANCH  18  21
ENDBRANCH   1  18
TORSDOF 5
ENDMDL
MODEL 4
REMARK VINA RESULT:      -8.1      2.253      2.932
REMARK  5 active torsions:
REMARK  status: ('A' for Active; 'I' for Inactive)
REMARK    1  A    between atoms: C_2  and  C_3 
REMARK    2  A    between atoms: C_2  and  C_19 
REMARK       I    between atoms: C_3  and  N_4 
REMARK    3  A    between atoms: N_4  and  C_5 
REMARK    4  A    between atoms: C_8  and  O_9 
REMARK    5  A    between atoms: O_9  and  C_10 
ROOT
HETATM    1  C   UNL     1      42.280 -15.053   2.422  1.00  0.00     0.234 C 
HETATM    2  N   UNL     1      41.005 -14.729   1.978  1.00  0.00    -0.325 N 
HETATM    3  O   UNL     1      43.315 -14.818   1.804  1.00  0.00    -0.272 OA
HETATM    4  H   UNL     1      40.245 -14.880   2.631  1.00  0.00     0.169 HD
ENDROOT
BRANCH   2   5
HETATM    5  C   UNL     1      40.661 -14.140   0.744  1.00  0.00     0.052 A 
HETATM    6  C   UNL     1      41.022 -12.860   0.335  1.00  0.00     0.149 A 
HETATM    7  N   UNL     1      40.693 -12.325  -0.870  1.00  0.00    -0.235 NA
HETATM    8  C   UNL     1      39.975 -13.099  -1.708  1.00  0.00     0.169 A 
HETATM    9  C   UNL     1      39.554 -14.380  -1.391  1.00  0.00     0.060 A 
HETATM   10  C   UNL     1      39.909 -14.907  -0.150  1.00  0.00     0.035 A 
BRANCH   8  11
HETATM   11  O   UNL     1      39.570 -12.605  -2.942  1.00  0.00    -0.291 OA
BRANCH  11  12
HETATM   12  C   UNL     1      38.719 -11.531  -2.946  1.00  0.00     0.095 A 
HETATM   13  C   UNL     1      39.074 -10.269  -3.408  1.00  0.00     0.153 A 
HETATM   14  N   UNL     1      38.211  -9.225  -3.492  1.00  0.00    -0.270 NA
HETATM   15  C   UNL     1      36.943  -9.459  -3.087  1.00  0.00     0.116 A 
HETATM   16  C   UNL     1      36.494 -10.686  -2.623  1.00  0.00     0.022 A 
HETATM   17  C   UNL     1      37.399 -11.743  -2.564  1.00  0.00     0.040 A 
ENDBRANCH  11  12
ENDBRANCH   8  11
ENDBRANCH   2   5
BRANCH   1  18
HETATM   18  C   UNL     1      42.292 -15.795   3.790  1.00  0.00     0.061 C 
HETATM   19  C   UNL     1      43.000 -14.858   4.795  1.00  0.00     0.030 C 
HETATM   20  C   UNL     1      40.843 -15.985   4.292  1.00  0.00     0.030 C 
BRANCH  18  21
HETATM   21  C   UNL     1      42.948 -17.182   3.650  1.00  0.00    -0.038 A 
HETATM   22  C   UNL     1      42.791 -17.986   2.509  1.00  0.00     0.050 A 
HETATM   23  C   UNL     1      43.400 -19.238   2.436  1.00  0.00     0.117 A 
HETATM   24  F   UNL     1      43.226 -19.987   1.339  1.00  0.00    -0.206 F 
HETATM   25  C   UNL     1      44.179 -19.723   3.478  1.00  0.00     0.042 A 
HETATM   26  C   UNL     1      44.353 -18.942   4.615  1.00  0.00     0.004 A 
HETATM   27  C   UNL     1      43.744 -17.686   4.700  1.00  0.00     0.008 A 
ENDBRANCH  18  21
ENDBRANCH   1  18
TORSDOF 5
ENDMDL
MODEL 5
REMARK VINA RESULT:      -7.9      1.848      2.303
REMARK  5 active torsions:
REMARK  status: ('A' for Active; 'I' for Inactive)
REMARK    1  A    between atoms: C_2  and  C_3 
REMARK    2  A    between atoms: C_2  and  C_19 
REMARK       I    between atoms: C_3  and  N_4 
REMARK    3  A    between atoms: N_4  and  C_5 
REMARK    4  A    between atoms: C_8  and  O_9 
REMARK    5  A    between atoms: O_9  and  C_10 
ROOT
HETATM    1  C   UNL     1      42.247 -15.077   3.545  1.00  0.00     0.234 C 
HETATM    2  N   UNL     1      40.940 -15.131   3.078  1.00  0.00    -0.325 N 
HETATM    3  O   UNL     1      43.123 -14.348   3.085  1.00  0.00    -0.272 OA
HETATM    4  H   UNL     1      40.290 -15.694   3.614  1.00  0.00     0.169 HD
ENDROOT
BRANCH   2   5
HETATM    5  C   UNL     1      40.401 -14.427   1.983  1.00  0.00     0.052 A 
HETATM    6  C   UNL     1      39.851 -13.149   2.039  1.00  0.00     0.149 A 
HETATM    7  N   UNL     1      39.356 -12.486   0.962  1.00  0.00    -0.235 NA
HETATM    8  C   UNL     1      39.413 -13.119  -0.227  1.00  0.00     0.169 A 
HETATM    9  C   UNL     1      39.927 -14.396  -0.387  1.00  0.00     0.060 A 
HETATM   10  C   UNL     1      40.432 -15.053   0.734  1.00  0.00     0.035 A 
BRANCH   8  11
HETATM   11  O   UNL     1      38.892 -12.517  -1.366  1.00  0.00    -0.291 OA
BRANCH  11  12
HETATM   12  C   UNL     1      39.338 -11.260  -1.678  1.00  0.00     0.095 A 
HETATM   13  C   UNL     1      38.545 -10.121  -1.604  1.00  0.00     0.153 A 
HETATM   14  N   UNL     1      39.005  -8.865  -1.831  1.00  0.00    -0.270 NA
HETATM   15  C   UNL     1      40.312  -8.752  -2.153  1.00  0.00     0.116 A 
HETATM   16  C   UNL     1      41.183  -9.828  -2.240  1.00  0.00     0.022 A 
HETATM   17  C   UNL     1      40.685 -11.103  -1.985  1.00  0.00     0.040 A 
ENDBRANCH  11  12
ENDBRANCH   8  11
ENDBRANCH   2   5
BRANCH   1  18
HETATM   18  C   UNL     1      42.534 -16.069   4.709  1.00  0.00     0.061 C 
HETATM   19  C   UNL     1      43.527 -15.361   5.658  1.00  0.00     0.030 C 
HETATM   20  C   UNL     1      41.238 -16.317   5.512  1.00  0.00     0.030 C 
BRANCH  18  21
HETATM   21  C   UNL     1      43.036 -17.418   4.160  1.00  0.00    -0.038 A 
HETATM   22  C   UNL     1      43.727 -18.352   4.951  1.00  0.00     0.050 A 
HETATM   23  C   UNL     1      44.167 -19.555   4.402  1.00  0.00     0.117 A 
HETATM   24  F   UNL     1      44.831 -20.423   5.177  1.00  0.00    -0.206 F 
HETATM   25  C   UNL     1      43.934 -19.869   3.071  1.00  0.00     0.042 A 
HETATM   26  C   UNL     1      43.247 -18.963   2.270  1.00  0.00     0.004 A 
HETATM   27  C   UNL     1      42.804 -17.752   2.809  1.00  0.00     0.008 A 
ENDBRANCH  18  21
ENDBRANCH   1  18
TORSDOF 5
ENDMDL
MODEL 6
REMARK VINA RESULT:      -7.7      5.530      8.249
REMARK  5 active torsions:
REMARK  status: ('A' for Active; 'I' for Inactive)
REMARK    1  A    between atoms: C_2  and  C_3 
REMARK    2  A    between atoms: C_2  and  C_19 
REMARK       I    between atoms: C_3  and  N_4 
REMARK    3  A    between atoms: N_4  and  C_5 
REMARK    4  A    between atoms: C_8  and  O_9 
REMARK    5  A    between atoms: O_9  and  C_10 
ROOT
HETATM    1  C   UNL     1      42.096 -13.762   4.804  1.00  0.00     0.234 C 
HETATM    2  N   UNL     1      43.073 -12.777   4.759  1.00  0.00    -0.325 N 
HETATM    3  O   UNL     1      41.366 -13.977   5.769  1.00  0.00    -0.272 OA
HETATM    4  H   UNL     1      43.531 -12.634   3.866  1.00  0.00     0.169 HD
ENDROOT
BRANCH   2   5
HETATM    5  C   UNL     1      43.443 -11.901   5.798  1.00  0.00     0.052 A 
HETATM    6  C   UNL     1      42.864 -10.661   6.051  1.00  0.00     0.149 A 
HETATM    7  N   UNL     1      43.228  -9.845   7.075  1.00  0.00    -0.235 NA
HETATM    8  C   UNL     1      44.211 -10.282   7.887  1.00  0.00     0.169 A 
HETATM    9  C   UNL     1      44.861 -11.493   7.714  1.00  0.00     0.060 A 
HETATM   10  C   UNL     1      44.465 -12.314   6.658  1.00  0.00     0.035 A 
BRANCH   8  11
HETATM   11  O   UNL     1      44.661  -9.485   8.932  1.00  0.00    -0.291 OA
BRANCH  11  12
HETATM   12  C   UNL     1      43.846  -9.355  10.026  1.00  0.00     0.095 A 
HETATM   13  C   UNL     1      43.738 -10.314  11.025  1.00  0.00     0.153 A 
HETATM   14  N   UNL     1      42.998 -10.153  12.150  1.00  0.00    -0.270 NA
HETATM   15  C   UNL     1      42.333  -8.983  12.271  1.00  0.00     0.116 A 
HETATM   16  C   UNL     1      42.389  -7.962  11.333  1.00  0.00     0.022 A 
HETATM   17  C   UNL     1      43.171  -8.151  10.197  1.00  0.00     0.040 A 
ENDBRANCH  11  12
ENDBRANCH   8  11
ENDBRANCH   2   5
BRANCH   1  18
HETATM   18  C   UNL     1      42.021 -14.626   3.512  1.00  0.00     0.061 C 
HETATM   19  C   UNL     1      40.521 -14.803   3.185  1.00  0.00     0.030 C 
HETATM   20  C   UNL     1      42.654 -13.853   2.333  1.00  0.00     0.030 C 
BRANCH  18  21
HETATM   21  C   UNL     1      42.788 -15.949   3.697  1.00  0.00    -0.038 A 
HETATM   22  C   UNL     1      42.716 -17.006   2.775  1.00  0.00     0.050 A 
HETATM   23  C   UNL     1      43.424 -18.186   2.995  1.00  0.00     0.117 A 
HETATM   24  F   UNL     1      43.330 -19.182   2.103  1.00  0.00    -0.206 F 
HETATM   25  C   UNL     1      44.220 -18.351   4.120  1.00  0.00     0.042 A 
HETATM   26  C   UNL     1      44.312 -17.316   5.044  1.00  0.00     0.004 A 
HETATM   27  C   UNL     1      43.603 -16.129   4.835  1.00  0.00     0.008 A 
ENDBRANCH  18  21
ENDBRANCH   1  18
TORSDOF 5
ENDMDL
MODEL 7
REMARK VINA RESULT:      -7.6      6.075      8.452
REMARK  5 active torsions:
REMARK  status: ('A' for Active; 'I' for Inactive)
REMARK    1  A    between atoms: C_2  and  C_3 
REMARK    2  A    between atoms: C_2  and  C_19 
REMARK       I    between atoms: C_3  and  N_4 
REMARK    3  A    between atoms: N_4  and  C_5 
REMARK    4  A    between atoms: C_8  and  O_9 
REMARK    5  A    between atoms: O_9  and  C_10 
ROOT
HETATM    1  C   UNL     1      42.947 -14.335   6.313  1.00  0.00     0.234 C 
HETATM    2  N   UNL     1      44.048 -13.490   6.326  1.00  0.00    -0.325 N 
HETATM    3  O   UNL     1      41.816 -14.014   6.671  1.00  0.00    -0.272 OA
HETATM    4  H   UNL     1      44.898 -13.847   5.904  1.00  0.00     0.169 HD
ENDROOT
BRANCH   2   5
HETATM    5  C   UNL     1      44.092 -12.162   6.792  1.00  0.00     0.052 A 
HETATM    6  C   UNL     1      43.003 -11.299   6.870  1.00  0.00     0.149 A 
HETATM    7  N   UNL     1      43.071 -10.027   7.344  1.00  0.00    -0.235 NA
HETATM    8  C   UNL     1      44.277  -9.593   7.762  1.00  0.00     0.169 A 
HETATM    9  C   UNL     1      45.425 -10.367   7.713  1.00  0.00     0.060 A 
HETATM   10  C   UNL     1      45.326 -11.670   7.227  1.00  0.00     0.035 A 
BRANCH   8  11
HETATM   11  O   UNL     1      44.430  -8.291   8.223  1.00  0.00    -0.291 OA
BRANCH  11  12
HETATM   12  C   UNL     1      43.877  -7.981   9.439  1.00  0.00     0.095 A 
HETATM   13  C   UNL     1      42.989  -6.931   9.635  1.00  0.00     0.153 A 
HETATM   14  N   UNL     1      42.375  -6.672  10.816  1.00  0.00    -0.270 NA
HETATM   15  C   UNL     1      42.673  -7.498  11.843  1.00  0.00     0.116 A 
HETATM   16  C   UNL     1      43.538  -8.578  11.741  1.00  0.00     0.022 A 
HETATM   17  C   UNL     1      44.140  -8.828  10.510  1.00  0.00     0.040 A 
ENDBRANCH  11  12
ENDBRANCH   8  11
ENDBRANCH   2   5
BRANCH   1  18
HETATM   18  C   UNL     1      43.274 -15.779   5.832  1.00  0.00     0.061 C 
HETATM   19  C   UNL     1      44.660 -16.135   6.416  1.00  0.00     0.030 C 
HETATM   20  C   UNL     1      42.258 -16.771   6.439  1.00  0.00     0.030 C 
BRANCH  18  21
HETATM   21  C   UNL     1      43.192 -15.871   4.296  1.00  0.00    -0.038 A 
HETATM   22  C   UNL     1      42.934 -14.757   3.480  1.00  0.00     0.050 A 
HETATM   23  C   UNL     1      42.863 -14.898   2.094  1.00  0.00     0.117 A 
HETATM   24  F   UNL     1      42.606 -13.820   1.341  1.00  0.00    -0.206 F 
HETATM   25  C   UNL     1      43.047 -16.130   1.483  1.00  0.00     0.042 A 
HETATM   26  C   UNL     1      43.310 -17.245   2.271  1.00  0.00     0.004 A 
HETATM   27  C   UNL     1      43.381 -17.117   3.662  1.00  0.00     0.008 A 
ENDBRANCH  18  21
ENDBRANCH   1  18
TORSDOF 5
ENDMDL
MODEL 8
REMARK VINA RESULT:      -7.6      4.273      6.032
REMARK  5 active torsions:
REMARK  status: ('A' for Active; 'I' for Inactive)
REMARK    1  A    between atoms: C_2  and  C_3 
REMARK    2  A    between atoms: C_2  and  C_19 
REMARK       I    between atoms: C_3  and  N_4 
REMARK    3  A    between atoms: N_4  and  C_5 
REMARK    4  A    between atoms: C_8  and  O_9 
REMARK    5  A    between atoms: O_9  and  C_10 
ROOT
HETATM    1  C   UNL     1      42.140 -14.640   3.552  1.00  0.00     0.234 C 
HETATM    2  N   UNL     1      40.796 -14.490   3.865  1.00  0.00    -0.325 N 
HETATM    3  O   UNL     1      43.028 -13.864   3.895  1.00  0.00    -0.272 OA
HETATM    4  H   UNL     1      40.183 -15.256   3.614  1.00  0.00     0.169 HD
ENDROOT
BRANCH   2   5
HETATM    5  C   UNL     1      40.203 -13.420   4.564  1.00  0.00     0.052 A 
HETATM    6  C   UNL     1      39.943 -13.396   5.932  1.00  0.00     0.149 A 
HETATM    7  N   UNL     1      39.388 -12.341   6.583  1.00  0.00    -0.235 NA
HETATM    8  C   UNL     1      39.078 -11.258   5.843  1.00  0.00     0.169 A 
HETATM    9  C   UNL     1      39.282 -11.186   4.474  1.00  0.00     0.060 A 
HETATM   10  C   UNL     1      39.858 -12.281   3.831  1.00  0.00     0.035 A 
BRANCH   8  11
HETATM   11  O   UNL     1      38.473 -10.156   6.434  1.00  0.00    -0.291 OA
BRANCH  11  12
HETATM   12  C   UNL     1      39.245  -9.042   6.636  1.00  0.00     0.095 A 
HETATM   13  C   UNL     1      39.018  -7.823   6.008  1.00  0.00     0.153 A 
HETATM   14  N   UNL     1      39.727  -6.696   6.268  1.00  0.00    -0.270 NA
HETATM   15  C   UNL     1      40.707  -6.801   7.191  1.00  0.00     0.116 A 
HETATM   16  C   UNL     1      41.000  -7.970   7.879  1.00  0.00     0.022 A 
HETATM   17  C   UNL     1      40.244  -9.106   7.602  1.00  0.00     0.040 A 
ENDBRANCH  11  12
ENDBRANCH   8  11
ENDBRANCH   2   5
BRANCH   1  18
HETATM   18  C   UNL     1      42.439 -15.889   2.672  1.00  0.00     0.061 C 
HETATM   19  C   UNL     1      41.125 -16.234   1.935  1.00  0.00     0.030 C 
HETATM   20  C   UNL     1      43.482 -15.525   1.592  1.00  0.00     0.030 C 
BRANCH  18  21
HETATM   21  C   UNL     1      43.002 -17.037   3.531  1.00  0.00    -0.038 A 
HETATM   22  C   UNL     1      43.011 -17.003   4.935  1.00  0.00     0.050 A 
HETATM   23  C   UNL     1      43.541 -18.066   5.665  1.00  0.00     0.117 A 
HETATM   24  F   UNL     1      43.545 -18.003   7.003  1.00  0.00    -0.206 F 
HETATM   25  C   UNL     1      44.066 -19.184   5.033  1.00  0.00     0.042 A 
HETATM   26  C   UNL     1      44.061 -19.243   3.644  1.00  0.00     0.004 A 
HETATM   27  C   UNL     1      43.536 -18.181   2.901  1.00  0.00     0.008 A 
ENDBRANCH  18  21
ENDBRANCH   1  18
TORSDOF 5
ENDMDL
MODEL 9
REMARK VINA RESULT:      -7.5      6.461      8.941
REMARK  5 active torsions:
REMARK  status: ('A' for Active; 'I' for Inactive)
REMARK    1  A    between atoms: C_2  and  C_3 
REMARK    2  A    between atoms: C_2  and  C_19 
REMARK       I    between atoms: C_3  and  N_4 
REMARK    3  A    between atoms: N_4  and  C_5 
REMARK    4  A    between atoms: C_8  and  O_9 
REMARK    5  A    between atoms: O_9  and  C_10 
ROOT
HETATM    1  C   UNL     1      43.605 -10.559   7.849  1.00  0.00     0.234 C 
HETATM    2  N   UNL     1      42.808 -10.581   6.712  1.00  0.00    -0.325 N 
HETATM    3  O   UNL     1      44.175 -11.540   8.321  1.00  0.00    -0.272 OA
HETATM    4  H   UNL     1      42.485  -9.685   6.367  1.00  0.00     0.169 HD
ENDROOT
BRANCH   2   5
HETATM    5  C   UNL     1      42.462 -11.709   5.941  1.00  0.00     0.052 A 
HETATM    6  C   UNL     1      41.291 -12.450   6.077  1.00  0.00     0.149 A 
HETATM    7  N   UNL     1      40.974 -13.522   5.305  1.00  0.00    -0.235 NA
HETATM    8  C   UNL     1      41.861 -13.873   4.352  1.00  0.00     0.169 A 
HETATM    9  C   UNL     1      43.060 -13.212   4.145  1.00  0.00     0.060 A 
HETATM   10  C   UNL     1      43.359 -12.112   4.948  1.00  0.00     0.035 A 
BRANCH   8  11
HETATM   11  O   UNL     1      41.622 -14.982   3.549  1.00  0.00    -0.291 OA
BRANCH  11  12
HETATM   12  C   UNL     1      42.423 -16.079   3.731  1.00  0.00     0.095 A 
HETATM   13  C   UNL     1      42.699 -16.635   4.974  1.00  0.00     0.153 A 
HETATM   14  N   UNL     1      43.422 -17.769   5.151  1.00  0.00    -0.270 NA
HETATM   15  C   UNL     1      43.892 -18.363   4.033  1.00  0.00     0.116 A 
HETATM   16  C   UNL     1      43.659 -17.890   2.750  1.00  0.00     0.022 A 
HETATM   17  C   UNL     1      42.899 -16.733   2.599  1.00  0.00     0.040 A 
ENDBRANCH  11  12
ENDBRANCH   8  11
ENDBRANCH   2   5
BRANCH   1  18
HETATM   18  C   UNL     1      43.692  -9.158   8.521  1.00  0.00     0.061 C 
HETATM   19  C   UNL     1      45.175  -8.727   8.452  1.00  0.00     0.030 C 
HETATM   20  C   UNL     1      42.884  -8.134   7.693  1.00  0.00     0.030 C 
BRANCH  18  21
HETATM   21  C   UNL     1      43.112  -9.203   9.947  1.00  0.00    -0.038 A 
HETATM   22  C   UNL     1      41.787  -9.582  10.218  1.00  0.00     0.050 A 
HETATM   23  C   UNL     1      41.310  -9.597  11.528  1.00  0.00     0.117 A 
HETATM   24  F   UNL     1      40.039  -9.954  11.756  1.00  0.00    -0.206 F 
HETATM   25  C   UNL     1      42.123  -9.247  12.597  1.00  0.00     0.042 A 
HETATM   26  C   UNL     1      43.440  -8.875  12.353  1.00  0.00     0.004 A 
HETATM   27  C   UNL     1      43.929  -8.853  11.043  1.00  0.00     0.008 A 
ENDBRANCH  18  21
ENDBRANCH   1  18
TORSDOF 5
ENDMDL
MODEL 10
REMARK VINA RESULT:      -7.2      3.182      4.697
REMARK  5 active torsions:
REMARK  status: ('A' for Active; 'I' for Inactive)
REMARK    1  A    between atoms: C_2  and  C_3 
REMARK    2  A    between atoms: C_2  and  C_19 
REMARK       I    between atoms: C_3  and  N_4 
REMARK    3  A    between atoms: N_4  and  C_5 
REMARK    4  A    between atoms: C_8  and  O_9 
REMARK    5  A    between atoms: O_9  and  C_10 
ROOT
HETATM    1  C   UNL     1      40.947 -15.557   1.711  1.00  0.00     0.234 C 
HETATM    2  N   UNL     1      41.115 -14.635   0.687  1.00  0.00    -0.325 N 
HETATM    3  O   UNL     1      39.862 -15.989   2.091  1.00  0.00    -0.272 OA
HETATM    4  H   UNL     1      42.067 -14.444   0.400  1.00  0.00     0.169 HD
ENDROOT
BRANCH   2   5
HETATM    5  C   UNL     1      40.100 -13.993  -0.051  1.00  0.00     0.052 A 
HETATM    6  C   UNL     1      39.447 -12.824   0.327  1.00  0.00     0.149 A 
HETATM    7  N   UNL     1      38.484 -12.215  -0.414  1.00  0.00    -0.235 NA
HETATM    8  C   UNL     1      38.157 -12.794  -1.587  1.00  0.00     0.169 A 
HETATM    9  C   UNL     1      38.737 -13.965  -2.047  1.00  0.00     0.060 A 
HETATM   10  C   UNL     1      39.725 -14.567  -1.269  1.00  0.00     0.035 A 
BRANCH   8  11
HETATM   11  O   UNL     1      37.156 -12.249  -2.380  1.00  0.00    -0.291 OA
BRANCH  11  12
HETATM   12  C   UNL     1      37.210 -10.903  -2.634  1.00  0.00     0.095 A 
HETATM   13  C   UNL     1      36.323  -9.981  -2.093  1.00  0.00     0.153 A 
HETATM   14  N   UNL     1      36.424  -8.640  -2.274  1.00  0.00    -0.270 NA
HETATM   15  C   UNL     1      37.454  -8.212  -3.036  1.00  0.00     0.116 A 
HETATM   16  C   UNL     1      38.396  -9.055  -3.608  1.00  0.00     0.022 A 
HETATM   17  C   UNL     1      38.275 -10.425  -3.390  1.00  0.00     0.040 A 
ENDBRANCH  11  12
ENDBRANCH   8  11
ENDBRANCH   2   5
BRANCH   1  18
HETATM   18  C   UNL     1      42.282 -15.986   2.388  1.00  0.00     0.061 C 
HETATM   19  C   UNL     1      42.343 -17.528   2.305  1.00  0.00     0.030 C 
HETATM   20  C   UNL     1      43.476 -15.441   1.573  1.00  0.00     0.030 C 
BRANCH  18  21
HETATM   21  C   UNL     1      42.369 -15.425   3.820  1.00  0.00    -0.038 A 
HETATM   22  C   UNL     1      41.953 -16.152   4.948  1.00  0.00     0.050 A 
HETATM   23  C   UNL     1      42.047 -15.594   6.222  1.00  0.00     0.117 A 
HETATM   24  F   UNL     1      41.634 -16.307   7.279  1.00  0.00    -0.206 F 
HETATM   25  C   UNL     1      42.554 -14.317   6.416  1.00  0.00     0.042 A 
HETATM   26  C   UNL     1      42.977 -13.582   5.314  1.00  0.00     0.004 A 
HETATM   27  C   UNL     1      42.886 -14.130   4.031  1.00  0.00     0.008 A 
ENDBRANCH  18  21
ENDBRANCH   1  18
TORSDOF 5
ENDMDL
