MODEL 1
REMARK VINA RESULT:      -8.6      0.000      0.000
REMARK  5 active torsions:
REMARK  status: ('A' for Active; 'I' for Inactive)
REMARK    1  A    between atoms: C_9  and  C_10 
REMARK    2  A    between atoms: C_10  and  N_11 
REMARK    3  A    between atoms: N_11  and  C_12 
REMARK    4  A    between atoms: C_13  and  O_14 
REMARK    5  A    between atoms: C_16  and  O_17 
ROOT
HETATM    1  C   UNL     1      43.866 -20.558   2.418  1.00  0.00     0.048 C 
HETATM    2  C   UNL     1      43.677 -19.152   2.907  1.00  0.00    -0.061 A 
HETATM    3  C   UNL     1      42.857 -18.256   2.204  1.00  0.00     0.020 A 
HETATM    4  C   UNL     1      42.657 -16.957   2.681  1.00  0.00    -0.008 A 
HETATM    5  C   UNL     1      43.273 -16.560   3.872  1.00  0.00     0.045 A 
HETATM    6  N   UNL     1      43.059 -15.264   4.353  1.00  0.00    -0.322 N 
HETATM    7  C   UNL     1      42.265 -14.339   3.727  1.00  0.00     0.253 A 
HETATM    8  O   UNL     1      42.080 -13.234   4.228  1.00  0.00    -0.268 OA
HETATM    9  C   UNL     1      41.634 -14.748   2.436  1.00  0.00     0.024 A 
HETATM   10  C   UNL     1      41.813 -15.999   1.968  1.00  0.00     0.027 A 
HETATM   11  C   UNL     1      44.081 -17.442   4.586  1.00  0.00     0.031 A 
HETATM   12  C   UNL     1      44.278 -18.737   4.103  1.00  0.00     0.009 A 
HETATM   13  H   UNL     1      43.482 -14.965   5.221  1.00  0.00     0.169 HD
ENDROOT
BRANCH   9  14
HETATM   14  C   UNL     1      40.762 -13.734   1.757  1.00  0.00     0.136 C 
BRANCH  14  15
HETATM   15  N   UNL     1      41.307 -13.468   0.425  1.00  0.00    -0.286 NA
HETATM   16  H   UNL     1      42.204 -13.938   0.291  1.00  0.00     0.128 HD
BRANCH  15  17
HETATM   17  C   UNL     1      40.500 -13.719  -0.702  1.00  0.00     0.042 A 
HETATM   18  C   UNL     1      40.551 -12.789  -1.757  1.00  0.00     0.089 A 
HETATM   19  C   UNL     1      39.830 -12.945  -2.936  1.00  0.00     0.074 A 
HETATM   20  C   UNL     1      39.004 -14.053  -3.058  1.00  0.00     0.068 A 
HETATM   21  C   UNL     1      38.897 -14.978  -2.024  1.00  0.00     0.038 A 
HETATM   22  C   UNL     1      39.636 -14.808  -0.846  1.00  0.00     0.029 A 
BRANCH  18  23
HETATM   23  O   UNL     1      41.306 -11.654  -1.602  1.00  0.00    -0.359 OA
HETATM   24  H   UNL     1      42.163 -11.893  -2.011  1.00  0.00     0.218 HD
ENDBRANCH  18  23
BRANCH  20  25
HETATM   25  O   UNL     1      38.262 -14.267  -4.181  1.00  0.00    -0.361 OA
HETATM   26  H   UNL     1      37.608 -14.959  -3.988  1.00  0.00     0.217 HD
ENDBRANCH  20  25
ENDBRANCH  15  17
ENDBRANCH  14  15
ENDBRANCH   9  14
TORSDOF 5
ENDMDL
MODEL 2
REMARK VINA RESULT:      -8.5      2.339      7.214
REMARK  5 active torsions:
REMARK  status: ('A' for Active; 'I' for Inactive)
REMARK    1  A    between atoms: C_9  and  C_10 
REMARK    2  A    between atoms: C_10  and  N_11 
REMARK    3  A    between atoms: N_11  and  C_12 
REMARK    4  A    between atoms: C_13  and  O_14 
REMARK    5  A    between atoms: C_16  and  O_17 
ROOT
HETATM    1  C   UNL     1      38.348 -14.572  -3.325  1.00  0.00     0.048 C 
HETATM    2  C   UNL     1      39.169 -14.119  -2.153  1.00  0.00    -0.061 A 
HETATM    3  C   UNL     1      39.391 -14.974  -1.063  1.00  0.00     0.020 A 
HETATM    4  C   UNL     1      40.184 -14.560   0.011  1.00  0.00    -0.008 A 
HETATM    5  C   UNL     1      40.766 -13.289  -0.015  1.00  0.00     0.045 A 
HETATM    6  N   UNL     1      41.571 -12.885   1.055  1.00  0.00    -0.322 N 
HETATM    7  C   UNL     1      41.838 -13.667   2.148  1.00  0.00     0.253 A 
HETATM    8  O   UNL     1      42.593 -13.271   3.031  1.00  0.00    -0.268 OA
HETATM    9  C   UNL     1      41.189 -15.012   2.195  1.00  0.00     0.024 A 
HETATM   10  C   UNL     1      40.427 -15.426   1.165  1.00  0.00     0.027 A 
HETATM   11  C   UNL     1      40.565 -12.434  -1.096  1.00  0.00     0.031 A 
HETATM   12  C   UNL     1      39.770 -12.853  -2.164  1.00  0.00     0.009 A 
HETATM   13  H   UNL     1      42.014 -11.976   1.046  1.00  0.00     0.169 HD
ENDROOT
BRANCH   9  14
HETATM   14  C   UNL     1      41.489 -15.867   3.391  1.00  0.00     0.136 C 
BRANCH  14  15
HETATM   15  N   UNL     1      42.896 -16.265   3.338  1.00  0.00    -0.286 NA
HETATM   16  H   UNL     1      43.431 -15.842   4.099  1.00  0.00     0.128 HD
BRANCH  15  17
HETATM   17  C   UNL     1      43.213 -17.637   3.281  1.00  0.00     0.042 A 
HETATM   18  C   UNL     1      43.903 -18.190   4.377  1.00  0.00     0.089 A 
HETATM   19  C   UNL     1      44.239 -19.536   4.455  1.00  0.00     0.074 A 
HETATM   20  C   UNL     1      43.903 -20.359   3.389  1.00  0.00     0.068 A 
HETATM   21  C   UNL     1      43.253 -19.845   2.271  1.00  0.00     0.038 A 
HETATM   22  C   UNL     1      42.916 -18.487   2.213  1.00  0.00     0.029 A 
BRANCH  18  23
HETATM   23  O   UNL     1      44.304 -17.359   5.392  1.00  0.00    -0.359 OA
HETATM   24  H   UNL     1      44.663 -17.976   6.063  1.00  0.00     0.218 HD
ENDBRANCH  18  23
BRANCH  20  25
HETATM   25  O   UNL     1      44.208 -21.688   3.392  1.00  0.00    -0.361 OA
HETATM   26  H   UNL     1      44.716 -21.883   4.198  1.00  0.00     0.217 HD
ENDBRANCH  20  25
ENDBRANCH  15  17
ENDBRANCH  14  15
ENDBRANCH   9  14
TORSDOF 5
ENDMDL
MODEL 3
REMARK VINA RESULT:      -8.4      1.429      1.834
REMARK  5 active torsions:
REMARK  status: ('A' for Active; 'I' for Inactive)
REMARK    1  A    between atoms: C_9  and  C_10 
REMARK    2  A    between atoms: C_10  and  N_11 
REMARK    3  A    between atoms: N_11  and  C_12 
REMARK    4  A    between atoms: C_13  and  O_14 
REMARK    5  A    between atoms: C_16  and  O_17 
ROOT
HETATM    1  C   UNL     1      43.626 -20.564   1.856  1.00  0.00     0.048 C 
HETATM    2  C   UNL     1      43.615 -19.292   2.652  1.00  0.00    -0.061 A 
HETATM    3  C   UNL     1      43.164 -18.094   2.078  1.00  0.00     0.020 A 
HETATM    4  C   UNL     1      43.123 -16.918   2.834  1.00  0.00    -0.008 A 
HETATM    5  C   UNL     1      43.527 -16.948   4.172  1.00  0.00     0.045 A 
HETATM    6  N   UNL     1      43.472 -15.773   4.928  1.00  0.00    -0.322 N 
HETATM    7  C   UNL     1      43.035 -14.570   4.439  1.00  0.00     0.253 A 
HETATM    8  O   UNL     1      42.965 -13.586   5.169  1.00  0.00    -0.268 OA
HETATM    9  C   UNL     1      42.637 -14.527   3.000  1.00  0.00     0.024 A 
HETATM   10  C   UNL     1      42.664 -15.653   2.261  1.00  0.00     0.027 A 
HETATM   11  C   UNL     1      43.967 -18.133   4.759  1.00  0.00     0.031 A 
HETATM   12  C   UNL     1      44.006 -19.302   3.998  1.00  0.00     0.009 A 
HETATM   13  H   UNL     1      43.743 -15.779   5.902  1.00  0.00     0.169 HD
ENDROOT
BRANCH   9  14
HETATM   14  C   UNL     1      42.153 -13.209   2.469  1.00  0.00     0.136 C 
BRANCH  14  15
HETATM   15  N   UNL     1      40.784 -13.377   1.982  1.00  0.00    -0.286 NA
HETATM   16  H   UNL     1      40.149 -12.709   2.424  1.00  0.00     0.128 HD
BRANCH  15  17
HETATM   17  C   UNL     1      40.549 -13.362   0.593  1.00  0.00     0.042 A 
HETATM   18  C   UNL     1      39.880 -14.468   0.036  1.00  0.00     0.089 A 
HETATM   19  C   UNL     1      39.558 -14.552  -1.313  1.00  0.00     0.074 A 
HETATM   20  C   UNL     1      39.944 -13.512  -2.147  1.00  0.00     0.068 A 
HETATM   21  C   UNL     1      40.639 -12.417  -1.643  1.00  0.00     0.038 A 
HETATM   22  C   UNL     1      40.948 -12.345  -0.278  1.00  0.00     0.029 A 
BRANCH  18  23
HETATM   23  O   UNL     1      39.571 -15.530   0.847  1.00  0.00    -0.359 OA
HETATM   24  H   UNL     1      39.669 -15.165   1.749  1.00  0.00     0.218 HD
ENDBRANCH  18  23
BRANCH  20  25
HETATM   25  O   UNL     1      39.670 -13.531  -3.482  1.00  0.00    -0.361 OA
HETATM   26  H   UNL     1      39.063 -14.269  -3.659  1.00  0.00     0.217 HD
ENDBRANCH  20  25
ENDBRANCH  15  17
ENDBRANCH  14  15
ENDBRANCH   9  14
TORSDOF 5
ENDMDL
MODEL 4
REMARK VINA RESULT:      -8.3      4.161      5.346
REMARK  5 active torsions:
REMARK  status: ('A' for Active; 'I' for Inactive)
REMARK    1  A    between atoms: C_9  and  C_10 
REMARK    2  A    between atoms: C_10  and  N_11 
REMARK    3  A    between atoms: N_11  and  C_12 
REMARK    4  A    between atoms: C_13  and  O_14 
REMARK    5  A    between atoms: C_16  and  O_17 
ROOT
HETATM    1  C   UNL     1      43.669 -20.576   1.834  1.00  0.00     0.048 C 
HETATM    2  C   UNL     1      43.615 -19.351   2.699  1.00  0.00    -0.061 A 
HETATM    3  C   UNL     1      42.857 -18.235   2.310  1.00  0.00     0.020 A 
HETATM    4  C   UNL     1      42.782 -17.109   3.135  1.00  0.00    -0.008 A 
HETATM    5  C   UNL     1      43.460 -17.107   4.358  1.00  0.00     0.045 A 
HETATM    6  N   UNL     1      43.370 -15.983   5.186  1.00  0.00    -0.322 N 
HETATM    7  C   UNL     1      42.644 -14.863   4.877  1.00  0.00     0.253 A 
HETATM    8  O   UNL     1      42.567 -13.930   5.671  1.00  0.00    -0.268 OA
HETATM    9  C   UNL     1      41.949 -14.848   3.555  1.00  0.00     0.024 A 
HETATM   10  C   UNL     1      42.007 -15.929   2.753  1.00  0.00     0.027 A 
HETATM   11  C   UNL     1      44.206 -18.211   4.762  1.00  0.00     0.031 A 
HETATM   12  C   UNL     1      44.278 -19.332   3.934  1.00  0.00     0.009 A 
HETATM   13  H   UNL     1      43.838 -15.970   6.082  1.00  0.00     0.169 HD
ENDROOT
BRANCH   9  14
HETATM   14  C   UNL     1      41.150 -13.621   3.223  1.00  0.00     0.136 C 
BRANCH  14  15
HETATM   15  N   UNL     1      39.957 -13.599   4.070  1.00  0.00    -0.286 NA
HETATM   16  H   UNL     1      40.035 -14.267   4.839  1.00  0.00     0.128 HD
BRANCH  15  17
HETATM   17  C   UNL     1      39.517 -12.368   4.593  1.00  0.00     0.042 A 
HETATM   18  C   UNL     1      39.500 -12.227   5.994  1.00  0.00     0.089 A 
HETATM   19  C   UNL     1      39.122 -11.050   6.629  1.00  0.00     0.074 A 
HETATM   20  C   UNL     1      38.717  -9.981   5.842  1.00  0.00     0.068 A 
HETATM   21  C   UNL     1      38.685 -10.090   4.456  1.00  0.00     0.038 A 
HETATM   22  C   UNL     1      39.076 -11.282   3.833  1.00  0.00     0.029 A 
BRANCH  18  23
HETATM   23  O   UNL     1      39.824 -13.310   6.771  1.00  0.00    -0.359 OA
HETATM   24  H   UNL     1      40.233 -13.932   6.136  1.00  0.00     0.218 HD
ENDBRANCH  18  23
BRANCH  20  25
HETATM   25  O   UNL     1      38.325  -8.798   6.396  1.00  0.00    -0.361 OA
HETATM   26  H   UNL     1      39.112  -8.349   6.747  1.00  0.00     0.217 HD
ENDBRANCH  20  25
ENDBRANCH  15  17
ENDBRANCH  14  15
ENDBRANCH   9  14
TORSDOF 5
ENDMDL
MODEL 5
REMARK VINA RESULT:      -8.0      2.744      4.065
REMARK  5 active torsions:
REMARK  status: ('A' for Active; 'I' for Inactive)
REMARK    1  A    between atoms: C_9  and  C_10 
REMARK    2  A    between atoms: C_10  and  N_11 
REMARK    3  A    between atoms: N_11  and  C_12 
REMARK    4  A    between atoms: C_13  and  O_14 
REMARK    5  A    between atoms: C_16  and  O_17 
ROOT
HETATM    1  C   UNL     1      43.834 -20.633   1.560  1.00  0.00     0.048 C 
HETATM    2  C   UNL     1      43.832 -19.890   2.864  1.00  0.00    -0.061 A 
HETATM    3  C   UNL     1      43.641 -18.500   2.894  1.00  0.00     0.020 A 
HETATM    4  C   UNL     1      43.606 -17.817   4.113  1.00  0.00    -0.008 A 
HETATM    5  C   UNL     1      43.752 -18.532   5.305  1.00  0.00     0.045 A 
HETATM    6  N   UNL     1      43.702 -17.846   6.524  1.00  0.00    -0.322 N 
HETATM    7  C   UNL     1      43.511 -16.494   6.631  1.00  0.00     0.253 A 
HETATM    8  O   UNL     1      43.428 -15.960   7.732  1.00  0.00    -0.268 OA
HETATM    9  C   UNL     1      43.391 -15.722   5.357  1.00  0.00     0.024 A 
HETATM   10  C   UNL     1      43.417 -16.368   4.175  1.00  0.00     0.027 A 
HETATM   11  C   UNL     1      43.930 -19.913   5.292  1.00  0.00     0.031 A 
HETATM   12  C   UNL     1      43.965 -20.589   4.071  1.00  0.00     0.009 A 
HETATM   13  H   UNL     1      43.787 -18.348   7.396  1.00  0.00     0.169 HD
ENDROOT
BRANCH   9  14
HETATM   14  C   UNL     1      43.176 -14.241   5.479  1.00  0.00     0.136 C 
BRANCH  14  15
HETATM   15  N   UNL     1      41.764 -13.954   5.229  1.00  0.00    -0.286 NA
HETATM   16  H   UNL     1      41.493 -13.051   5.624  1.00  0.00     0.128 HD
BRANCH  15  17
HETATM   17  C   UNL     1      41.279 -14.024   3.909  1.00  0.00     0.042 A 
HETATM   18  C   UNL     1      40.328 -15.022   3.618  1.00  0.00     0.089 A 
HETATM   19  C   UNL     1      39.749 -15.169   2.363  1.00  0.00     0.074 A 
HETATM   20  C   UNL     1      40.152 -14.310   1.350  1.00  0.00     0.068 A 
HETATM   21  C   UNL     1      41.115 -13.334   1.585  1.00  0.00     0.038 A 
HETATM   22  C   UNL     1      41.683 -13.196   2.859  1.00  0.00     0.029 A 
BRANCH  18  23
HETATM   23  O   UNL     1      39.991 -15.919   4.600  1.00  0.00    -0.359 OA
HETATM   24  H   UNL     1      40.595 -16.672   4.437  1.00  0.00     0.218 HD
ENDBRANCH  18  23
BRANCH  20  25
HETATM   25  O   UNL     1      39.633 -14.401   0.092  1.00  0.00    -0.361 OA
HETATM   26  H   UNL     1      38.664 -14.359   0.158  1.00  0.00     0.217 HD
ENDBRANCH  20  25
ENDBRANCH  15  17
ENDBRANCH  14  15
ENDBRANCH   9  14
TORSDOF 5
ENDMDL
MODEL 6
REMARK VINA RESULT:      -7.9      4.178      7.397
REMARK  5 active torsions:
REMARK  status: ('A' for Active; 'I' for Inactive)
REMARK    1  A    between atoms: C_9  and  C_10 
REMARK    2  A    between atoms: C_10  and  N_11 
REMARK    3  A    between atoms: N_11  and  C_12 
REMARK    4  A    between atoms: C_13  and  O_14 
REMARK    5  A    between atoms: C_16  and  O_17 
ROOT
HETATM    1  C   UNL     1      45.568 -10.821   8.069  1.00  0.00     0.048 C 
HETATM    2  C   UNL     1      44.387 -11.179   7.215  1.00  0.00    -0.061 A 
HETATM    3  C   UNL     1      44.320 -12.427   6.577  1.00  0.00     0.020 A 
HETATM    4  C   UNL     1      43.202 -12.770   5.809  1.00  0.00    -0.008 A 
HETATM    5  C   UNL     1      42.145 -11.862   5.693  1.00  0.00     0.045 A 
HETATM    6  N   UNL     1      41.023 -12.216   4.936  1.00  0.00    -0.322 N 
HETATM    7  C   UNL     1      40.883 -13.417   4.292  1.00  0.00     0.253 A 
HETATM    8  O   UNL     1      39.852 -13.684   3.684  1.00  0.00    -0.268 OA
HETATM    9  C   UNL     1      42.027 -14.374   4.385  1.00  0.00     0.024 A 
HETATM   10  C   UNL     1      43.107 -14.059   5.126  1.00  0.00     0.027 A 
HETATM   11  C   UNL     1      42.193 -10.625   6.330  1.00  0.00     0.031 A 
HETATM   12  C   UNL     1      43.312 -10.288   7.094  1.00  0.00     0.009 A 
HETATM   13  H   UNL     1      40.241 -11.580   4.855  1.00  0.00     0.169 HD
ENDROOT
BRANCH   9  14
HETATM   14  C   UNL     1      41.867 -15.691   3.683  1.00  0.00     0.136 C 
BRANCH  14  15
HETATM   15  N   UNL     1      43.195 -16.189   3.321  1.00  0.00    -0.286 NA
HETATM   16  H   UNL     1      43.921 -15.763   3.900  1.00  0.00     0.128 HD
BRANCH  15  17
HETATM   17  C   UNL     1      43.413 -17.580   3.285  1.00  0.00     0.042 A 
HETATM   18  C   UNL     1      44.042 -18.167   4.399  1.00  0.00     0.089 A 
HETATM   19  C   UNL     1      44.279 -19.533   4.498  1.00  0.00     0.074 A 
HETATM   20  C   UNL     1      43.902 -20.343   3.436  1.00  0.00     0.068 A 
HETATM   21  C   UNL     1      43.310 -19.798   2.301  1.00  0.00     0.038 A 
HETATM   22  C   UNL     1      43.073 -18.420   2.222  1.00  0.00     0.029 A 
BRANCH  18  23
HETATM   23  O   UNL     1      44.485 -17.355   5.412  1.00  0.00    -0.359 OA
HETATM   24  H   UNL     1      43.828 -16.630   5.427  1.00  0.00     0.218 HD
ENDBRANCH  18  23
BRANCH  20  25
HETATM   25  O   UNL     1      44.110 -21.691   3.460  1.00  0.00    -0.361 OA
HETATM   26  H   UNL     1      44.995 -21.857   3.826  1.00  0.00     0.217 HD
ENDBRANCH  20  25
ENDBRANCH  15  17
ENDBRANCH  14  15
ENDBRANCH   9  14
TORSDOF 5
ENDMDL
MODEL 7
REMARK VINA RESULT:      -7.7      1.552      2.031
REMARK  5 active torsions:
REMARK  status: ('A' for Active; 'I' for Inactive)
REMARK    1  A    between atoms: C_9  and  C_10 
REMARK    2  A    between atoms: C_10  and  N_11 
REMARK    3  A    between atoms: N_11  and  C_12 
REMARK    4  A    between atoms: C_13  and  O_14 
REMARK    5  A    between atoms: C_16  and  O_17 
ROOT
HETATM    1  C   UNL     1      43.925 -20.495   2.125  1.00  0.00     0.048 C 
HETATM    2  C   UNL     1      43.713 -19.151   2.758  1.00  0.00    -0.061 A 
HETATM    3  C   UNL     1      42.805 -18.236   2.204  1.00  0.00     0.020 A 
HETATM    4  C   UNL     1      42.587 -16.997   2.816  1.00  0.00    -0.008 A 
HETATM    5  C   UNL     1      43.273 -16.682   3.992  1.00  0.00     0.045 A 
HETATM    6  N   UNL     1      43.040 -15.448   4.609  1.00  0.00    -0.322 N 
HETATM    7  C   UNL     1      42.163 -14.510   4.131  1.00  0.00     0.253 A 
HETATM    8  O   UNL     1      41.969 -13.466   4.747  1.00  0.00    -0.268 OA
HETATM    9  C   UNL     1      41.456 -14.829   2.855  1.00  0.00     0.024 A 
HETATM   10  C   UNL     1      41.652 -16.020   2.258  1.00  0.00     0.027 A 
HETATM   11  C   UNL     1      44.168 -17.585   4.560  1.00  0.00     0.031 A 
HETATM   12  C   UNL     1      44.383 -18.819   3.944  1.00  0.00     0.009 A 
HETATM   13  H   UNL     1      43.513 -15.210   5.470  1.00  0.00     0.169 HD
ENDROOT
BRANCH   9  14
HETATM   14  C   UNL     1      40.493 -13.800   2.338  1.00  0.00     0.136 C 
BRANCH  14  15
HETATM   15  N   UNL     1      41.252 -12.628   1.903  1.00  0.00    -0.286 NA
HETATM   16  H   UNL     1      42.251 -12.743   2.089  1.00  0.00     0.128 HD
BRANCH  15  17
HETATM   17  C   UNL     1      41.097 -12.171   0.579  1.00  0.00     0.042 A 
HETATM   18  C   UNL     1      41.564 -10.876   0.281  1.00  0.00     0.089 A 
HETATM   19  C   UNL     1      41.501 -10.327  -0.994  1.00  0.00     0.074 A 
HETATM   20  C   UNL     1      40.924 -11.082  -2.006  1.00  0.00     0.068 A 
HETATM   21  C   UNL     1      40.418 -12.351  -1.745  1.00  0.00     0.038 A 
HETATM   22  C   UNL     1      40.496 -12.892  -0.455  1.00  0.00     0.029 A 
BRANCH  18  23
HETATM   23  O   UNL     1      42.061 -10.102   1.299  1.00  0.00    -0.359 OA
HETATM   24  H   UNL     1      41.647 -10.485   2.099  1.00  0.00     0.218 HD
ENDBRANCH  18  23
BRANCH  20  25
HETATM   25  O   UNL     1      40.820 -10.605  -3.279  1.00  0.00    -0.361 OA
HETATM   26  H   UNL     1      39.879 -10.472  -3.480  1.00  0.00     0.217 HD
ENDBRANCH  20  25
ENDBRANCH  15  17
ENDBRANCH  14  15
ENDBRANCH   9  14
TORSDOF 5
ENDMDL
MODEL 8
REMARK VINA RESULT:      -7.6      3.365      7.761
REMARK  5 active torsions:
REMARK  status: ('A' for Active; 'I' for Inactive)
REMARK    1  A    between atoms: C_9  and  C_10 
REMARK    2  A    between atoms: C_10  and  N_11 
REMARK    3  A    between atoms: N_11  and  C_12 
REMARK    4  A    between atoms: C_13  and  O_14 
REMARK    5  A    between atoms: C_16  and  O_17 
ROOT
HETATM    1  C   UNL     1      38.471  -9.155   4.682  1.00  0.00     0.048 C 
HETATM    2  C   UNL     1      38.757 -10.419   3.925  1.00  0.00    -0.061 A 
HETATM    3  C   UNL     1      39.459 -11.471   4.532  1.00  0.00     0.020 A 
HETATM    4  C   UNL     1      39.694 -12.660   3.834  1.00  0.00    -0.008 A 
HETATM    5  C   UNL     1      39.213 -12.796   2.528  1.00  0.00     0.045 A 
HETATM    6  N   UNL     1      39.438 -13.993   1.839  1.00  0.00    -0.322 N 
HETATM    7  C   UNL     1      40.107 -15.065   2.369  1.00  0.00     0.253 A 
HETATM    8  O   UNL     1      40.228 -16.104   1.728  1.00  0.00    -0.268 OA
HETATM    9  C   UNL     1      40.652 -14.909   3.751  1.00  0.00     0.024 A 
HETATM   10  C   UNL     1      40.428 -13.772   4.437  1.00  0.00     0.027 A 
HETATM   11  C   UNL     1      38.505 -11.764   1.917  1.00  0.00     0.031 A 
HETATM   12  C   UNL     1      38.275 -10.580   2.618  1.00  0.00     0.009 A 
HETATM   13  H   UNL     1      39.083 -14.116   0.900  1.00  0.00     0.169 HD
ENDROOT
BRANCH   9  14
HETATM   14  C   UNL     1      41.379 -16.088   4.329  1.00  0.00     0.136 C 
BRANCH  14  15
HETATM   15  N   UNL     1      42.558 -16.358   3.506  1.00  0.00    -0.286 NA
HETATM   16  H   UNL     1      43.355 -15.791   3.801  1.00  0.00     0.128 HD
BRANCH  15  17
HETATM   17  C   UNL     1      42.991 -17.690   3.355  1.00  0.00     0.042 A 
HETATM   18  C   UNL     1      43.732 -18.255   4.410  1.00  0.00     0.089 A 
HETATM   19  C   UNL     1      44.183 -19.570   4.395  1.00  0.00     0.074 A 
HETATM   20  C   UNL     1      43.913 -20.344   3.275  1.00  0.00     0.068 A 
HETATM   21  C   UNL     1      43.216 -19.812   2.195  1.00  0.00     0.038 A 
HETATM   22  C   UNL     1      42.763 -18.487   2.231  1.00  0.00     0.029 A 
BRANCH  18  23
HETATM   23  O   UNL     1      44.066 -17.465   5.481  1.00  0.00    -0.359 OA
HETATM   24  H   UNL     1      43.389 -16.758   5.462  1.00  0.00     0.218 HD
ENDBRANCH  18  23
BRANCH  20  25
HETATM   25  O   UNL     1      44.331 -21.639   3.187  1.00  0.00    -0.361 OA
HETATM   26  H   UNL     1      43.553 -22.201   3.036  1.00  0.00     0.217 HD
ENDBRANCH  20  25
ENDBRANCH  15  17
ENDBRANCH  14  15
ENDBRANCH   9  14
TORSDOF 5
ENDMDL
MODEL 9
REMARK VINA RESULT:      -7.5      4.243      5.295
REMARK  5 active torsions:
REMARK  status: ('A' for Active; 'I' for Inactive)
REMARK    1  A    between atoms: C_9  and  C_10 
REMARK    2  A    between atoms: C_10  and  N_11 
REMARK    3  A    between atoms: N_11  and  C_12 
REMARK    4  A    between atoms: C_13  and  O_14 
REMARK    5  A    between atoms: C_16  and  O_17 
ROOT
HETATM    1  C   UNL     1      43.730 -20.540   1.568  1.00  0.00     0.048 C 
HETATM    2  C   UNL     1      43.765 -19.880   2.915  1.00  0.00    -0.061 A 
HETATM    3  C   UNL     1      43.595 -18.492   3.035  1.00  0.00     0.020 A 
HETATM    4  C   UNL     1      43.595 -17.885   4.295  1.00  0.00    -0.008 A 
HETATM    5  C   UNL     1      43.754 -18.676   5.437  1.00  0.00     0.045 A 
HETATM    6  N   UNL     1      43.738 -18.066   6.697  1.00  0.00    -0.322 N 
HETATM    7  C   UNL     1      43.569 -16.721   6.892  1.00  0.00     0.253 A 
HETATM    8  O   UNL     1      43.516 -16.255   8.026  1.00  0.00    -0.268 OA
HETATM    9  C   UNL     1      43.434 -15.869   5.671  1.00  0.00     0.024 A 
HETATM   10  C   UNL     1      43.427 -16.441   4.451  1.00  0.00     0.027 A 
HETATM   11  C   UNL     1      43.912 -20.056   5.334  1.00  0.00     0.031 A 
HETATM   12  C   UNL     1      43.913 -20.654   4.074  1.00  0.00     0.009 A 
HETATM   13  H   UNL     1      43.834 -18.623   7.535  1.00  0.00     0.169 HD
ENDROOT
BRANCH   9  14
HETATM   14  C   UNL     1      43.244 -14.397   5.890  1.00  0.00     0.136 C 
BRANCH  14  15
HETATM   15  N   UNL     1      42.240 -13.912   4.942  1.00  0.00    -0.286 NA
HETATM   16  H   UNL     1      41.319 -14.307   5.143  1.00  0.00     0.128 HD
BRANCH  15  17
HETATM   17  C   UNL     1      42.096 -12.523   4.755  1.00  0.00     0.042 A 
HETATM   18  C   UNL     1      42.310 -12.018   3.458  1.00  0.00     0.089 A 
HETATM   19  C   UNL     1      42.163 -10.673   3.139  1.00  0.00     0.074 A 
HETATM   20  C   UNL     1      41.820  -9.792   4.155  1.00  0.00     0.068 A 
HETATM   21  C   UNL     1      41.636 -10.244   5.457  1.00  0.00     0.038 A 
HETATM   22  C   UNL     1      41.781 -11.605   5.759  1.00  0.00     0.029 A 
BRANCH  18  23
HETATM   23  O   UNL     1      42.727 -12.878   2.474  1.00  0.00    -0.359 OA
HETATM   24  H   UNL     1      43.467 -13.363   2.893  1.00  0.00     0.218 HD
ENDBRANCH  18  23
BRANCH  20  25
HETATM   25  O   UNL     1      41.667  -8.457   3.918  1.00  0.00    -0.361 OA
HETATM   26  H   UNL     1      41.029  -8.347   3.193  1.00  0.00     0.217 HD
ENDBRANCH  20  25
ENDBRANCH  15  17
ENDBRANCH  14  15
ENDBRANCH   9  14
TORSDOF 5
ENDMDL
MODEL 10
REMARK VINA RESULT:      -7.5     14.161     16.755
REMARK  5 active torsions:
REMARK  status: ('A' for Active; 'I' for Inactive)
REMARK    1  A    between atoms: C_9  and  C_10 
REMARK    2  A    between atoms: C_10  and  N_11 
REMARK    3  A    between atoms: N_11  and  C_12 
REMARK    4  A    between atoms: C_13  and  O_14 
REMARK    5  A    between atoms: C_16  and  O_17 
ROOT
HETATM    1  C   UNL     1      43.953 -31.097  -7.795  1.00  0.00     0.048 C 
HETATM    2  C   UNL     1      44.071 -31.376  -6.325  1.00  0.00    -0.061 A 
HETATM    3  C   UNL     1      43.983 -30.333  -5.391  1.00  0.00     0.020 A 
HETATM    4  C   UNL     1      44.060 -30.602  -4.021  1.00  0.00    -0.008 A 
HETATM    5  C   UNL     1      44.215 -31.923  -3.588  1.00  0.00     0.045 A 
HETATM    6  N   UNL     1      44.276 -32.189  -2.216  1.00  0.00    -0.322 N 
HETATM    7  C   UNL     1      44.190 -31.225  -1.247  1.00  0.00     0.253 A 
HETATM    8  O   UNL     1      44.202 -31.531  -0.059  1.00  0.00    -0.268 OA
HETATM    9  C   UNL     1      44.061 -29.809  -1.707  1.00  0.00     0.024 A 
HETATM   10  C   UNL     1      43.979 -29.536  -3.023  1.00  0.00     0.027 A 
HETATM   11  C   UNL     1      44.292 -32.970  -4.504  1.00  0.00     0.031 A 
HETATM   12  C   UNL     1      44.215 -32.694  -5.870  1.00  0.00     0.009 A 
HETATM   13  H   UNL     1      44.370 -33.139  -1.884  1.00  0.00     0.169 HD
ENDROOT
BRANCH   9  14
HETATM   14  C   UNL     1      43.960 -28.757  -0.642  1.00  0.00     0.136 C 
BRANCH  14  15
HETATM   15  N   UNL     1      45.059 -27.807  -0.821  1.00  0.00    -0.286 NA
HETATM   16  H   UNL     1      44.942 -26.988  -0.221  1.00  0.00     0.128 HD
BRANCH  15  17
HETATM   17  C   UNL     1      46.384 -28.267  -0.692  1.00  0.00     0.042 A 
HETATM   18  C   UNL     1      46.905 -28.389   0.610  1.00  0.00     0.089 A 
HETATM   19  C   UNL     1      48.185 -28.866   0.868  1.00  0.00     0.074 A 
HETATM   20  C   UNL     1      48.988 -29.207  -0.211  1.00  0.00     0.068 A 
HETATM   21  C   UNL     1      48.524 -29.068  -1.515  1.00  0.00     0.038 A 
HETATM   22  C   UNL     1      47.229 -28.592  -1.756  1.00  0.00     0.029 A 
BRANCH  18  23
HETATM   23  O   UNL     1      46.139 -27.976   1.670  1.00  0.00    -0.359 OA
HETATM   24  H   UNL     1      45.452 -28.670   1.740  1.00  0.00     0.218 HD
ENDBRANCH  18  23
BRANCH  20  25
HETATM   25  O   UNL     1      50.257 -29.675  -0.034  1.00  0.00    -0.361 OA
HETATM   26  H   UNL     1      50.213 -30.478   0.511  1.00  0.00     0.217 HD
ENDBRANCH  20  25
ENDBRANCH  15  17
ENDBRANCH  14  15
ENDBRANCH   9  14
TORSDOF 5
ENDMDL
