MODEL 1
REMARK VINA RESULT:      -8.0      0.000      0.000
REMARK  11 active torsions:
REMARK  status: ('A' for Active; 'I' for Inactive)
REMARK    1  A    between atoms: C_2  and  O_3 
REMARK    2  A    between atoms: O_3  and  C_4 
REMARK    3  A    between atoms: C_5  and  O_6 
REMARK    4  A    between atoms: C_9  and  C_10 
REMARK    5  A    between atoms: N_11  and  C_12 
REMARK    6  A    between atoms: C_12  and  C_13 
REMARK    7  A    between atoms: C_13  and  C_14 
REMARK    8  A    between atoms: C_14  and  N_15 
REMARK    9  A    between atoms: C_27  and  O_28 
REMARK   10  A    between atoms: C_27  and  C_29 
REMARK   11  A    between atoms: C_30  and  C_31 
ROOT
HETATM    1  C   UNL     1      43.135 -14.880   3.526  1.00  0.00     0.161 C 
HETATM    2  N   UNL     1      42.389 -15.765   2.630  1.00  0.00    -0.332 N 
HETATM    3  C   UNL     1      42.526 -17.086   3.002  1.00  0.00     0.295 C 
HETATM    4  O   UNL     1      42.280 -18.059   2.313  1.00  0.00    -0.264 OA
HETATM    5  C   UNL     1      43.271 -15.669   4.810  1.00  0.00     0.058 C 
HETATM    6  C   UNL     1      43.123 -17.089   4.413  1.00  0.00     0.250 C 
HETATM    7  O   UNL     1      43.418 -18.069   5.061  1.00  0.00    -0.282 OA
HETATM    8  C   UNL     1      43.443 -15.330   6.098  1.00  0.00     0.078 C 
ENDROOT
BRANCH   1   9
HETATM    9  C   UNL     1      42.626 -13.461   3.596  1.00  0.00    -0.028 A 
HETATM   10  C   UNL     1      43.398 -12.367   3.174  1.00  0.00     0.012 A 
HETATM   11  C   UNL     1      42.872 -11.077   3.223  1.00  0.00     0.040 A 
HETATM   12  C   UNL     1      41.578 -10.879   3.688  1.00  0.00     0.099 A 
HETATM   13  C   UNL     1      40.781 -11.945   4.116  1.00  0.00     0.102 A 
HETATM   14  C   UNL     1      41.311 -13.233   4.064  1.00  0.00     0.049 A 
BRANCH  12  15
HETATM   15  O   UNL     1      41.090  -9.602   3.713  1.00  0.00    -0.358 OA
HETATM   16  H   UNL     1      40.314  -9.608   3.119  1.00  0.00     0.218 HD
ENDBRANCH  12  15
BRANCH  13  17
HETATM   17  O   UNL     1      39.528 -11.605   4.551  1.00  0.00    -0.349 OA
BRANCH  17  18
HETATM   18  C   UNL     1      39.232 -11.840   5.929  1.00  0.00     0.171 C 
HETATM   19  C   UNL     1      39.015 -10.500   6.608  1.00  0.00     0.034 C 
ENDBRANCH  17  18
ENDBRANCH  13  17
ENDBRANCH   1   9
BRANCH   2  20
HETATM   20  C   UNL     1      41.892 -15.376   1.318  1.00  0.00     0.129 C 
BRANCH  20  21
HETATM   21  C   UNL     1      40.372 -15.282   1.191  1.00  0.00     0.048 C 
BRANCH  21  22
HETATM   22  C   UNL     1      39.768 -13.904   0.917  1.00  0.00     0.236 C 
BRANCH  22  23
HETATM   23  N   UNL     1      39.436 -13.636  -0.525  1.00  0.00    -0.067 N 
HETATM   24  H   UNL     1      38.482 -13.217  -0.557  1.00  0.00     0.280 HD
HETATM   25  C   UNL     1      40.403 -12.715  -1.256  1.00  0.00     0.261 C 
HETATM   26  C   UNL     1      39.948 -12.532  -2.709  1.00  0.00     0.195 C 
HETATM   27  O   UNL     1      39.856 -13.794  -3.377  1.00  0.00    -0.388 OA
HETATM   28  C   UNL     1      38.890 -14.647  -2.754  1.00  0.00     0.195 C 
HETATM   29  C   UNL     1      39.287 -14.946  -1.305  1.00  0.00     0.261 C 
ENDBRANCH  22  23
ENDBRANCH  21  22
ENDBRANCH  20  21
ENDBRANCH   2  20
BRANCH   8  30
HETATM   30  O   UNL     1      43.612 -16.246   7.115  1.00  0.00    -0.360 OA
HETATM   31  H   UNL     1      43.474 -17.158   6.784  1.00  0.00     0.217 HD
ENDBRANCH   8  30
BRANCH   8  32
HETATM   32  C   UNL     1      43.376 -13.973   6.581  1.00  0.00     0.038 C 
HETATM   33  C   UNL     1      44.392 -13.104   6.662  1.00  0.00     0.014 C 
BRANCH  33  34
HETATM   34  C   UNL     1      44.160 -11.740   7.159  1.00  0.00    -0.036 A 
HETATM   35  C   UNL     1      42.922 -11.103   6.990  1.00  0.00     0.011 A 
HETATM   36  C   UNL     1      42.734  -9.788   7.421  1.00  0.00     0.001 A 
HETATM   37  C   UNL     1      43.778  -9.102   8.036  1.00  0.00     0.000 A 
HETATM   38  C   UNL     1      45.006  -9.734   8.230  1.00  0.00     0.001 A 
HETATM   39  C   UNL     1      45.195 -11.050   7.798  1.00  0.00     0.011 A 
ENDBRANCH  33  34
ENDBRANCH   8  32
TORSDOF 11
ENDMDL
MODEL 2
REMARK VINA RESULT:      -8.0      2.155      7.199
REMARK  11 active torsions:
REMARK  status: ('A' for Active; 'I' for Inactive)
REMARK    1  A    between atoms: C_2  and  O_3 
REMARK    2  A    between atoms: O_3  and  C_4 
REMARK    3  A    between atoms: C_5  and  O_6 
REMARK    4  A    between atoms: C_9  and  C_10 
REMARK    5  A    between atoms: N_11  and  C_12 
REMARK    6  A    between atoms: C_12  and  C_13 
REMARK    7  A    between atoms: C_13  and  C_14 
REMARK    8  A    between atoms: C_14  and  N_15 
REMARK    9  A    between atoms: C_27  and  O_28 
REMARK   10  A    between atoms: C_27  and  C_29 
REMARK   11  A    between atoms: C_30  and  C_31 
ROOT
HETATM    1  C   UNL     1      42.273 -15.144   4.772  1.00  0.00     0.161 C 
HETATM    2  N   UNL     1      43.169 -15.154   5.929  1.00  0.00    -0.332 N 
HETATM    3  C   UNL     1      43.781 -16.381   6.078  1.00  0.00     0.295 C 
HETATM    4  O   UNL     1      44.338 -16.793   7.079  1.00  0.00    -0.264 OA
HETATM    5  C   UNL     1      42.797 -16.246   3.877  1.00  0.00     0.058 C 
HETATM    6  C   UNL     1      43.550 -17.152   4.775  1.00  0.00     0.250 C 
HETATM    7  O   UNL     1      43.913 -18.285   4.541  1.00  0.00    -0.282 OA
HETATM    8  C   UNL     1      42.734 -16.483   2.556  1.00  0.00     0.078 C 
ENDROOT
BRANCH   1   9
HETATM    9  C   UNL     1      42.013 -13.783   4.173  1.00  0.00    -0.028 A 
HETATM   10  C   UNL     1      43.044 -12.981   3.659  1.00  0.00     0.012 A 
HETATM   11  C   UNL     1      42.752 -11.747   3.081  1.00  0.00     0.040 A 
HETATM   12  C   UNL     1      41.432 -11.316   3.012  1.00  0.00     0.099 A 
HETATM   13  C   UNL     1      40.381 -12.089   3.513  1.00  0.00     0.102 A 
HETATM   14  C   UNL     1      40.678 -13.322   4.089  1.00  0.00     0.049 A 
BRANCH  12  15
HETATM   15  O   UNL     1      41.181 -10.105   2.430  1.00  0.00    -0.358 OA
HETATM   16  H   UNL     1      40.582  -9.639   3.046  1.00  0.00     0.218 HD
ENDBRANCH  12  15
BRANCH  13  17
HETATM   17  O   UNL     1      39.134 -11.539   3.380  1.00  0.00    -0.349 OA
BRANCH  17  18
HETATM   18  C   UNL     1      38.304 -12.053   2.336  1.00  0.00     0.171 C 
HETATM   19  C   UNL     1      37.888 -10.898   1.444  1.00  0.00     0.034 C 
ENDBRANCH  17  18
ENDBRANCH  13  17
ENDBRANCH   1   9
BRANCH   2  20
HETATM   20  C   UNL     1      43.143 -14.166   6.997  1.00  0.00     0.129 C 
BRANCH  20  21
HETATM   21  C   UNL     1      44.118 -13.000   6.840  1.00  0.00     0.048 C 
BRANCH  21  22
HETATM   22  C   UNL     1      43.539 -11.585   6.858  1.00  0.00     0.236 C 
BRANCH  22  23
HETATM   23  N   UNL     1      44.296 -10.605   7.711  1.00  0.00    -0.067 N 
HETATM   24  H   UNL     1      44.355 -11.002   8.672  1.00  0.00     0.280 HD
HETATM   25  C   UNL     1      45.701 -10.271   7.229  1.00  0.00     0.261 C 
HETATM   26  C   UNL     1      46.352  -9.264   8.184  1.00  0.00     0.195 C 
HETATM   27  O   UNL     1      45.564  -8.075   8.289  1.00  0.00    -0.388 OA
HETATM   28  C   UNL     1      44.263  -8.355   8.819  1.00  0.00     0.195 C 
HETATM   29  C   UNL     1      43.497  -9.310   7.898  1.00  0.00     0.261 C 
ENDBRANCH  22  23
ENDBRANCH  21  22
ENDBRANCH  20  21
ENDBRANCH   2  20
BRANCH   8  30
HETATM   30  O   UNL     1      43.242 -17.616   1.956  1.00  0.00    -0.360 OA
HETATM   31  H   UNL     1      44.221 -17.579   1.924  1.00  0.00     0.217 HD
ENDBRANCH   8  30
BRANCH   8  32
HETATM   32  C   UNL     1      42.211 -15.537   1.601  1.00  0.00     0.038 C 
HETATM   33  C   UNL     1      40.952 -15.477   1.145  1.00  0.00     0.014 C 
BRANCH  33  34
HETATM   34  C   UNL     1      40.565 -14.436   0.183  1.00  0.00    -0.036 A 
HETATM   35  C   UNL     1      41.184 -13.178   0.180  1.00  0.00     0.011 A 
HETATM   36  C   UNL     1      40.768 -12.182  -0.706  1.00  0.00     0.001 A 
HETATM   37  C   UNL     1      39.737 -12.439  -1.606  1.00  0.00     0.000 A 
HETATM   38  C   UNL     1      39.130 -13.694  -1.627  1.00  0.00     0.001 A 
HETATM   39  C   UNL     1      39.545 -14.691  -0.740  1.00  0.00     0.011 A 
ENDBRANCH  33  34
ENDBRANCH   8  32
TORSDOF 11
ENDMDL
MODEL 3
REMARK VINA RESULT:      -7.9      2.828      7.852
REMARK  11 active torsions:
REMARK  status: ('A' for Active; 'I' for Inactive)
REMARK    1  A    between atoms: C_2  and  O_3 
REMARK    2  A    between atoms: O_3  and  C_4 
REMARK    3  A    between atoms: C_5  and  O_6 
REMARK    4  A    between atoms: C_9  and  C_10 
REMARK    5  A    between atoms: N_11  and  C_12 
REMARK    6  A    between atoms: C_12  and  C_13 
REMARK    7  A    between atoms: C_13  and  C_14 
REMARK    8  A    between atoms: C_14  and  N_15 
REMARK    9  A    between atoms: C_27  and  O_28 
REMARK   10  A    between atoms: C_27  and  C_29 
REMARK   11  A    between atoms: C_30  and  C_31 
ROOT
HETATM    1  C   UNL     1      40.647 -12.221   3.254  1.00  0.00     0.161 C 
HETATM    2  N   UNL     1      39.607 -11.227   3.523  1.00  0.00    -0.332 N 
HETATM    3  C   UNL     1      38.812 -11.020   2.415  1.00  0.00     0.295 C 
HETATM    4  O   UNL     1      38.068 -10.075   2.227  1.00  0.00    -0.264 OA
HETATM    5  C   UNL     1      40.100 -13.038   2.103  1.00  0.00     0.058 C 
HETATM    6  C   UNL     1      39.109 -12.161   1.438  1.00  0.00     0.250 C 
HETATM    7  O   UNL     1      38.625 -12.302   0.336  1.00  0.00    -0.282 OA
HETATM    8  C   UNL     1      40.311 -14.291   1.668  1.00  0.00     0.078 C 
ENDROOT
BRANCH   1   9
HETATM    9  C   UNL     1      41.179 -12.940   4.468  1.00  0.00    -0.028 A 
HETATM   10  C   UNL     1      40.412 -13.877   5.180  1.00  0.00     0.012 A 
HETATM   11  C   UNL     1      40.958 -14.545   6.275  1.00  0.00     0.040 A 
HETATM   12  C   UNL     1      42.268 -14.282   6.656  1.00  0.00     0.099 A 
HETATM   13  C   UNL     1      43.061 -13.357   5.970  1.00  0.00     0.102 A 
HETATM   14  C   UNL     1      42.510 -12.693   4.876  1.00  0.00     0.049 A 
BRANCH  12  15
HETATM   15  O   UNL     1      42.775 -14.963   7.728  1.00  0.00    -0.358 OA
HETATM   16  H   UNL     1      43.399 -14.345   8.157  1.00  0.00     0.218 HD
ENDBRANCH  12  15
BRANCH  13  17
HETATM   17  O   UNL     1      44.331 -13.197   6.457  1.00  0.00    -0.349 OA
BRANCH  17  18
HETATM   18  C   UNL     1      44.639 -11.943   7.069  1.00  0.00     0.171 C 
HETATM   19  C   UNL     1      45.779 -11.303   6.298  1.00  0.00     0.034 C 
ENDBRANCH  17  18
ENDBRANCH  13  17
ENDBRANCH   1   9
BRANCH   2  20
HETATM   20  C   UNL     1      39.625 -10.303   4.648  1.00  0.00     0.129 C 
BRANCH  20  21
HETATM   21  C   UNL     1      38.653 -10.626   5.782  1.00  0.00     0.048 C 
BRANCH  21  22
HETATM   22  C   UNL     1      39.243 -10.912   7.163  1.00  0.00     0.236 C 
BRANCH  22  23
HETATM   23  N   UNL     1      39.459  -9.696   8.020  1.00  0.00    -0.067 N 
HETATM   24  H   UNL     1      38.937  -8.906   7.585  1.00  0.00     0.280 HD
HETATM   25  C   UNL     1      39.020  -9.836   9.471  1.00  0.00     0.261 C 
HETATM   26  C   UNL     1      39.300  -8.532  10.227  1.00  0.00     0.195 C 
HETATM   27  O   UNL     1      40.686  -8.186  10.154  1.00  0.00    -0.388 OA
HETATM   28  C   UNL     1      41.101  -7.968   8.801  1.00  0.00     0.195 C 
HETATM   29  C   UNL     1      40.922  -9.242   7.969  1.00  0.00     0.261 C 
ENDBRANCH  22  23
ENDBRANCH  21  22
ENDBRANCH  20  21
ENDBRANCH   2  20
BRANCH   8  30
HETATM   30  O   UNL     1      39.735 -14.814   0.529  1.00  0.00    -0.360 OA
HETATM   31  H   UNL     1      39.433 -15.732   0.687  1.00  0.00     0.217 HD
ENDBRANCH   8  30
BRANCH   8  32
HETATM   32  C   UNL     1      41.091 -15.265   2.391  1.00  0.00     0.038 C 
HETATM   33  C   UNL     1      42.148 -15.946   1.926  1.00  0.00     0.014 C 
BRANCH  33  34
HETATM   34  C   UNL     1      42.856 -16.895   2.797  1.00  0.00    -0.036 A 
HETATM   35  C   UNL     1      43.293 -16.525   4.078  1.00  0.00     0.011 A 
HETATM   36  C   UNL     1      44.010 -17.422   4.872  1.00  0.00     0.001 A 
HETATM   37  C   UNL     1      44.286 -18.702   4.398  1.00  0.00     0.000 A 
HETATM   38  C   UNL     1      43.835 -19.089   3.137  1.00  0.00     0.001 A 
HETATM   39  C   UNL     1      43.118 -18.191   2.341  1.00  0.00     0.011 A 
ENDBRANCH  33  34
ENDBRANCH   8  32
TORSDOF 11
ENDMDL
MODEL 4
REMARK VINA RESULT:      -7.8      4.983      7.721
REMARK  11 active torsions:
REMARK  status: ('A' for Active; 'I' for Inactive)
REMARK    1  A    between atoms: C_2  and  O_3 
REMARK    2  A    between atoms: O_3  and  C_4 
REMARK    3  A    between atoms: C_5  and  O_6 
REMARK    4  A    between atoms: C_9  and  C_10 
REMARK    5  A    between atoms: N_11  and  C_12 
REMARK    6  A    between atoms: C_12  and  C_13 
REMARK    7  A    between atoms: C_13  and  C_14 
REMARK    8  A    between atoms: C_14  and  N_15 
REMARK    9  A    between atoms: C_27  and  O_28 
REMARK   10  A    between atoms: C_27  and  C_29 
REMARK   11  A    between atoms: C_30  and  C_31 
ROOT
HETATM    1  C   UNL     1      42.405  -9.131   8.657  1.00  0.00     0.161 C 
HETATM    2  N   UNL     1      42.016  -9.800   7.414  1.00  0.00    -0.332 N 
HETATM    3  C   UNL     1      43.046 -10.569   6.915  1.00  0.00     0.295 C 
HETATM    4  O   UNL     1      43.140 -11.002   5.781  1.00  0.00    -0.264 OA
HETATM    5  C   UNL     1      43.533  -9.978   9.206  1.00  0.00     0.058 C 
HETATM    6  C   UNL     1      44.084 -10.700   8.035  1.00  0.00     0.250 C 
HETATM    7  O   UNL     1      45.145 -11.279   7.960  1.00  0.00    -0.282 OA
HETATM    8  C   UNL     1      44.027 -10.188  10.437  1.00  0.00     0.078 C 
ENDROOT
BRANCH   1   9
HETATM    9  C   UNL     1      41.263  -8.761   9.571  1.00  0.00    -0.028 A 
HETATM   10  C   UNL     1      40.381  -9.720  10.095  1.00  0.00     0.012 A 
HETATM   11  C   UNL     1      39.363  -9.335  10.966  1.00  0.00     0.040 A 
HETATM   12  C   UNL     1      39.229  -7.997  11.318  1.00  0.00     0.099 A 
HETATM   13  C   UNL     1      40.089  -7.017  10.817  1.00  0.00     0.102 A 
HETATM   14  C   UNL     1      41.106  -7.406   9.947  1.00  0.00     0.049 A 
BRANCH  12  15
HETATM   15  O   UNL     1      38.226  -7.657  12.182  1.00  0.00    -0.358 OA
HETATM   16  H   UNL     1      37.395  -7.860  11.711  1.00  0.00     0.218 HD
ENDBRANCH  12  15
BRANCH  13  17
HETATM   17  O   UNL     1      39.839  -5.740  11.245  1.00  0.00    -0.349 OA
BRANCH  17  18
HETATM   18  C   UNL     1      40.764  -5.172  12.174  1.00  0.00     0.171 C 
HETATM   19  C   UNL     1      40.032  -4.905  13.476  1.00  0.00     0.034 C 
ENDBRANCH  17  18
ENDBRANCH  13  17
ENDBRANCH   1   9
BRANCH   2  20
HETATM   20  C   UNL     1      40.866  -9.425   6.605  1.00  0.00     0.129 C 
BRANCH  20  21
HETATM   21  C   UNL     1      39.747 -10.463   6.529  1.00  0.00     0.048 C 
BRANCH  21  22
HETATM   22  C   UNL     1      39.499 -11.140   5.180  1.00  0.00     0.236 C 
BRANCH  22  23
HETATM   23  N   UNL     1      40.342 -12.358   4.922  1.00  0.00    -0.067 N 
HETATM   24  H   UNL     1      41.299 -12.033   4.668  1.00  0.00     0.280 HD
HETATM   25  C   UNL     1      40.448 -13.335   6.085  1.00  0.00     0.261 C 
HETATM   26  C   UNL     1      41.328 -14.525   5.686  1.00  0.00     0.195 C 
HETATM   27  O   UNL     1      40.805 -15.181   4.527  1.00  0.00    -0.388 OA
HETATM   28  C   UNL     1      40.773 -14.302   3.397  1.00  0.00     0.195 C 
HETATM   29  C   UNL     1      39.862 -13.101   3.671  1.00  0.00     0.261 C 
ENDBRANCH  22  23
ENDBRANCH  21  22
ENDBRANCH  20  21
ENDBRANCH   2  20
BRANCH   8  30
HETATM   30  O   UNL     1      45.131 -10.972  10.696  1.00  0.00    -0.360 OA
HETATM   31  H   UNL     1      45.951 -10.438  10.650  1.00  0.00     0.217 HD
ENDBRANCH   8  30
BRANCH   8  32
HETATM   32  C   UNL     1      43.404  -9.692  11.640  1.00  0.00     0.038 C 
HETATM   33  C   UNL     1      43.608  -8.497  12.209  1.00  0.00     0.014 C 
BRANCH  33  34
HETATM   34  C   UNL     1      42.878  -8.127  13.431  1.00  0.00    -0.036 A 
HETATM   35  C   UNL     1      43.289  -7.048  14.228  1.00  0.00     0.011 A 
HETATM   36  C   UNL     1      42.616  -6.742  15.412  1.00  0.00     0.001 A 
HETATM   37  C   UNL     1      41.518  -7.504  15.805  1.00  0.00     0.000 A 
HETATM   38  C   UNL     1      41.087  -8.564  15.008  1.00  0.00     0.001 A 
HETATM   39  C   UNL     1      41.761  -8.871  13.822  1.00  0.00     0.011 A 
ENDBRANCH  33  34
ENDBRANCH   8  32
TORSDOF 11
ENDMDL
MODEL 5
REMARK VINA RESULT:      -7.6      2.644      7.252
REMARK  11 active torsions:
REMARK  status: ('A' for Active; 'I' for Inactive)
REMARK    1  A    between atoms: C_2  and  O_3 
REMARK    2  A    between atoms: O_3  and  C_4 
REMARK    3  A    between atoms: C_5  and  O_6 
REMARK    4  A    between atoms: C_9  and  C_10 
REMARK    5  A    between atoms: N_11  and  C_12 
REMARK    6  A    between atoms: C_12  and  C_13 
REMARK    7  A    between atoms: C_13  and  C_14 
REMARK    8  A    between atoms: C_14  and  N_15 
REMARK    9  A    between atoms: C_27  and  O_28 
REMARK   10  A    between atoms: C_27  and  C_29 
REMARK   11  A    between atoms: C_30  and  C_31 
ROOT
HETATM    1  C   UNL     1      40.686 -12.094   2.119  1.00  0.00     0.161 C 
HETATM    2  N   UNL     1      39.676 -11.038   2.215  1.00  0.00    -0.332 N 
HETATM    3  C   UNL     1      38.867 -11.015   1.098  1.00  0.00     0.295 C 
HETATM    4  O   UNL     1      38.145 -10.099   0.748  1.00  0.00    -0.264 OA
HETATM    5  C   UNL     1      40.098 -13.092   1.145  1.00  0.00     0.058 C 
HETATM    6  C   UNL     1      39.118 -12.324   0.342  1.00  0.00     0.250 C 
HETATM    7  O   UNL     1      38.611 -12.650  -0.709  1.00  0.00    -0.282 OA
HETATM    8  C   UNL     1      40.269 -14.409   0.944  1.00  0.00     0.078 C 
ENDROOT
BRANCH   1   9
HETATM    9  C   UNL     1      41.219 -12.594   3.438  1.00  0.00    -0.028 A 
HETATM   10  C   UNL     1      42.550 -12.384   3.836  1.00  0.00     0.012 A 
HETATM   11  C   UNL     1      42.988 -12.832   5.081  1.00  0.00     0.040 A 
HETATM   12  C   UNL     1      42.101 -13.483   5.929  1.00  0.00     0.099 A 
HETATM   13  C   UNL     1      40.770 -13.708   5.566  1.00  0.00     0.102 A 
HETATM   14  C   UNL     1      40.336 -13.258   4.321  1.00  0.00     0.049 A 
BRANCH  12  15
HETATM   15  O   UNL     1      42.562 -13.900   7.147  1.00  0.00    -0.358 OA
HETATM   16  H   UNL     1      41.789 -14.290   7.599  1.00  0.00     0.218 HD
ENDBRANCH  12  15
BRANCH  13  17
HETATM   17  O   UNL     1      40.010 -14.363   6.498  1.00  0.00    -0.349 OA
BRANCH  17  18
HETATM   18  C   UNL     1      40.246 -15.763   6.662  1.00  0.00     0.171 C 
HETATM   19  C   UNL     1      40.131 -16.430   5.303  1.00  0.00     0.034 C 
ENDBRANCH  17  18
ENDBRANCH  13  17
ENDBRANCH   1   9
BRANCH   2  20
HETATM   20  C   UNL     1      39.737  -9.925   3.151  1.00  0.00     0.129 C 
BRANCH  20  21
HETATM   21  C   UNL     1      38.585  -9.841   4.151  1.00  0.00     0.048 C 
BRANCH  21  22
HETATM   22  C   UNL     1      38.895 -10.145   5.617  1.00  0.00     0.236 C 
BRANCH  22  23
HETATM   23  N   UNL     1      39.898  -9.224   6.253  1.00  0.00    -0.067 N 
HETATM   24  H   UNL     1      40.216  -8.550   5.524  1.00  0.00     0.280 HD
HETATM   25  C   UNL     1      39.393  -8.442   7.458  1.00  0.00     0.261 C 
HETATM   26  C   UNL     1      40.512  -7.550   8.006  1.00  0.00     0.195 C 
HETATM   27  O   UNL     1      41.659  -8.329   8.360  1.00  0.00    -0.388 OA
HETATM   28  C   UNL     1      42.201  -9.009   7.223  1.00  0.00     0.195 C 
HETATM   29  C   UNL     1      41.174  -9.982   6.634  1.00  0.00     0.261 C 
ENDBRANCH  22  23
ENDBRANCH  21  22
ENDBRANCH  20  21
ENDBRANCH   2  20
BRANCH   8  30
HETATM   30  O   UNL     1      39.660 -15.115  -0.072  1.00  0.00    -0.360 OA
HETATM   31  H   UNL     1      39.465 -16.031   0.214  1.00  0.00     0.217 HD
ENDBRANCH   8  30
BRANCH   8  32
HETATM   32  C   UNL     1      41.036 -15.256   1.824  1.00  0.00     0.038 C 
HETATM   33  C   UNL     1      42.236 -15.796   1.567  1.00  0.00     0.014 C 
BRANCH  33  34
HETATM   34  C   UNL     1      42.904 -16.625   2.579  1.00  0.00    -0.036 A 
HETATM   35  C   UNL     1      43.133 -17.993   2.368  1.00  0.00     0.011 A 
HETATM   36  C   UNL     1      43.722 -18.778   3.361  1.00  0.00     0.001 A 
HETATM   37  C   UNL     1      44.100 -18.200   4.570  1.00  0.00     0.000 A 
HETATM   38  C   UNL     1      43.899 -16.837   4.782  1.00  0.00     0.001 A 
HETATM   39  C   UNL     1      43.308 -16.051   3.789  1.00  0.00     0.011 A 
ENDBRANCH  33  34
ENDBRANCH   8  32
TORSDOF 11
ENDMDL
MODEL 6
REMARK VINA RESULT:      -7.2      1.594      2.078
REMARK  11 active torsions:
REMARK  status: ('A' for Active; 'I' for Inactive)
REMARK    1  A    between atoms: C_2  and  O_3 
REMARK    2  A    between atoms: O_3  and  C_4 
REMARK    3  A    between atoms: C_5  and  O_6 
REMARK    4  A    between atoms: C_9  and  C_10 
REMARK    5  A    between atoms: N_11  and  C_12 
REMARK    6  A    between atoms: C_12  and  C_13 
REMARK    7  A    between atoms: C_13  and  C_14 
REMARK    8  A    between atoms: C_14  and  N_15 
REMARK    9  A    between atoms: C_27  and  O_28 
REMARK   10  A    between atoms: C_27  and  C_29 
REMARK   11  A    between atoms: C_30  and  C_31 
ROOT
HETATM    1  C   UNL     1      41.854 -13.501   4.209  1.00  0.00     0.161 C 
HETATM    2  N   UNL     1      40.690 -14.199   3.660  1.00  0.00    -0.332 N 
HETATM    3  C   UNL     1      40.803 -15.565   3.818  1.00  0.00     0.295 C 
HETATM    4  O   UNL     1      40.163 -16.415   3.228  1.00  0.00    -0.264 OA
HETATM    5  C   UNL     1      42.427 -14.464   5.227  1.00  0.00     0.058 C 
HETATM    6  C   UNL     1      41.942 -15.802   4.815  1.00  0.00     0.250 C 
HETATM    7  O   UNL     1      42.359 -16.880   5.179  1.00  0.00    -0.282 OA
HETATM    8  C   UNL     1      43.176 -14.315   6.332  1.00  0.00     0.078 C 
ENDROOT
BRANCH   1   9
HETATM    9  C   UNL     1      41.611 -12.070   4.619  1.00  0.00    -0.028 A 
HETATM   10  C   UNL     1      42.406 -11.011   4.151  1.00  0.00     0.012 A 
HETATM   11  C   UNL     1      42.121  -9.700   4.528  1.00  0.00     0.040 A 
HETATM   12  C   UNL     1      41.042  -9.445   5.366  1.00  0.00     0.099 A 
HETATM   13  C   UNL     1      40.229 -10.474   5.849  1.00  0.00     0.102 A 
HETATM   14  C   UNL     1      40.518 -11.783   5.469  1.00  0.00     0.049 A 
BRANCH  12  15
HETATM   15  O   UNL     1      40.784  -8.146   5.707  1.00  0.00    -0.358 OA
HETATM   16  H   UNL     1      41.632  -7.674   5.593  1.00  0.00     0.218 HD
ENDBRANCH  12  15
BRANCH  13  17
HETATM   17  O   UNL     1      39.204 -10.078   6.667  1.00  0.00    -0.349 OA
BRANCH  17  18
HETATM   18  C   UNL     1      39.253 -10.511   8.028  1.00  0.00     0.171 C 
HETATM   19  C   UNL     1      39.694  -9.339   8.886  1.00  0.00     0.034 C 
ENDBRANCH  17  18
ENDBRANCH  13  17
ENDBRANCH   1   9
BRANCH   2  20
HETATM   20  C   UNL     1      39.732 -13.601   2.742  1.00  0.00     0.129 C 
BRANCH  20  21
HETATM   21  C   UNL     1      39.949 -13.919   1.264  1.00  0.00     0.048 C 
BRANCH  21  22
HETATM   22  C   UNL     1      41.191 -13.336   0.588  1.00  0.00     0.236 C 
BRANCH  22  23
HETATM   23  N   UNL     1      41.014 -12.987  -0.864  1.00  0.00    -0.067 N 
HETATM   24  H   UNL     1      41.886 -13.263  -1.363  1.00  0.00     0.280 HD
HETATM   25  C   UNL     1      39.825 -13.644  -1.551  1.00  0.00     0.261 C 
HETATM   26  C   UNL     1      39.762 -13.201  -3.017  1.00  0.00     0.195 C 
HETATM   27  O   UNL     1      39.675 -11.776  -3.118  1.00  0.00    -0.388 OA
HETATM   28  C   UNL     1      40.825 -11.140  -2.549  1.00  0.00     0.195 C 
HETATM   29  C   UNL     1      40.944 -11.469  -1.058  1.00  0.00     0.261 C 
ENDBRANCH  22  23
ENDBRANCH  21  22
ENDBRANCH  20  21
ENDBRANCH   2  20
BRANCH   8  30
HETATM   30  O   UNL     1      43.647 -15.368   7.086  1.00  0.00    -0.360 OA
HETATM   31  H   UNL     1      43.570 -16.209   6.589  1.00  0.00     0.217 HD
ENDBRANCH   8  30
BRANCH   8  32
HETATM   32  C   UNL     1      43.497 -13.033   6.909  1.00  0.00     0.038 C 
HETATM   33  C   UNL     1      44.649 -12.362   6.773  1.00  0.00     0.014 C 
BRANCH  33  34
HETATM   34  C   UNL     1      44.817 -11.048   7.410  1.00  0.00    -0.036 A 
HETATM   35  C   UNL     1      43.714 -10.302   7.849  1.00  0.00     0.011 A 
HETATM   36  C   UNL     1      43.888  -9.033   8.405  1.00  0.00     0.001 A 
HETATM   37  C   UNL     1      45.168  -8.502   8.538  1.00  0.00     0.000 A 
HETATM   38  C   UNL     1      46.274  -9.245   8.127  1.00  0.00     0.001 A 
HETATM   39  C   UNL     1      46.101 -10.515   7.570  1.00  0.00     0.011 A 
ENDBRANCH  33  34
ENDBRANCH   8  32
TORSDOF 11
ENDMDL
MODEL 7
REMARK VINA RESULT:      -6.9     16.686     18.784
REMARK  11 active torsions:
REMARK  status: ('A' for Active; 'I' for Inactive)
REMARK    1  A    between atoms: C_2  and  O_3 
REMARK    2  A    between atoms: O_3  and  C_4 
REMARK    3  A    between atoms: C_5  and  O_6 
REMARK    4  A    between atoms: C_9  and  C_10 
REMARK    5  A    between atoms: N_11  and  C_12 
REMARK    6  A    between atoms: C_12  and  C_13 
REMARK    7  A    between atoms: C_13  and  C_14 
REMARK    8  A    between atoms: C_14  and  N_15 
REMARK    9  A    between atoms: C_27  and  O_28 
REMARK   10  A    between atoms: C_27  and  C_29 
REMARK   11  A    between atoms: C_30  and  C_31 
ROOT
HETATM    1  C   UNL     1      44.887 -30.549   1.265  1.00  0.00     0.161 C 
HETATM    2  N   UNL     1      43.987 -29.532   0.719  1.00  0.00    -0.332 N 
HETATM    3  C   UNL     1      42.775 -29.529   1.376  1.00  0.00     0.295 C 
HETATM    4  O   UNL     1      41.741 -29.021   0.983  1.00  0.00    -0.264 OA
HETATM    5  C   UNL     1      44.378 -30.788   2.671  1.00  0.00     0.058 C 
HETATM    6  C   UNL     1      42.961 -30.359   2.651  1.00  0.00     0.250 C 
HETATM    7  O   UNL     1      42.105 -30.610   3.470  1.00  0.00    -0.282 OA
HETATM    8  C   UNL     1      44.946 -31.233   3.804  1.00  0.00     0.078 C 
ENDROOT
BRANCH   1   9
HETATM    9  C   UNL     1      46.358 -30.283   1.060  1.00  0.00    -0.028 A 
HETATM   10  C   UNL     1      46.966 -29.085   1.469  1.00  0.00     0.012 A 
HETATM   11  C   UNL     1      48.337 -28.899   1.293  1.00  0.00     0.040 A 
HETATM   12  C   UNL     1      49.098 -29.907   0.714  1.00  0.00     0.099 A 
HETATM   13  C   UNL     1      48.526 -31.111   0.296  1.00  0.00     0.102 A 
HETATM   14  C   UNL     1      47.156 -31.293   0.475  1.00  0.00     0.049 A 
BRANCH  12  15
HETATM   15  O   UNL     1      50.441 -29.694   0.565  1.00  0.00    -0.358 OA
HETATM   16  H   UNL     1      50.535 -28.739   0.381  1.00  0.00     0.218 HD
ENDBRANCH  12  15
BRANCH  13  17
HETATM   17  O   UNL     1      49.394 -32.013  -0.259  1.00  0.00    -0.349 OA
BRANCH  17  18
HETATM   18  C   UNL     1      49.456 -33.310   0.337  1.00  0.00     0.171 C 
HETATM   19  C   UNL     1      49.971 -33.159   1.757  1.00  0.00     0.034 C 
ENDBRANCH  17  18
ENDBRANCH  13  17
ENDBRANCH   1   9
BRANCH   2  20
HETATM   20  C   UNL     1      44.173 -28.876  -0.567  1.00  0.00     0.129 C 
BRANCH  20  21
HETATM   21  C   UNL     1      44.073 -29.785  -1.791  1.00  0.00     0.048 C 
BRANCH  21  22
HETATM   22  C   UNL     1      45.266 -29.821  -2.747  1.00  0.00     0.236 C 
BRANCH  22  23
HETATM   23  N   UNL     1      45.110 -30.754  -3.916  1.00  0.00    -0.067 N 
HETATM   24  H   UNL     1      46.064 -30.982  -4.268  1.00  0.00     0.280 HD
HETATM   25  C   UNL     1      44.371 -32.051  -3.620  1.00  0.00     0.261 C 
HETATM   26  C   UNL     1      44.281 -32.900  -4.894  1.00  0.00     0.195 C 
HETATM   27  O   UNL     1      43.628 -32.180  -5.943  1.00  0.00    -0.388 OA
HETATM   28  C   UNL     1      44.352 -30.995  -6.294  1.00  0.00     0.195 C 
HETATM   29  C   UNL     1      44.444 -30.042  -5.099  1.00  0.00     0.261 C 
ENDBRANCH  22  23
ENDBRANCH  21  22
ENDBRANCH  20  21
ENDBRANCH   2  20
BRANCH   8  30
HETATM   30  O   UNL     1      44.254 -31.438   4.979  1.00  0.00    -0.360 OA
HETATM   31  H   UNL     1      44.040 -32.387   5.091  1.00  0.00     0.217 HD
ENDBRANCH   8  30
BRANCH   8  32
HETATM   32  C   UNL     1      46.363 -31.459   3.949  1.00  0.00     0.038 C 
HETATM   33  C   UNL     1      47.208 -30.763   4.722  1.00  0.00     0.014 C 
BRANCH  33  34
HETATM   34  C   UNL     1      48.630 -31.130   4.780  1.00  0.00    -0.036 A 
HETATM   35  C   UNL     1      49.049 -32.338   5.357  1.00  0.00     0.011 A 
HETATM   36  C   UNL     1      50.407 -32.648   5.450  1.00  0.00     0.001 A 
HETATM   37  C   UNL     1      51.359 -31.759   4.957  1.00  0.00     0.000 A 
HETATM   38  C   UNL     1      50.952 -30.566   4.361  1.00  0.00     0.001 A 
HETATM   39  C   UNL     1      49.593 -30.255   4.267  1.00  0.00     0.011 A 
ENDBRANCH  33  34
ENDBRANCH   8  32
TORSDOF 11
ENDMDL
MODEL 8
REMARK VINA RESULT:      -6.9     16.710     19.359
REMARK  11 active torsions:
REMARK  status: ('A' for Active; 'I' for Inactive)
REMARK    1  A    between atoms: C_2  and  O_3 
REMARK    2  A    between atoms: O_3  and  C_4 
REMARK    3  A    between atoms: C_5  and  O_6 
REMARK    4  A    between atoms: C_9  and  C_10 
REMARK    5  A    between atoms: N_11  and  C_12 
REMARK    6  A    between atoms: C_12  and  C_13 
REMARK    7  A    between atoms: C_13  and  C_14 
REMARK    8  A    between atoms: C_14  and  N_15 
REMARK    9  A    between atoms: C_27  and  O_28 
REMARK   10  A    between atoms: C_27  and  C_29 
REMARK   11  A    between atoms: C_30  and  C_31 
ROOT
HETATM    1  C   UNL     1      44.888 -30.484   3.260  1.00  0.00     0.161 C 
HETATM    2  N   UNL     1      45.355 -31.474   4.231  1.00  0.00    -0.332 N 
HETATM    3  C   UNL     1      44.313 -32.249   4.698  1.00  0.00     0.295 C 
HETATM    4  O   UNL     1      44.320 -32.942   5.698  1.00  0.00    -0.264 OA
HETATM    5  C   UNL     1      43.598 -31.063   2.719  1.00  0.00     0.058 C 
HETATM    6  C   UNL     1      43.125 -32.002   3.762  1.00  0.00     0.250 C 
HETATM    7  O   UNL     1      42.019 -32.484   3.871  1.00  0.00    -0.282 OA
HETATM    8  C   UNL     1      42.919 -30.912   1.570  1.00  0.00     0.078 C 
ENDROOT
BRANCH   1   9
HETATM    9  C   UNL     1      45.932 -30.000   2.284  1.00  0.00    -0.028 A 
HETATM   10  C   UNL     1      46.362 -28.663   2.249  1.00  0.00     0.012 A 
HETATM   11  C   UNL     1      47.357 -28.270   1.355  1.00  0.00     0.040 A 
HETATM   12  C   UNL     1      47.924 -29.208   0.501  1.00  0.00     0.099 A 
HETATM   13  C   UNL     1      47.521 -30.546   0.510  1.00  0.00     0.102 A 
HETATM   14  C   UNL     1      46.527 -30.935   1.406  1.00  0.00     0.049 A 
BRANCH  12  15
HETATM   15  O   UNL     1      48.904 -28.790  -0.355  1.00  0.00    -0.358 OA
HETATM   16  H   UNL     1      48.493 -28.093  -0.902  1.00  0.00     0.218 HD
ENDBRANCH  12  15
BRANCH  13  17
HETATM   17  O   UNL     1      48.163 -31.359  -0.386  1.00  0.00    -0.349 OA
BRANCH  17  18
HETATM   18  C   UNL     1      47.587 -31.475  -1.689  1.00  0.00     0.171 C 
HETATM   19  C   UNL     1      46.805 -32.774  -1.751  1.00  0.00     0.034 C 
ENDBRANCH  17  18
ENDBRANCH  13  17
ENDBRANCH   1   9
BRANCH   2  20
HETATM   20  C   UNL     1      46.642 -31.418   4.908  1.00  0.00     0.129 C 
BRANCH  20  21
HETATM   21  C   UNL     1      47.665 -32.464   4.466  1.00  0.00     0.048 C 
BRANCH  21  22
HETATM   22  C   UNL     1      49.106 -32.295   4.951  1.00  0.00     0.236 C 
BRANCH  22  23
HETATM   23  N   UNL     1      50.077 -31.842   3.896  1.00  0.00    -0.067 N 
HETATM   24  H   UNL     1      51.039 -31.965   4.279  1.00  0.00     0.280 HD
HETATM   25  C   UNL     1      49.981 -32.573   2.565  1.00  0.00     0.261 C 
HETATM   26  C   UNL     1      51.020 -32.012   1.587  1.00  0.00     0.195 C 
HETATM   27  O   UNL     1      50.838 -30.605   1.400  1.00  0.00    -0.388 OA
HETATM   28  C   UNL     1      51.006 -29.888   2.628  1.00  0.00     0.195 C 
HETATM   29  C   UNL     1      49.965 -30.332   3.661  1.00  0.00     0.261 C 
ENDBRANCH  22  23
ENDBRANCH  21  22
ENDBRANCH  20  21
ENDBRANCH   2  20
BRANCH   8  30
HETATM   30  O   UNL     1      41.700 -31.505   1.317  1.00  0.00    -0.360 OA
HETATM   31  H   UNL     1      40.972 -30.860   1.440  1.00  0.00     0.217 HD
ENDBRANCH   8  30
BRANCH   8  32
HETATM   32  C   UNL     1      43.430 -30.189   0.432  1.00  0.00     0.038 C 
HETATM   33  C   UNL     1      43.826 -30.714  -0.735  1.00  0.00     0.014 C 
BRANCH  33  34
HETATM   34  C   UNL     1      44.307 -29.838  -1.814  1.00  0.00    -0.036 A 
HETATM   35  C   UNL     1      44.976 -28.637  -1.536  1.00  0.00     0.011 A 
HETATM   36  C   UNL     1      45.379 -27.791  -2.571  1.00  0.00     0.001 A 
HETATM   37  C   UNL     1      45.128 -28.144  -3.895  1.00  0.00     0.000 A 
HETATM   38  C   UNL     1      44.485 -29.347  -4.183  1.00  0.00     0.001 A 
HETATM   39  C   UNL     1      44.080 -30.194  -3.148  1.00  0.00     0.011 A 
ENDBRANCH  33  34
ENDBRANCH   8  32
TORSDOF 11
ENDMDL
MODEL 9
REMARK VINA RESULT:      -6.9      2.711      8.114
REMARK  11 active torsions:
REMARK  status: ('A' for Active; 'I' for Inactive)
REMARK    1  A    between atoms: C_2  and  O_3 
REMARK    2  A    between atoms: O_3  and  C_4 
REMARK    3  A    between atoms: C_5  and  O_6 
REMARK    4  A    between atoms: C_9  and  C_10 
REMARK    5  A    between atoms: N_11  and  C_12 
REMARK    6  A    between atoms: C_12  and  C_13 
REMARK    7  A    between atoms: C_13  and  C_14 
REMARK    8  A    between atoms: C_14  and  N_15 
REMARK    9  A    between atoms: C_27  and  O_28 
REMARK   10  A    between atoms: C_27  and  C_29 
REMARK   11  A    between atoms: C_30  and  C_31 
ROOT
HETATM    1  C   UNL     1      41.038 -13.713   3.726  1.00  0.00     0.161 C 
HETATM    2  N   UNL     1      41.856 -13.292   4.865  1.00  0.00    -0.332 N 
HETATM    3  C   UNL     1      42.865 -14.197   5.120  1.00  0.00     0.295 C 
HETATM    4  O   UNL     1      43.513 -14.285   6.147  1.00  0.00    -0.264 OA
HETATM    5  C   UNL     1      41.941 -14.632   2.932  1.00  0.00     0.058 C 
HETATM    6  C   UNL     1      42.952 -15.119   3.899  1.00  0.00     0.250 C 
HETATM    7  O   UNL     1      43.702 -16.061   3.769  1.00  0.00    -0.282 OA
HETATM    8  C   UNL     1      41.993 -14.999   1.640  1.00  0.00     0.078 C 
ENDROOT
BRANCH   1   9
HETATM    9  C   UNL     1      40.318 -12.601   3.005  1.00  0.00    -0.028 A 
HETATM   10  C   UNL     1      38.917 -12.511   2.974  1.00  0.00     0.012 A 
HETATM   11  C   UNL     1      38.297 -11.444   2.327  1.00  0.00     0.040 A 
HETATM   12  C   UNL     1      39.072 -10.466   1.716  1.00  0.00     0.099 A 
HETATM   13  C   UNL     1      40.468 -10.522   1.729  1.00  0.00     0.102 A 
HETATM   14  C   UNL     1      41.084 -11.591   2.378  1.00  0.00     0.049 A 
BRANCH  12  15
HETATM   15  O   UNL     1      38.431  -9.428   1.099  1.00  0.00    -0.358 OA
HETATM   16  H   UNL     1      39.137  -8.889   0.693  1.00  0.00     0.218 HD
ENDBRANCH  12  15
BRANCH  13  17
HETATM   17  O   UNL     1      41.104  -9.493   1.086  1.00  0.00    -0.349 OA
BRANCH  17  18
HETATM   18  C   UNL     1      41.713  -9.789  -0.172  1.00  0.00     0.171 C 
HETATM   19  C   UNL     1      40.970  -9.028  -1.254  1.00  0.00     0.034 C 
ENDBRANCH  17  18
ENDBRANCH  13  17
ENDBRANCH   1   9
BRANCH   2  20
HETATM   20  C   UNL     1      41.455 -12.283   5.835  1.00  0.00     0.129 C 
BRANCH  20  21
HETATM   21  C   UNL     1      42.261 -10.985   5.806  1.00  0.00     0.048 C 
BRANCH  21  22
HETATM   22  C   UNL     1      43.385 -10.826   6.831  1.00  0.00     0.236 C 
BRANCH  22  23
HETATM   23  N   UNL     1      42.923 -10.575   8.240  1.00  0.00    -0.067 N 
HETATM   24  H   UNL     1      42.283 -11.354   8.505  1.00  0.00     0.280 HD
HETATM   25  C   UNL     1      44.030 -10.472   9.279  1.00  0.00     0.261 C 
HETATM   26  C   UNL     1      43.421 -10.214  10.663  1.00  0.00     0.195 C 
HETATM   27  O   UNL     1      42.626  -9.024  10.657  1.00  0.00    -0.388 OA
HETATM   28  C   UNL     1      41.529  -9.132   9.744  1.00  0.00     0.195 C 
HETATM   29  C   UNL     1      42.034  -9.329   8.311  1.00  0.00     0.261 C 
ENDBRANCH  22  23
ENDBRANCH  21  22
ENDBRANCH  20  21
ENDBRANCH   2  20
BRANCH   8  30
HETATM   30  O   UNL     1      42.886 -15.924   1.142  1.00  0.00    -0.360 OA
HETATM   31  H   UNL     1      43.100 -16.597   1.822  1.00  0.00     0.217 HD
ENDBRANCH   8  30
BRANCH   8  32
HETATM   32  C   UNL     1      41.184 -14.400   0.609  1.00  0.00     0.038 C 
HETATM   33  C   UNL     1      40.097 -14.934   0.036  1.00  0.00     0.014 C 
BRANCH  33  34
HETATM   34  C   UNL     1      39.362 -14.186  -0.994  1.00  0.00    -0.036 A 
HETATM   35  C   UNL     1      39.052 -12.828  -0.829  1.00  0.00     0.011 A 
HETATM   36  C   UNL     1      38.308 -12.145  -1.793  1.00  0.00     0.001 A 
HETATM   37  C   UNL     1      37.876 -12.810  -2.937  1.00  0.00     0.000 A 
HETATM   38  C   UNL     1      38.199 -14.154  -3.123  1.00  0.00     0.001 A 
HETATM   39  C   UNL     1      38.943 -14.838  -2.159  1.00  0.00     0.011 A 
ENDBRANCH  33  34
ENDBRANCH   8  32
TORSDOF 11
ENDMDL
MODEL 10
REMARK VINA RESULT:      -6.7      6.012      8.542
REMARK  11 active torsions:
REMARK  status: ('A' for Active; 'I' for Inactive)
REMARK    1  A    between atoms: C_2  and  O_3 
REMARK    2  A    between atoms: O_3  and  C_4 
REMARK    3  A    between atoms: C_5  and  O_6 
REMARK    4  A    between atoms: C_9  and  C_10 
REMARK    5  A    between atoms: N_11  and  C_12 
REMARK    6  A    between atoms: C_12  and  C_13 
REMARK    7  A    between atoms: C_13  and  C_14 
REMARK    8  A    between atoms: C_14  and  N_15 
REMARK    9  A    between atoms: C_27  and  O_28 
REMARK   10  A    between atoms: C_27  and  C_29 
REMARK   11  A    between atoms: C_30  and  C_31 
ROOT
HETATM    1  C   UNL     1      43.155  -8.506   8.549  1.00  0.00     0.161 C 
HETATM    2  N   UNL     1      42.503  -8.817   7.276  1.00  0.00    -0.332 N 
HETATM    3  C   UNL     1      42.811 -10.093   6.852  1.00  0.00     0.295 C 
HETATM    4  O   UNL     1      42.671 -10.534   5.727  1.00  0.00    -0.264 OA
HETATM    5  C   UNL     1      43.421  -9.858   9.177  1.00  0.00     0.058 C 
HETATM    6  C   UNL     1      43.440 -10.816   8.048  1.00  0.00     0.250 C 
HETATM    7  O   UNL     1      43.870 -11.949   8.052  1.00  0.00    -0.282 OA
HETATM    8  C   UNL     1      43.581 -10.282  10.442  1.00  0.00     0.078 C 
ENDROOT
BRANCH   1   9
HETATM    9  C   UNL     1      42.477  -7.442   9.375  1.00  0.00    -0.028 A 
HETATM   10  C   UNL     1      43.130  -6.258   9.754  1.00  0.00     0.012 A 
HETATM   11  C   UNL     1      42.450  -5.285  10.486  1.00  0.00     0.040 A 
HETATM   12  C   UNL     1      41.121  -5.492  10.836  1.00  0.00     0.099 A 
HETATM   13  C   UNL     1      40.440  -6.658  10.475  1.00  0.00     0.102 A 
HETATM   14  C   UNL     1      41.123  -7.626   9.743  1.00  0.00     0.049 A 
BRANCH  12  15
HETATM   15  O   UNL     1      40.483  -4.513  11.545  1.00  0.00    -0.358 OA
HETATM   16  H   UNL     1      39.879  -4.983  12.153  1.00  0.00     0.218 HD
ENDBRANCH  12  15
BRANCH  13  17
HETATM   17  O   UNL     1      39.137  -6.728  10.889  1.00  0.00    -0.349 OA
BRANCH  17  18
HETATM   18  C   UNL     1      38.825  -7.694  11.896  1.00  0.00     0.171 C 
HETATM   19  C   UNL     1      38.552  -6.959  13.195  1.00  0.00     0.034 C 
ENDBRANCH  17  18
ENDBRANCH  13  17
ENDBRANCH   1   9
BRANCH   2  20
HETATM   20  C   UNL     1      41.928  -7.821   6.383  1.00  0.00     0.129 C 
BRANCH  20  21
HETATM   21  C   UNL     1      40.426  -7.947   6.135  1.00  0.00     0.048 C 
BRANCH  21  22
HETATM   22  C   UNL     1      39.852  -7.254   4.899  1.00  0.00     0.236 C 
BRANCH  22  23
HETATM   23  N   UNL     1      38.447  -6.741   5.059  1.00  0.00    -0.067 N 
HETATM   24  H   UNL     1      38.389  -5.823   4.569  1.00  0.00     0.280 HD
HETATM   25  C   UNL     1      37.354  -7.655   4.523  1.00  0.00     0.261 C 
HETATM   26  C   UNL     1      35.981  -7.014   4.753  1.00  0.00     0.195 C 
HETATM   27  O   UNL     1      35.770  -6.743   6.142  1.00  0.00    -0.388 OA
HETATM   28  C   UNL     1      36.741  -5.819   6.648  1.00  0.00     0.195 C 
HETATM   29  C   UNL     1      38.154  -6.396   6.523  1.00  0.00     0.261 C 
ENDBRANCH  22  23
ENDBRANCH  21  22
ENDBRANCH  20  21
ENDBRANCH   2  20
BRANCH   8  30
HETATM   30  O   UNL     1      43.888 -11.582  10.781  1.00  0.00    -0.360 OA
HETATM   31  H   UNL     1      44.857 -11.723  10.764  1.00  0.00     0.217 HD
ENDBRANCH   8  30
BRANCH   8  32
HETATM   32  C   UNL     1      43.358  -9.446  11.597  1.00  0.00     0.038 C 
HETATM   33  C   UNL     1      42.349  -9.548  12.472  1.00  0.00     0.014 C 
BRANCH  33  34
HETATM   34  C   UNL     1      42.270  -8.629  13.617  1.00  0.00    -0.036 A 
HETATM   35  C   UNL     1      43.092  -7.496  13.701  1.00  0.00     0.011 A 
HETATM   36  C   UNL     1      43.041  -6.662  14.820  1.00  0.00     0.001 A 
HETATM   37  C   UNL     1      42.160  -6.947  15.861  1.00  0.00     0.000 A 
HETATM   38  C   UNL     1      41.323  -8.058  15.776  1.00  0.00     0.001 A 
HETATM   39  C   UNL     1      41.373  -8.894  14.657  1.00  0.00     0.011 A 
ENDBRANCH  33  34
ENDBRANCH   8  32
TORSDOF 11
ENDMDL
