MODEL 1
REMARK VINA RESULT:      -8.0      0.000      0.000
REMARK  11 active torsions:
REMARK  status: ('A' for Active; 'I' for Inactive)
REMARK    1  A    between atoms: C_2  and  O_3 
REMARK    2  A    between atoms: O_3  and  C_4 
REMARK    3  A    between atoms: C_5  and  N_6 
REMARK       I    between atoms: N_6  and  C_7 
REMARK    4  A    between atoms: C_7  and  C_8 
REMARK    5  A    between atoms: C_9  and  C_10 
REMARK    6  A    between atoms: C_10  and  N_11 
REMARK    7  A    between atoms: C_24  and  N_25 
REMARK    8  A    between atoms: N_25  and  C_26 
REMARK    9  A    between atoms: C_30  and  O_31 
REMARK   10  A    between atoms: O_31  and  C_32 
REMARK   11  A    between atoms: C_32  and  C_33 
ROOT
HETATM    1  C   UNL     1      42.431 -16.834   3.312  1.00  0.00     0.097 A 
HETATM    2  C   UNL     1      41.876 -16.187   4.419  1.00  0.00     0.069 A 
HETATM    3  C   UNL     1      41.034 -15.087   4.218  1.00  0.00     0.048 A 
HETATM    4  C   UNL     1      40.666 -14.627   2.932  1.00  0.00     0.023 A 
HETATM    5  C   UNL     1      41.235 -15.301   1.827  1.00  0.00     0.071 A 
HETATM    6  N   UNL     1      40.980 -14.969   0.557  1.00  0.00    -0.259 NA
HETATM    7  C   UNL     1      40.138 -13.943   0.320  1.00  0.00     0.142 A 
HETATM    8  C   UNL     1      39.538 -13.195   1.314  1.00  0.00     0.089 A 
HETATM    9  C   UNL     1      38.677 -12.119   0.935  1.00  0.00     0.103 C 
HETATM   10  N   UNL     1      37.996 -11.224   0.654  1.00  0.00    -0.191 NA
HETATM   11  C   UNL     1      39.807 -13.513   2.662  1.00  0.00     0.067 A 
HETATM   12  C   UNL     1      42.113 -16.358   2.035  1.00  0.00     0.071 A 
ENDROOT
BRANCH  11  13
HETATM   13  N   UNL     1      39.212 -12.715   3.677  1.00  0.00    -0.354 N 
HETATM   14  H   UNL     1      38.262 -12.998   3.919  1.00  0.00     0.166 HD
BRANCH  13  15
HETATM   15  C   UNL     1      39.694 -11.746   4.578  1.00  0.00     0.034 A 
HETATM   16  C   UNL     1      40.117 -10.516   4.049  1.00  0.00     0.056 A 
HETATM   17  C   UNL     1      40.696  -9.540   4.864  1.00  0.00     0.069 A 
HETATM   18 CL   UNL     1      41.199  -8.058   4.139  1.00  0.00    -0.081 Cl
HETATM   19  C   UNL     1      40.881  -9.790   6.223  1.00  0.00     0.091 A 
HETATM   20  C   UNL     1      40.432 -10.992   6.773  1.00  0.00     0.041 A 
HETATM   21  C   UNL     1      39.848 -11.967   5.951  1.00  0.00     0.032 A 
BRANCH  19  22
HETATM   22  O   UNL     1      41.425  -8.819   7.019  1.00  0.00    -0.344 OA
BRANCH  22  23
HETATM   23  C   UNL     1      41.457  -9.181   8.408  1.00  0.00     0.235 C 
BRANCH  23  24
HETATM   24  C   UNL     1      42.872  -9.281   8.944  1.00  0.00     0.058 A 
HETATM   25  N   UNL     1      43.860  -8.809   8.133  1.00  0.00    -0.263 NA
HETATM   26  C   UNL     1      45.135  -8.937   8.567  1.00  0.00     0.117 A 
HETATM   27  C   UNL     1      45.488  -9.505   9.778  1.00  0.00     0.019 A 
HETATM   28  C   UNL     1      44.472  -9.981  10.595  1.00  0.00     0.003 A 
HETATM   29  C   UNL     1      43.150  -9.880  10.172  1.00  0.00     0.029 A 
ENDBRANCH  23  24
ENDBRANCH  22  23
ENDBRANCH  19  22
ENDBRANCH  13  15
ENDBRANCH  11  13
BRANCH   2  30
HETATM   30  N   UNL     1      41.968 -16.644   5.752  1.00  0.00    -0.321 N 
HETATM   31  C   UNL     1      42.721 -16.156   6.778  1.00  0.00     0.245 C 
HETATM   32  O   UNL     1      43.256 -16.902   7.595  1.00  0.00    -0.268 OA
HETATM   33  H   UNL     1      41.755 -17.630   5.865  1.00  0.00     0.169 HD
BRANCH  31  34
HETATM   34  C   UNL     1      42.562 -14.701   7.061  1.00  0.00     0.072 C 
HETATM   35  C   UNL     1      43.601 -13.893   6.793  1.00  0.00     0.006 C 
BRANCH  35  36
HETATM   36  C   UNL     1      43.748 -12.500   7.297  1.00  0.00     0.261 C 
BRANCH  36  37
HETATM   37  N   UNL     1      44.171 -11.578   6.173  1.00  0.00    -0.076 N 
HETATM   38  H   UNL     1      43.792 -10.651   6.406  1.00  0.00     0.279 HD
HETATM   39  C   UNL     1      45.664 -11.416   6.072  1.00  0.00     0.269 C 
HETATM   40  C   UNL     1      43.571 -11.962   4.853  1.00  0.00     0.269 C 
ENDBRANCH  36  37
ENDBRANCH  35  36
ENDBRANCH  31  34
ENDBRANCH   2  30
BRANCH   1  41
HETATM   41  O   UNL     1      43.229 -17.926   3.522  1.00  0.00    -0.349 OA
BRANCH  41  42
HETATM   42  C   UNL     1      43.827 -18.505   2.357  1.00  0.00     0.171 C 
HETATM   43  C   UNL     1      43.318 -19.928   2.224  1.00  0.00     0.034 C 
ENDBRANCH  41  42
ENDBRANCH   1  41
TORSDOF 11
ENDMDL
MODEL 2
REMARK VINA RESULT:      -8.0      2.410      7.783
REMARK  11 active torsions:
REMARK  status: ('A' for Active; 'I' for Inactive)
REMARK    1  A    between atoms: C_2  and  O_3 
REMARK    2  A    between atoms: O_3  and  C_4 
REMARK    3  A    between atoms: C_5  and  N_6 
REMARK       I    between atoms: N_6  and  C_7 
REMARK    4  A    between atoms: C_7  and  C_8 
REMARK    5  A    between atoms: C_9  and  C_10 
REMARK    6  A    between atoms: C_10  and  N_11 
REMARK    7  A    between atoms: C_24  and  N_25 
REMARK    8  A    between atoms: N_25  and  C_26 
REMARK    9  A    between atoms: C_30  and  O_31 
REMARK   10  A    between atoms: O_31  and  C_32 
REMARK   11  A    between atoms: C_32  and  C_33 
ROOT
HETATM    1  C   UNL     1      41.513  -9.347   8.190  1.00  0.00     0.097 A 
HETATM    2  C   UNL     1      42.452  -9.804   7.262  1.00  0.00     0.069 A 
HETATM    3  C   UNL     1      42.042 -10.071   5.950  1.00  0.00     0.048 A 
HETATM    4  C   UNL     1      40.721  -9.844   5.497  1.00  0.00     0.023 A 
HETATM    5  C   UNL     1      39.792  -9.375   6.453  1.00  0.00     0.071 A 
HETATM    6  N   UNL     1      38.509  -9.124   6.165  1.00  0.00    -0.259 NA
HETATM    7  C   UNL     1      38.086  -9.326   4.901  1.00  0.00     0.142 A 
HETATM    8  C   UNL     1      38.893  -9.802   3.886  1.00  0.00     0.089 A 
HETATM    9  C   UNL     1      38.320  -9.991   2.590  1.00  0.00     0.103 C 
HETATM   10  N   UNL     1      37.875 -10.178   1.536  1.00  0.00    -0.191 NA
HETATM   11  C   UNL     1      40.244 -10.093   4.169  1.00  0.00     0.067 A 
HETATM   12  C   UNL     1      40.192  -9.164   7.767  1.00  0.00     0.071 A 
ENDROOT
BRANCH  11  13
HETATM   13  N   UNL     1      41.056 -10.615   3.127  1.00  0.00    -0.354 N 
HETATM   14  H   UNL     1      41.429  -9.901   2.499  1.00  0.00     0.166 HD
BRANCH  13  15
HETATM   15  C   UNL     1      41.640 -11.870   2.865  1.00  0.00     0.034 A 
HETATM   16  C   UNL     1      40.779 -12.947   2.602  1.00  0.00     0.056 A 
HETATM   17  C   UNL     1      41.275 -14.241   2.428  1.00  0.00     0.069 A 
HETATM   18 CL   UNL     1      40.154 -15.516   2.117  1.00  0.00    -0.081 Cl
HETATM   19  C   UNL     1      42.644 -14.481   2.538  1.00  0.00     0.091 A 
HETATM   20  C   UNL     1      43.518 -13.416   2.761  1.00  0.00     0.041 A 
HETATM   21  C   UNL     1      43.015 -12.118   2.931  1.00  0.00     0.032 A 
BRANCH  19  22
HETATM   22  O   UNL     1      43.124 -15.748   2.340  1.00  0.00    -0.344 OA
BRANCH  22  23
HETATM   23  C   UNL     1      43.374 -16.454   3.566  1.00  0.00     0.235 C 
BRANCH  23  24
HETATM   24  C   UNL     1      43.446 -17.954   3.361  1.00  0.00     0.058 A 
HETATM   25  N   UNL     1      44.052 -18.671   4.348  1.00  0.00    -0.263 NA
HETATM   26  C   UNL     1      44.175 -20.005   4.162  1.00  0.00     0.117 A 
HETATM   27  C   UNL     1      43.718 -20.676   3.043  1.00  0.00     0.019 A 
HETATM   28  C   UNL     1      43.101 -19.935   2.045  1.00  0.00     0.003 A 
HETATM   29  C   UNL     1      42.972 -18.558   2.197  1.00  0.00     0.029 A 
ENDBRANCH  23  24
ENDBRANCH  22  23
ENDBRANCH  19  22
ENDBRANCH  13  15
ENDBRANCH  11  13
BRANCH   2  30
HETATM   30  N   UNL     1      43.843  -9.881   7.489  1.00  0.00    -0.321 N 
HETATM   31  C   UNL     1      44.611 -10.974   7.758  1.00  0.00     0.245 C 
HETATM   32  O   UNL     1      45.547 -10.923   8.553  1.00  0.00    -0.268 OA
HETATM   33  H   UNL     1      44.248  -9.025   7.855  1.00  0.00     0.169 HD
BRANCH  31  34
HETATM   34  C   UNL     1      44.490 -12.103   6.792  1.00  0.00     0.072 C 
HETATM   35  C   UNL     1      43.676 -13.122   7.116  1.00  0.00     0.006 C 
BRANCH  35  36
HETATM   36  C   UNL     1      43.674 -14.454   6.452  1.00  0.00     0.261 C 
BRANCH  36  37
HETATM   37  N   UNL     1      42.253 -14.899   6.177  1.00  0.00    -0.076 N 
HETATM   38  H   UNL     1      42.257 -15.299   5.229  1.00  0.00     0.279 HD
HETATM   39  C   UNL     1      41.788 -15.993   7.100  1.00  0.00     0.269 C 
HETATM   40  C   UNL     1      41.283 -13.755   6.151  1.00  0.00     0.269 C 
ENDBRANCH  36  37
ENDBRANCH  35  36
ENDBRANCH  31  34
ENDBRANCH   2  30
BRANCH   1  41
HETATM   41  O   UNL     1      41.934  -9.062   9.461  1.00  0.00    -0.349 OA
BRANCH  41  42
HETATM   42  C   UNL     1      42.116  -7.675   9.770  1.00  0.00     0.171 C 
HETATM   43  C   UNL     1      42.834  -7.580  11.104  1.00  0.00     0.034 C 
ENDBRANCH  41  42
ENDBRANCH   1  41
TORSDOF 11
ENDMDL
MODEL 3
REMARK VINA RESULT:      -7.5      2.890      5.713
REMARK  11 active torsions:
REMARK  status: ('A' for Active; 'I' for Inactive)
REMARK    1  A    between atoms: C_2  and  O_3 
REMARK    2  A    between atoms: O_3  and  C_4 
REMARK    3  A    between atoms: C_5  and  N_6 
REMARK       I    between atoms: N_6  and  C_7 
REMARK    4  A    between atoms: C_7  and  C_8 
REMARK    5  A    between atoms: C_9  and  C_10 
REMARK    6  A    between atoms: C_10  and  N_11 
REMARK    7  A    between atoms: C_24  and  N_25 
REMARK    8  A    between atoms: N_25  and  C_26 
REMARK    9  A    between atoms: C_30  and  O_31 
REMARK   10  A    between atoms: O_31  and  C_32 
REMARK   11  A    between atoms: C_32  and  C_33 
ROOT
HETATM    1  C   UNL     1      39.834 -13.926   0.620  1.00  0.00     0.097 A 
HETATM    2  C   UNL     1      39.731 -13.091   1.735  1.00  0.00     0.069 A 
HETATM    3  C   UNL     1      40.298 -13.498   2.949  1.00  0.00     0.048 A 
HETATM    4  C   UNL     1      41.028 -14.702   3.090  1.00  0.00     0.023 A 
HETATM    5  C   UNL     1      41.124 -15.526   1.945  1.00  0.00     0.071 A 
HETATM    6  N   UNL     1      41.778 -16.693   1.937  1.00  0.00    -0.259 NA
HETATM    7  C   UNL     1      42.376 -17.099   3.075  1.00  0.00     0.142 A 
HETATM    8  C   UNL     1      42.334 -16.393   4.261  1.00  0.00     0.089 A 
HETATM    9  C   UNL     1      42.994 -16.939   5.405  1.00  0.00     0.103 C 
HETATM   10  N   UNL     1      43.499 -17.372   6.355  1.00  0.00    -0.191 NA
HETATM   11  C   UNL     1      41.634 -15.169   4.301  1.00  0.00     0.067 A 
HETATM   12  C   UNL     1      40.513 -15.142   0.758  1.00  0.00     0.071 A 
ENDROOT
BRANCH  11  13
HETATM   13  N   UNL     1      41.567 -14.467   5.535  1.00  0.00    -0.354 N 
HETATM   14  H   UNL     1      40.965 -14.911   6.229  1.00  0.00     0.166 HD
BRANCH  13  15
HETATM   15  C   UNL     1      42.294 -13.403   6.104  1.00  0.00     0.034 A 
HETATM   16  C   UNL     1      41.737 -12.117   6.028  1.00  0.00     0.056 A 
HETATM   17  C   UNL     1      42.437 -10.998   6.483  1.00  0.00     0.069 A 
HETATM   18 CL   UNL     1      41.690  -9.449   6.347  1.00  0.00    -0.081 Cl
HETATM   19  C   UNL     1      43.722 -11.148   7.004  1.00  0.00     0.091 A 
HETATM   20  C   UNL     1      44.277 -12.423   7.123  1.00  0.00     0.041 A 
HETATM   21  C   UNL     1      43.567 -13.544   6.668  1.00  0.00     0.032 A 
BRANCH  19  22
HETATM   22  O   UNL     1      44.391 -10.049   7.472  1.00  0.00    -0.344 OA
BRANCH  22  23
HETATM   23  C   UNL     1      45.202 -10.331   8.624  1.00  0.00     0.235 C 
BRANCH  23  24
HETATM   24  C   UNL     1      44.486 -10.015   9.922  1.00  0.00     0.058 A 
HETATM   25  N   UNL     1      44.174 -11.077  10.715  1.00  0.00    -0.263 NA
HETATM   26  C   UNL     1      43.488 -10.824  11.854  1.00  0.00     0.117 A 
HETATM   27  C   UNL     1      43.098  -9.559  12.257  1.00  0.00     0.019 A 
HETATM   28  C   UNL     1      43.422  -8.485  11.441  1.00  0.00     0.003 A 
HETATM   29  C   UNL     1      44.114  -8.713  10.255  1.00  0.00     0.029 A 
ENDBRANCH  23  24
ENDBRANCH  22  23
ENDBRANCH  19  22
ENDBRANCH  13  15
ENDBRANCH  11  13
BRANCH   2  30
HETATM   30  N   UNL     1      39.226 -11.772   1.715  1.00  0.00    -0.321 N 
HETATM   31  C   UNL     1      39.900 -10.591   1.803  1.00  0.00     0.245 C 
HETATM   32  O   UNL     1      39.445  -9.635   2.426  1.00  0.00    -0.268 OA
HETATM   33  H   UNL     1      38.267 -11.695   2.040  1.00  0.00     0.169 HD
BRANCH  31  34
HETATM   34  C   UNL     1      41.013 -10.408   0.828  1.00  0.00     0.072 C 
HETATM   35  C   UNL     1      40.727  -9.821  -0.347  1.00  0.00     0.006 C 
BRANCH  35  36
HETATM   36  C   UNL     1      41.608  -9.845  -1.547  1.00  0.00     0.261 C 
BRANCH  36  37
HETATM   37  N   UNL     1      41.844  -8.436  -2.050  1.00  0.00    -0.076 N 
HETATM   38  H   UNL     1      41.141  -7.846  -1.585  1.00  0.00     0.279 HD
HETATM   39  C   UNL     1      43.190  -7.887  -1.660  1.00  0.00     0.269 C 
HETATM   40  C   UNL     1      41.603  -8.301  -3.524  1.00  0.00     0.269 C 
ENDBRANCH  36  37
ENDBRANCH  35  36
ENDBRANCH  31  34
ENDBRANCH   2  30
BRANCH   1  41
HETATM   41  O   UNL     1      39.301 -13.501  -0.568  1.00  0.00    -0.349 OA
BRANCH  41  42
HETATM   42  C   UNL     1      40.086 -13.754  -1.739  1.00  0.00     0.171 C 
HETATM   43  C   UNL     1      39.213 -14.487  -2.741  1.00  0.00     0.034 C 
ENDBRANCH  41  42
ENDBRANCH   1  41
TORSDOF 11
ENDMDL
MODEL 4
REMARK VINA RESULT:      -7.4      2.617      7.644
REMARK  11 active torsions:
REMARK  status: ('A' for Active; 'I' for Inactive)
REMARK    1  A    between atoms: C_2  and  O_3 
REMARK    2  A    between atoms: O_3  and  C_4 
REMARK    3  A    between atoms: C_5  and  N_6 
REMARK       I    between atoms: N_6  and  C_7 
REMARK    4  A    between atoms: C_7  and  C_8 
REMARK    5  A    between atoms: C_9  and  C_10 
REMARK    6  A    between atoms: C_10  and  N_11 
REMARK    7  A    between atoms: C_24  and  N_25 
REMARK    8  A    between atoms: N_25  and  C_26 
REMARK    9  A    between atoms: C_30  and  O_31 
REMARK   10  A    between atoms: O_31  and  C_32 
REMARK   11  A    between atoms: C_32  and  C_33 
ROOT
HETATM    1  C   UNL     1      38.352  -8.955   2.472  1.00  0.00     0.097 A 
HETATM    2  C   UNL     1      38.421 -10.222   3.057  1.00  0.00     0.069 A 
HETATM    3  C   UNL     1      38.744 -11.327   2.259  1.00  0.00     0.048 A 
HETATM    4  C   UNL     1      39.062 -11.215   0.885  1.00  0.00     0.023 A 
HETATM    5  C   UNL     1      38.991  -9.922   0.318  1.00  0.00     0.071 A 
HETATM    6  N   UNL     1      39.260  -9.672  -0.968  1.00  0.00    -0.259 NA
HETATM    7  C   UNL     1      39.619 -10.702  -1.760  1.00  0.00     0.142 A 
HETATM    8  C   UNL     1      39.702 -12.012  -1.327  1.00  0.00     0.089 A 
HETATM    9  C   UNL     1      40.077 -13.020  -2.269  1.00  0.00     0.103 C 
HETATM   10  N   UNL     1      40.352 -13.860  -3.018  1.00  0.00    -0.191 NA
HETATM   11  C   UNL     1      39.404 -12.305   0.020  1.00  0.00     0.067 A 
HETATM   12  C   UNL     1      38.618  -8.838   1.103  1.00  0.00     0.071 A 
ENDROOT
BRANCH  11  13
HETATM   13  N   UNL     1      39.459 -13.659   0.446  1.00  0.00    -0.354 N 
HETATM   14  H   UNL     1      39.053 -14.318  -0.220  1.00  0.00     0.166 HD
BRANCH  13  15
HETATM   15  C   UNL     1      40.123 -14.340   1.485  1.00  0.00     0.034 A 
HETATM   16  C   UNL     1      41.173 -13.672   2.136  1.00  0.00     0.056 A 
HETATM   17  C   UNL     1      41.942 -14.313   3.110  1.00  0.00     0.069 A 
HETATM   18 CL   UNL     1      43.221 -13.429   3.859  1.00  0.00    -0.081 Cl
HETATM   19  C   UNL     1      41.685 -15.645   3.433  1.00  0.00     0.091 A 
HETATM   20  C   UNL     1      40.622 -16.312   2.823  1.00  0.00     0.041 A 
HETATM   21  C   UNL     1      39.850 -15.662   1.849  1.00  0.00     0.032 A 
BRANCH  19  22
HETATM   22  O   UNL     1      42.427 -16.257   4.407  1.00  0.00    -0.344 OA
BRANCH  22  23
HETATM   23  C   UNL     1      43.695 -16.736   3.932  1.00  0.00     0.235 C 
BRANCH  23  24
HETATM   24  C   UNL     1      43.712 -18.242   3.758  1.00  0.00     0.058 A 
HETATM   25  N   UNL     1      44.070 -18.973   4.850  1.00  0.00    -0.263 NA
HETATM   26  C   UNL     1      44.144 -20.316   4.703  1.00  0.00     0.117 A 
HETATM   27  C   UNL     1      43.870 -20.982   3.522  1.00  0.00     0.019 A 
HETATM   28  C   UNL     1      43.505 -20.226   2.417  1.00  0.00     0.003 A 
HETATM   29  C   UNL     1      43.435 -18.840   2.530  1.00  0.00     0.029 A 
ENDBRANCH  23  24
ENDBRANCH  22  23
ENDBRANCH  19  22
ENDBRANCH  13  15
ENDBRANCH  11  13
BRANCH   2  30
HETATM   30  N   UNL     1      38.342 -10.479   4.443  1.00  0.00    -0.321 N 
HETATM   31  C   UNL     1      39.191 -11.192   5.236  1.00  0.00     0.245 C 
HETATM   32  O   UNL     1      38.775 -11.904   6.146  1.00  0.00    -0.268 OA
HETATM   33  H   UNL     1      37.396 -10.457   4.811  1.00  0.00     0.169 HD
BRANCH  31  34
HETATM   34  C   UNL     1      40.624 -10.787   5.176  1.00  0.00     0.072 C 
HETATM   35  C   UNL     1      41.397 -11.055   6.241  1.00  0.00     0.006 C 
BRANCH  35  36
HETATM   36  C   UNL     1      42.734 -10.453   6.496  1.00  0.00     0.261 C 
BRANCH  36  37
HETATM   37  N   UNL     1      43.451 -11.216   7.591  1.00  0.00    -0.076 N 
HETATM   38  H   UNL     1      42.722 -11.724   8.110  1.00  0.00     0.279 HD
HETATM   39  C   UNL     1      44.401 -12.257   7.061  1.00  0.00     0.269 C 
HETATM   40  C   UNL     1      44.125 -10.313   8.580  1.00  0.00     0.269 C 
ENDBRANCH  36  37
ENDBRANCH  35  36
ENDBRANCH  31  34
ENDBRANCH   2  30
BRANCH   1  41
HETATM   41  O   UNL     1      38.064  -7.880   3.270  1.00  0.00    -0.349 OA
BRANCH  41  42
HETATM   42  C   UNL     1      37.290  -6.837   2.667  1.00  0.00     0.171 C 
HETATM   43  C   UNL     1      35.926  -6.817   3.334  1.00  0.00     0.034 C 
ENDBRANCH  41  42
ENDBRANCH   1  41
TORSDOF 11
ENDMDL
MODEL 5
REMARK VINA RESULT:      -7.4      2.685      7.338
REMARK  11 active torsions:
REMARK  status: ('A' for Active; 'I' for Inactive)
REMARK    1  A    between atoms: C_2  and  O_3 
REMARK    2  A    between atoms: O_3  and  C_4 
REMARK    3  A    between atoms: C_5  and  N_6 
REMARK       I    between atoms: N_6  and  C_7 
REMARK    4  A    between atoms: C_7  and  C_8 
REMARK    5  A    between atoms: C_9  and  C_10 
REMARK    6  A    between atoms: C_10  and  N_11 
REMARK    7  A    between atoms: C_24  and  N_25 
REMARK    8  A    between atoms: N_25  and  C_26 
REMARK    9  A    between atoms: C_30  and  O_31 
REMARK   10  A    between atoms: O_31  and  C_32 
REMARK   11  A    between atoms: C_32  and  C_33 
ROOT
HETATM    1  C   UNL     1      42.081 -14.857   5.673  1.00  0.00     0.097 A 
HETATM    2  C   UNL     1      40.984 -14.454   4.907  1.00  0.00     0.069 A 
HETATM    3  C   UNL     1      40.643 -13.097   4.861  1.00  0.00     0.048 A 
HETATM    4  C   UNL     1      41.398 -12.093   5.513  1.00  0.00     0.023 A 
HETATM    5  C   UNL     1      42.507 -12.525   6.275  1.00  0.00     0.071 A 
HETATM    6  N   UNL     1      43.303 -11.687   6.948  1.00  0.00    -0.259 NA
HETATM    7  C   UNL     1      43.036 -10.367   6.892  1.00  0.00     0.142 A 
HETATM    8  C   UNL     1      41.970  -9.826   6.199  1.00  0.00     0.089 A 
HETATM    9  C   UNL     1      41.782  -8.410   6.231  1.00  0.00     0.103 C 
HETATM   10  N   UNL     1      41.591  -7.266   6.262  1.00  0.00    -0.191 NA
HETATM   11  C   UNL     1      41.104 -10.691   5.498  1.00  0.00     0.067 A 
HETATM   12  C   UNL     1      42.807 -13.879   6.362  1.00  0.00     0.071 A 
ENDROOT
BRANCH  11  13
HETATM   13  N   UNL     1      39.991 -10.129   4.818  1.00  0.00    -0.354 N 
HETATM   14  H   UNL     1      39.332  -9.647   5.432  1.00  0.00     0.166 HD
BRANCH  13  15
HETATM   15  C   UNL     1      39.675  -9.901   3.464  1.00  0.00     0.034 A 
HETATM   16  C   UNL     1      38.534 -10.533   2.945  1.00  0.00     0.056 A 
HETATM   17  C   UNL     1      38.207 -10.435   1.591  1.00  0.00     0.069 A 
HETATM   18 CL   UNL     1      36.793 -11.246   1.025  1.00  0.00    -0.081 Cl
HETATM   19  C   UNL     1      39.034  -9.717   0.727  1.00  0.00     0.091 A 
HETATM   20  C   UNL     1      40.152  -9.052   1.233  1.00  0.00     0.041 A 
HETATM   21  C   UNL     1      40.472  -9.150   2.594  1.00  0.00     0.032 A 
BRANCH  19  22
HETATM   22  O   UNL     1      38.692  -9.605  -0.594  1.00  0.00    -0.344 OA
BRANCH  22  23
HETATM   23  C   UNL     1      39.649 -10.211  -1.477  1.00  0.00     0.235 C 
BRANCH  23  24
HETATM   24  C   UNL     1      39.473 -11.714  -1.571  1.00  0.00     0.058 A 
HETATM   25  N   UNL     1      38.333 -12.153  -2.174  1.00  0.00    -0.263 NA
HETATM   26  C   UNL     1      38.130 -13.490  -2.221  1.00  0.00     0.117 A 
HETATM   27  C   UNL     1      39.008 -14.426  -1.705  1.00  0.00     0.019 A 
HETATM   28  C   UNL     1      40.166 -13.966  -1.094  1.00  0.00     0.003 A 
HETATM   29  C   UNL     1      40.399 -12.596  -1.014  1.00  0.00     0.029 A 
ENDBRANCH  23  24
ENDBRANCH  22  23
ENDBRANCH  19  22
ENDBRANCH  13  15
ENDBRANCH  11  13
BRANCH   2  30
HETATM   30  N   UNL     1      40.257 -15.291   4.032  1.00  0.00    -0.321 N 
HETATM   31  C   UNL     1      40.468 -15.543   2.709  1.00  0.00     0.245 C 
HETATM   32  O   UNL     1      39.534 -15.675   1.922  1.00  0.00    -0.268 OA
HETATM   33  H   UNL     1      39.286 -15.422   4.300  1.00  0.00     0.169 HD
BRANCH  31  34
HETATM   34  C   UNL     1      41.841 -15.998   2.349  1.00  0.00     0.072 C 
HETATM   35  C   UNL     1      42.113 -17.311   2.450  1.00  0.00     0.006 C 
BRANCH  35  36
HETATM   36  C   UNL     1      43.480 -17.899   2.449  1.00  0.00     0.261 C 
BRANCH  36  37
HETATM   37  N   UNL     1      43.440 -19.315   2.984  1.00  0.00    -0.076 N 
HETATM   38  H   UNL     1      42.480 -19.465   3.323  1.00  0.00     0.279 HD
HETATM   39  C   UNL     1      43.686 -20.354   1.923  1.00  0.00     0.269 C 
HETATM   40  C   UNL     1      44.342 -19.514   4.166  1.00  0.00     0.269 C 
ENDBRANCH  36  37
ENDBRANCH  35  36
ENDBRANCH  31  34
ENDBRANCH   2  30
BRANCH   1  41
HETATM   41  O   UNL     1      42.419 -16.184   5.685  1.00  0.00    -0.349 OA
BRANCH  41  42
HETATM   42  C   UNL     1      43.728 -16.496   6.175  1.00  0.00     0.171 C 
HETATM   43  C   UNL     1      43.587 -17.549   7.259  1.00  0.00     0.034 C 
ENDBRANCH  41  42
ENDBRANCH   1  41
TORSDOF 11
ENDMDL
MODEL 6
REMARK VINA RESULT:      -7.3      3.696      9.216
REMARK  11 active torsions:
REMARK  status: ('A' for Active; 'I' for Inactive)
REMARK    1  A    between atoms: C_2  and  O_3 
REMARK    2  A    between atoms: O_3  and  C_4 
REMARK    3  A    between atoms: C_5  and  N_6 
REMARK       I    between atoms: N_6  and  C_7 
REMARK    4  A    between atoms: C_7  and  C_8 
REMARK    5  A    between atoms: C_9  and  C_10 
REMARK    6  A    between atoms: C_10  and  N_11 
REMARK    7  A    between atoms: C_24  and  N_25 
REMARK    8  A    between atoms: N_25  and  C_26 
REMARK    9  A    between atoms: C_30  and  O_31 
REMARK   10  A    between atoms: O_31  and  C_32 
REMARK   11  A    between atoms: C_32  and  C_33 
ROOT
HETATM    1  C   UNL     1      39.528  -8.676  10.850  1.00  0.00     0.097 A 
HETATM    2  C   UNL     1      40.640  -9.428  10.463  1.00  0.00     0.069 A 
HETATM    3  C   UNL     1      41.025  -9.437   9.117  1.00  0.00     0.048 A 
HETATM    4  C   UNL     1      40.369  -8.667   8.126  1.00  0.00     0.023 A 
HETATM    5  C   UNL     1      39.252  -7.910   8.544  1.00  0.00     0.071 A 
HETATM    6  N   UNL     1      38.536  -7.143   7.714  1.00  0.00    -0.259 NA
HETATM    7  C   UNL     1      38.901  -7.089   6.417  1.00  0.00     0.142 A 
HETATM    8  C   UNL     1      39.960  -7.800   5.886  1.00  0.00     0.089 A 
HETATM    9  C   UNL     1      40.237  -7.672   4.490  1.00  0.00     0.103 C 
HETATM   10  N   UNL     1      40.466  -7.607   3.355  1.00  0.00    -0.191 NA
HETATM   11  C   UNL     1      40.718  -8.631   6.737  1.00  0.00     0.067 A 
HETATM   12  C   UNL     1      38.842  -7.949   9.871  1.00  0.00     0.071 A 
ENDROOT
BRANCH  11  13
HETATM   13  N   UNL     1      41.783  -9.385   6.174  1.00  0.00    -0.354 N 
HETATM   14  H   UNL     1      42.674  -8.886   6.153  1.00  0.00     0.166 HD
BRANCH  13  15
HETATM   15  C   UNL     1      41.955 -10.737   5.819  1.00  0.00     0.034 A 
HETATM   16  C   UNL     1      40.985 -11.321   4.988  1.00  0.00     0.056 A 
HETATM   17  C   UNL     1      41.032 -12.679   4.668  1.00  0.00     0.069 A 
HETATM   18 CL   UNL     1      39.800 -13.326   3.648  1.00  0.00    -0.081 Cl
HETATM   19  C   UNL     1      42.042 -13.483   5.196  1.00  0.00     0.091 A 
HETATM   20  C   UNL     1      43.035 -12.911   5.993  1.00  0.00     0.041 A 
HETATM   21  C   UNL     1      42.986 -11.546   6.307  1.00  0.00     0.032 A 
BRANCH  19  22
HETATM   22  O   UNL     1      42.095 -14.808   4.857  1.00  0.00    -0.344 OA
BRANCH  22  23
HETATM   23  C   UNL     1      42.953 -15.069   3.735  1.00  0.00     0.235 C 
BRANCH  23  24
HETATM   24  C   UNL     1      43.231 -16.548   3.555  1.00  0.00     0.058 A 
HETATM   25  N   UNL     1      43.929 -17.158   4.553  1.00  0.00    -0.263 NA
HETATM   26  C   UNL     1      44.234 -18.466   4.389  1.00  0.00     0.117 A 
HETATM   27  C   UNL     1      43.873 -19.213   3.282  1.00  0.00     0.019 A 
HETATM   28  C   UNL     1      43.160 -18.580   2.273  1.00  0.00     0.003 A 
HETATM   29  C   UNL     1      42.844 -17.231   2.402  1.00  0.00     0.029 A 
ENDBRANCH  23  24
ENDBRANCH  22  23
ENDBRANCH  19  22
ENDBRANCH  13  15
ENDBRANCH  11  13
BRANCH   2  30
HETATM   30  N   UNL     1      41.526 -10.078  11.350  1.00  0.00    -0.321 N 
HETATM   31  C   UNL     1      42.802  -9.741  11.691  1.00  0.00     0.245 C 
HETATM   32  O   UNL     1      43.667 -10.595  11.868  1.00  0.00    -0.268 OA
HETATM   33  H   UNL     1      41.348 -11.072  11.454  1.00  0.00     0.169 HD
BRANCH  31  34
HETATM   34  C   UNL     1      42.993  -8.347  12.183  1.00  0.00     0.072 C 
HETATM   35  C   UNL     1      42.802  -8.111  13.492  1.00  0.00     0.006 C 
BRANCH  35  36
HETATM   36  C   UNL     1      42.630  -6.762  14.097  1.00  0.00     0.261 C 
BRANCH  36  37
HETATM   37  N   UNL     1      41.529  -6.792  15.137  1.00  0.00    -0.076 N 
HETATM   38  H   UNL     1      40.664  -6.531  14.645  1.00  0.00     0.279 HD
HETATM   39  C   UNL     1      41.297  -8.164  15.711  1.00  0.00     0.269 C 
HETATM   40  C   UNL     1      41.726  -5.772  16.218  1.00  0.00     0.269 C 
ENDBRANCH  36  37
ENDBRANCH  35  36
ENDBRANCH  31  34
ENDBRANCH   2  30
BRANCH   1  41
HETATM   41  O   UNL     1      39.182  -8.653  12.175  1.00  0.00    -0.349 OA
BRANCH  41  42
HETATM   42  C   UNL     1      39.143  -7.363  12.795  1.00  0.00     0.171 C 
HETATM   43  C   UNL     1      37.701  -7.055  13.154  1.00  0.00     0.034 C 
ENDBRANCH  41  42
ENDBRANCH   1  41
TORSDOF 11
ENDMDL
MODEL 7
REMARK VINA RESULT:      -7.2      3.243      7.688
REMARK  11 active torsions:
REMARK  status: ('A' for Active; 'I' for Inactive)
REMARK    1  A    between atoms: C_2  and  O_3 
REMARK    2  A    between atoms: O_3  and  C_4 
REMARK    3  A    between atoms: C_5  and  N_6 
REMARK       I    between atoms: N_6  and  C_7 
REMARK    4  A    between atoms: C_7  and  C_8 
REMARK    5  A    between atoms: C_9  and  C_10 
REMARK    6  A    between atoms: C_10  and  N_11 
REMARK    7  A    between atoms: C_24  and  N_25 
REMARK    8  A    between atoms: N_25  and  C_26 
REMARK    9  A    between atoms: C_30  and  O_31 
REMARK   10  A    between atoms: O_31  and  C_32 
REMARK   11  A    between atoms: C_32  and  C_33 
ROOT
HETATM    1  C   UNL     1      41.312  -8.398  -0.346  1.00  0.00     0.097 A 
HETATM    2  C   UNL     1      40.839  -9.037   0.803  1.00  0.00     0.069 A 
HETATM    3  C   UNL     1      40.336 -10.340   0.702  1.00  0.00     0.048 A 
HETATM    4  C   UNL     1      40.336 -11.072  -0.509  1.00  0.00     0.023 A 
HETATM    5  C   UNL     1      40.826 -10.405  -1.655  1.00  0.00     0.071 A 
HETATM    6  N   UNL     1      40.878 -10.973  -2.865  1.00  0.00    -0.259 NA
HETATM    7  C   UNL     1      40.445 -12.243  -2.996  1.00  0.00     0.142 A 
HETATM    8  C   UNL     1      39.925 -12.989  -1.955  1.00  0.00     0.089 A 
HETATM    9  C   UNL     1      39.482 -14.321  -2.224  1.00  0.00     0.103 C 
HETATM   10  N   UNL     1      39.090 -15.395  -2.421  1.00  0.00    -0.191 NA
HETATM   11  C   UNL     1      39.841 -12.406  -0.674  1.00  0.00     0.067 A 
HETATM   12  C   UNL     1      41.273  -9.093  -1.559  1.00  0.00     0.071 A 
ENDROOT
BRANCH  11  13
HETATM   13  N   UNL     1      39.273 -13.169   0.382  1.00  0.00    -0.354 N 
HETATM   14  H   UNL     1      38.253 -13.219   0.351  1.00  0.00     0.166 HD
BRANCH  13  15
HETATM   15  C   UNL     1      39.791 -14.046   1.354  1.00  0.00     0.034 A 
HETATM   16  C   UNL     1      39.776 -13.620   2.692  1.00  0.00     0.056 A 
HETATM   17  C   UNL     1      40.358 -14.390   3.701  1.00  0.00     0.069 A 
HETATM   18 CL   UNL     1      40.307 -13.796   5.320  1.00  0.00    -0.081 Cl
HETATM   19  C   UNL     1      40.986 -15.594   3.383  1.00  0.00     0.091 A 
HETATM   20  C   UNL     1      40.977 -16.051   2.063  1.00  0.00     0.041 A 
HETATM   21  C   UNL     1      40.387 -15.275   1.055  1.00  0.00     0.032 A 
BRANCH  19  22
HETATM   22  O   UNL     1      41.530 -16.355   4.381  1.00  0.00    -0.344 OA
BRANCH  22  23
HETATM   23  C   UNL     1      42.948 -16.537   4.242  1.00  0.00     0.235 C 
BRANCH  23  24
HETATM   24  C   UNL     1      43.327 -17.996   4.082  1.00  0.00     0.058 A 
HETATM   25  N   UNL     1      43.719 -18.646   5.213  1.00  0.00    -0.263 NA
HETATM   26  C   UNL     1      44.112 -19.935   5.086  1.00  0.00     0.117 A 
HETATM   27  C   UNL     1      44.130 -20.624   3.887  1.00  0.00     0.019 A 
HETATM   28  C   UNL     1      43.728 -19.951   2.742  1.00  0.00     0.003 A 
HETATM   29  C   UNL     1      43.332 -18.620   2.835  1.00  0.00     0.029 A 
ENDBRANCH  23  24
ENDBRANCH  22  23
ENDBRANCH  19  22
ENDBRANCH  13  15
ENDBRANCH  11  13
BRANCH   2  30
HETATM   30  N   UNL     1      40.962  -8.535   2.117  1.00  0.00    -0.321 N 
HETATM   31  C   UNL     1      41.092  -9.218   3.290  1.00  0.00     0.245 C 
HETATM   32  O   UNL     1      40.542  -8.837   4.320  1.00  0.00    -0.268 OA
HETATM   33  H   UNL     1      40.545  -7.619   2.248  1.00  0.00     0.169 HD
BRANCH  31  34
HETATM   34  C   UNL     1      42.199 -10.215   3.338  1.00  0.00     0.072 C 
HETATM   35  C   UNL     1      42.220 -11.081   4.365  1.00  0.00     0.006 C 
BRANCH  35  36
HETATM   36  C   UNL     1      43.391 -11.913   4.753  1.00  0.00     0.261 C 
BRANCH  36  37
HETATM   37  N   UNL     1      44.186 -11.222   5.842  1.00  0.00    -0.076 N 
HETATM   38  H   UNL     1      44.558 -10.361   5.420  1.00  0.00     0.279 HD
HETATM   39  C   UNL     1      43.338 -10.795   7.010  1.00  0.00     0.269 C 
HETATM   40  C   UNL     1      45.372 -12.023   6.290  1.00  0.00     0.269 C 
ENDBRANCH  36  37
ENDBRANCH  35  36
ENDBRANCH  31  34
ENDBRANCH   2  30
BRANCH   1  41
HETATM   41  O   UNL     1      41.828  -7.135  -0.227  1.00  0.00    -0.349 OA
BRANCH  41  42
HETATM   42  C   UNL     1      42.994  -6.853  -1.010  1.00  0.00     0.171 C 
HETATM   43  C   UNL     1      43.579  -5.538  -0.528  1.00  0.00     0.034 C 
ENDBRANCH  41  42
ENDBRANCH   1  41
TORSDOF 11
ENDMDL
MODEL 8
REMARK VINA RESULT:      -7.2      2.615      7.425
REMARK  11 active torsions:
REMARK  status: ('A' for Active; 'I' for Inactive)
REMARK    1  A    between atoms: C_2  and  O_3 
REMARK    2  A    between atoms: O_3  and  C_4 
REMARK    3  A    between atoms: C_5  and  N_6 
REMARK       I    between atoms: N_6  and  C_7 
REMARK    4  A    between atoms: C_7  and  C_8 
REMARK    5  A    between atoms: C_9  and  C_10 
REMARK    6  A    between atoms: C_10  and  N_11 
REMARK    7  A    between atoms: C_24  and  N_25 
REMARK    8  A    between atoms: N_25  and  C_26 
REMARK    9  A    between atoms: C_30  and  O_31 
REMARK   10  A    between atoms: O_31  and  C_32 
REMARK   11  A    between atoms: C_32  and  C_33 
ROOT
HETATM    1  C   UNL     1      39.622 -10.071   6.903  1.00  0.00     0.097 A 
HETATM    2  C   UNL     1      39.733 -11.271   6.196  1.00  0.00     0.069 A 
HETATM    3  C   UNL     1      39.929 -11.233   4.810  1.00  0.00     0.048 A 
HETATM    4  C   UNL     1      40.078 -10.025   4.088  1.00  0.00     0.023 A 
HETATM    5  C   UNL     1      39.969  -8.825   4.827  1.00  0.00     0.071 A 
HETATM    6  N   UNL     1      40.083  -7.612   4.273  1.00  0.00    -0.259 NA
HETATM    7  C   UNL     1      40.317  -7.533   2.948  1.00  0.00     0.142 A 
HETATM    8  C   UNL     1      40.422  -8.633   2.119  1.00  0.00     0.089 A 
HETATM    9  C   UNL     1      40.654  -8.417   0.725  1.00  0.00     0.103 C 
HETATM   10  N   UNL     1      40.815  -8.270  -0.414  1.00  0.00    -0.191 NA
HETATM   11  C   UNL     1      40.285  -9.922   2.675  1.00  0.00     0.067 A 
HETATM   12  C   UNL     1      39.720  -8.869   6.193  1.00  0.00     0.071 A 
ENDROOT
BRANCH  11  13
HETATM   13  N   UNL     1      40.360 -11.045   1.808  1.00  0.00    -0.354 N 
HETATM   14  H   UNL     1      39.899 -10.902   0.908  1.00  0.00     0.166 HD
BRANCH  13  15
HETATM   15  C   UNL     1      41.095 -12.246   1.811  1.00  0.00     0.034 A 
HETATM   16  C   UNL     1      40.411 -13.431   1.497  1.00  0.00     0.056 A 
HETATM   17  C   UNL     1      41.045 -14.673   1.572  1.00  0.00     0.069 A 
HETATM   18 CL   UNL     1      40.135 -16.085   1.178  1.00  0.00    -0.081 Cl
HETATM   19  C   UNL     1      42.374 -14.751   1.987  1.00  0.00     0.091 A 
HETATM   20  C   UNL     1      43.081 -13.580   2.267  1.00  0.00     0.041 A 
HETATM   21  C   UNL     1      42.440 -12.335   2.186  1.00  0.00     0.032 A 
BRANCH  19  22
HETATM   22  O   UNL     1      42.996 -15.969   2.033  1.00  0.00    -0.344 OA
BRANCH  22  23
HETATM   23  C   UNL     1      43.194 -16.451   3.371  1.00  0.00     0.235 C 
BRANCH  23  24
HETATM   24  C   UNL     1      43.404 -17.951   3.417  1.00  0.00     0.058 A 
HETATM   25  N   UNL     1      43.909 -18.456   4.577  1.00  0.00    -0.263 NA
HETATM   26  C   UNL     1      44.155 -19.786   4.622  1.00  0.00     0.117 A 
HETATM   27  C   UNL     1      43.915 -20.653   3.571  1.00  0.00     0.019 A 
HETATM   28  C   UNL     1      43.399 -20.127   2.396  1.00  0.00     0.003 A 
HETATM   29  C   UNL     1      43.150 -18.760   2.310  1.00  0.00     0.029 A 
ENDBRANCH  23  24
ENDBRANCH  22  23
ENDBRANCH  19  22
ENDBRANCH  13  15
ENDBRANCH  11  13
BRANCH   2  30
HETATM   30  N   UNL     1      39.819 -12.552   6.785  1.00  0.00    -0.321 N 
HETATM   31  C   UNL     1      40.338 -13.702   6.270  1.00  0.00     0.245 C 
HETATM   32  O   UNL     1      39.816 -14.794   6.481  1.00  0.00    -0.268 OA
HETATM   33  H   UNL     1      39.107 -12.729   7.487  1.00  0.00     0.169 HD
BRANCH  31  34
HETATM   34  C   UNL     1      41.735 -13.608   5.759  1.00  0.00     0.072 C 
HETATM   35  C   UNL     1      42.716 -13.390   6.650  1.00  0.00     0.006 C 
BRANCH  35  36
HETATM   36  C   UNL     1      44.096 -12.952   6.307  1.00  0.00     0.261 C 
BRANCH  36  37
HETATM   37  N   UNL     1      44.525 -11.815   7.212  1.00  0.00    -0.076 N 
HETATM   38  H   UNL     1      44.721 -12.240   8.129  1.00  0.00     0.279 HD
HETATM   39  C   UNL     1      45.801 -11.154   6.765  1.00  0.00     0.269 C 
HETATM   40  C   UNL     1      43.435 -10.810   7.435  1.00  0.00     0.269 C 
ENDBRANCH  36  37
ENDBRANCH  35  36
ENDBRANCH  31  34
ENDBRANCH   2  30
BRANCH   1  41
HETATM   41  O   UNL     1      39.460 -10.123   8.261  1.00  0.00    -0.349 OA
BRANCH  41  42
HETATM   42  C   UNL     1      40.080  -9.073   9.011  1.00  0.00     0.171 C 
HETATM   43  C   UNL     1      39.045  -8.499   9.962  1.00  0.00     0.034 C 
ENDBRANCH  41  42
ENDBRANCH   1  41
TORSDOF 11
ENDMDL
MODEL 9
REMARK VINA RESULT:      -7.2      2.971      8.709
REMARK  11 active torsions:
REMARK  status: ('A' for Active; 'I' for Inactive)
REMARK    1  A    between atoms: C_2  and  O_3 
REMARK    2  A    between atoms: O_3  and  C_4 
REMARK    3  A    between atoms: C_5  and  N_6 
REMARK       I    between atoms: N_6  and  C_7 
REMARK    4  A    between atoms: C_7  and  C_8 
REMARK    5  A    between atoms: C_9  and  C_10 
REMARK    6  A    between atoms: C_10  and  N_11 
REMARK    7  A    between atoms: C_24  and  N_25 
REMARK    8  A    between atoms: N_25  and  C_26 
REMARK    9  A    between atoms: C_30  and  O_31 
REMARK   10  A    between atoms: O_31  and  C_32 
REMARK   11  A    between atoms: C_32  and  C_33 
ROOT
HETATM    1  C   UNL     1      40.409  -8.757   9.271  1.00  0.00     0.097 A 
HETATM    2  C   UNL     1      41.583  -9.415   8.895  1.00  0.00     0.069 A 
HETATM    3  C   UNL     1      41.636 -10.067   7.657  1.00  0.00     0.048 A 
HETATM    4  C   UNL     1      40.565 -10.044   6.731  1.00  0.00     0.023 A 
HETATM    5  C   UNL     1      39.391  -9.367   7.132  1.00  0.00     0.071 A 
HETATM    6  N   UNL     1      38.302  -9.272   6.361  1.00  0.00    -0.259 NA
HETATM    7  C   UNL     1      38.328  -9.848   5.143  1.00  0.00     0.142 A 
HETATM    8  C   UNL     1      39.407 -10.554   4.649  1.00  0.00     0.089 A 
HETATM    9  C   UNL     1      39.306 -11.135   3.347  1.00  0.00     0.103 C 
HETATM   10  N   UNL     1      39.240 -11.638   2.304  1.00  0.00    -0.191 NA
HETATM   11  C   UNL     1      40.560 -10.686   5.451  1.00  0.00     0.067 A 
HETATM   12  C   UNL     1      39.326  -8.768   8.385  1.00  0.00     0.071 A 
ENDROOT
BRANCH  11  13
HETATM   13  N   UNL     1      41.652 -11.444   4.948  1.00  0.00    -0.354 N 
HETATM   14  H   UNL     1      42.328 -10.892   4.418  1.00  0.00     0.166 HD
BRANCH  13  15
HETATM   15  C   UNL     1      42.135 -12.748   5.174  1.00  0.00     0.034 A 
HETATM   16  C   UNL     1      41.405 -13.817   4.629  1.00  0.00     0.056 A 
HETATM   17  C   UNL     1      41.764 -15.142   4.888  1.00  0.00     0.069 A 
HETATM   18 CL   UNL     1      40.814 -16.401   4.191  1.00  0.00    -0.081 Cl
HETATM   19  C   UNL     1      42.850 -15.418   5.719  1.00  0.00     0.091 A 
HETATM   20  C   UNL     1      43.609 -14.367   6.238  1.00  0.00     0.041 A 
HETATM   21  C   UNL     1      43.247 -13.039   5.971  1.00  0.00     0.032 A 
BRANCH  19  22
HETATM   22  O   UNL     1      43.210 -16.718   5.946  1.00  0.00    -0.344 OA
BRANCH  22  23
HETATM   23  C   UNL     1      44.343 -17.134   5.167  1.00  0.00     0.235 C 
BRANCH  23  24
HETATM   24  C   UNL     1      44.019 -18.306   4.261  1.00  0.00     0.058 A 
HETATM   25  N   UNL     1      44.206 -19.547   4.789  1.00  0.00    -0.263 NA
HETATM   26  C   UNL     1      43.974 -20.608   3.981  1.00  0.00     0.117 A 
HETATM   27  C   UNL     1      43.553 -20.503   2.667  1.00  0.00     0.019 A 
HETATM   28  C   UNL     1      43.366 -19.233   2.142  1.00  0.00     0.003 A 
HETATM   29  C   UNL     1      43.611 -18.119   2.941  1.00  0.00     0.029 A 
ENDBRANCH  23  24
ENDBRANCH  22  23
ENDBRANCH  19  22
ENDBRANCH  13  15
ENDBRANCH  11  13
BRANCH   2  30
HETATM   30  N   UNL     1      42.806  -9.355   9.600  1.00  0.00    -0.321 N 
HETATM   31  C   UNL     1      43.918  -8.616   9.330  1.00  0.00     0.245 C 
HETATM   32  O   UNL     1      45.048  -9.067   9.508  1.00  0.00    -0.268 OA
HETATM   33  H   UNL     1      43.019 -10.198  10.124  1.00  0.00     0.169 HD
BRANCH  31  34
HETATM   34  C   UNL     1      43.697  -7.152   9.163  1.00  0.00     0.072 C 
HETATM   35  C   UNL     1      43.078  -6.493  10.158  1.00  0.00     0.006 C 
BRANCH  35  36
HETATM   36  C   UNL     1      42.491  -5.131  10.040  1.00  0.00     0.261 C 
BRANCH  36  37
HETATM   37  N   UNL     1      41.183  -5.058  10.801  1.00  0.00    -0.076 N 
HETATM   38  H   UNL     1      40.997  -6.011  11.141  1.00  0.00     0.279 HD
HETATM   39  C   UNL     1      41.257  -4.176  12.018  1.00  0.00     0.269 C 
HETATM   40  C   UNL     1      40.023  -4.686   9.925  1.00  0.00     0.269 C 
ENDBRANCH  36  37
ENDBRANCH  35  36
ENDBRANCH  31  34
ENDBRANCH   2  30
BRANCH   1  41
HETATM   41  O   UNL     1      40.383  -8.099  10.471  1.00  0.00    -0.349 OA
BRANCH  41  42
HETATM   42  C   UNL     1      39.806  -8.814  11.570  1.00  0.00     0.171 C 
HETATM   43  C   UNL     1      40.687  -8.597  12.787  1.00  0.00     0.034 C 
ENDBRANCH  41  42
ENDBRANCH   1  41
TORSDOF 11
ENDMDL
MODEL 10
REMARK VINA RESULT:      -7.1      1.434      1.918
REMARK  11 active torsions:
REMARK  status: ('A' for Active; 'I' for Inactive)
REMARK    1  A    between atoms: C_2  and  O_3 
REMARK    2  A    between atoms: O_3  and  C_4 
REMARK    3  A    between atoms: C_5  and  N_6 
REMARK       I    between atoms: N_6  and  C_7 
REMARK    4  A    between atoms: C_7  and  C_8 
REMARK    5  A    between atoms: C_9  and  C_10 
REMARK    6  A    between atoms: C_10  and  N_11 
REMARK    7  A    between atoms: C_24  and  N_25 
REMARK    8  A    between atoms: N_25  and  C_26 
REMARK    9  A    between atoms: C_30  and  O_31 
REMARK   10  A    between atoms: O_31  and  C_32 
REMARK   11  A    between atoms: C_32  and  C_33 
ROOT
HETATM    1  C   UNL     1      42.363 -16.645   3.183  1.00  0.00     0.097 A 
HETATM    2  C   UNL     1      41.662 -16.068   4.245  1.00  0.00     0.069 A 
HETATM    3  C   UNL     1      40.782 -15.009   3.989  1.00  0.00     0.048 A 
HETATM    4  C   UNL     1      40.521 -14.526   2.684  1.00  0.00     0.023 A 
HETATM    5  C   UNL     1      41.238 -15.131   1.627  1.00  0.00     0.071 A 
HETATM    6  N   UNL     1      41.095 -14.770   0.346  1.00  0.00    -0.259 NA
HETATM    7  C   UNL     1      40.224 -13.784   0.052  1.00  0.00     0.142 A 
HETATM    8  C   UNL     1      39.483 -13.104   1.000  1.00  0.00     0.089 A 
HETATM    9  C   UNL     1      38.604 -12.065   0.563  1.00  0.00     0.103 C 
HETATM   10  N   UNL     1      37.904 -11.200   0.238  1.00  0.00    -0.191 NA
HETATM   11  C   UNL     1      39.630 -13.453   2.359  1.00  0.00     0.067 A 
HETATM   12  C   UNL     1      42.150 -16.144   1.894  1.00  0.00     0.071 A 
ENDROOT
BRANCH  11  13
HETATM   13  N   UNL     1      38.890 -12.724   3.328  1.00  0.00    -0.354 N 
HETATM   14  H   UNL     1      37.938 -13.068   3.464  1.00  0.00     0.166 HD
BRANCH  13  15
HETATM   15  C   UNL     1      39.220 -11.759   4.300  1.00  0.00     0.034 A 
HETATM   16  C   UNL     1      39.514 -10.460   3.855  1.00  0.00     0.056 A 
HETATM   17  C   UNL     1      39.941  -9.472   4.745  1.00  0.00     0.069 A 
HETATM   18 CL   UNL     1      40.292  -7.902   4.123  1.00  0.00    -0.081 Cl
HETATM   19  C   UNL     1      40.104  -9.777   6.096  1.00  0.00     0.091 A 
HETATM   20  C   UNL     1      39.780 -11.053   6.561  1.00  0.00     0.041 A 
HETATM   21  C   UNL     1      39.347 -12.039   5.664  1.00  0.00     0.032 A 
BRANCH  19  22
HETATM   22  O   UNL     1      40.499  -8.796   6.965  1.00  0.00    -0.344 OA
BRANCH  22  23
HETATM   23  C   UNL     1      39.475  -8.429   7.904  1.00  0.00     0.235 C 
BRANCH  23  24
HETATM   24  C   UNL     1      39.902  -8.663   9.340  1.00  0.00     0.058 A 
HETATM   25  N   UNL     1      39.370  -9.754   9.959  1.00  0.00    -0.263 NA
HETATM   26  C   UNL     1      39.695  -9.953  11.257  1.00  0.00     0.117 A 
HETATM   27  C   UNL     1      40.535  -9.126  11.980  1.00  0.00     0.019 A 
HETATM   28  C   UNL     1      41.071  -8.018  11.339  1.00  0.00     0.003 A 
HETATM   29  C   UNL     1      40.744  -7.775  10.008  1.00  0.00     0.029 A 
ENDBRANCH  23  24
ENDBRANCH  22  23
ENDBRANCH  19  22
ENDBRANCH  13  15
ENDBRANCH  11  13
BRANCH   2  30
HETATM   30  N   UNL     1      41.643 -16.564   5.567  1.00  0.00    -0.321 N 
HETATM   31  C   UNL     1      42.483 -16.282   6.603  1.00  0.00     0.245 C 
HETATM   32  O   UNL     1      42.833 -17.148   7.401  1.00  0.00    -0.268 OA
HETATM   33  H   UNL     1      41.212 -17.479   5.657  1.00  0.00     0.169 HD
BRANCH  31  34
HETATM   34  C   UNL     1      42.655 -14.836   6.920  1.00  0.00     0.072 C 
HETATM   35  C   UNL     1      43.731 -14.207   6.417  1.00  0.00     0.006 C 
BRANCH  35  36
HETATM   36  C   UNL     1      44.237 -12.885   6.877  1.00  0.00     0.261 C 
BRANCH  36  37
HETATM   37  N   UNL     1      43.281 -11.786   6.462  1.00  0.00    -0.076 N 
HETATM   38  H   UNL     1      42.350 -12.079   6.789  1.00  0.00     0.279 HD
HETATM   39  C   UNL     1      43.572 -10.468   7.126  1.00  0.00     0.269 C 
HETATM   40  C   UNL     1      43.180 -11.639   4.973  1.00  0.00     0.269 C 
ENDBRANCH  36  37
ENDBRANCH  35  36
ENDBRANCH  31  34
ENDBRANCH   2  30
BRANCH   1  41
HETATM   41  O   UNL     1      43.198 -17.698   3.445  1.00  0.00    -0.349 OA
BRANCH  41  42
HETATM   42  C   UNL     1      43.807 -18.318   2.307  1.00  0.00     0.171 C 
HETATM   43  C   UNL     1      43.379 -19.774   2.279  1.00  0.00     0.034 C 
ENDBRANCH  41  42
ENDBRANCH   1  41
TORSDOF 11
ENDMDL
