MODEL 1
REMARK VINA RESULT:      -8.3      0.000      0.000
REMARK  4 active torsions:
REMARK  status: ('A' for Active; 'I' for Inactive)
REMARK    1  A    between atoms: C_3  and  N_4 
REMARK    2  A    between atoms: N_4  and  C_5 
REMARK    3  A    between atoms: C_5  and  C_6 
REMARK    4  A    between atoms: C_14  and  C_15 
ROOT
HETATM    1  C   UNL     1      42.121 -12.444   3.640  1.00  0.00     0.006 A 
HETATM    2  C   UNL     1      41.704 -12.314   2.318  1.00  0.00     0.048 A 
HETATM    3  C   UNL     1      41.729 -13.418   1.452  1.00  0.00     0.101 A 
HETATM    4  N   UNL     1      42.219 -14.574   1.928  1.00  0.00    -0.342 N 
HETATM    5  H   UNL     1      42.282 -15.370   1.307  1.00  0.00     0.167 HD
HETATM    6  C   UNL     1      42.643 -14.742   3.195  1.00  0.00     0.044 A 
HETATM    7  C   UNL     1      42.588 -13.672   4.086  1.00  0.00     0.030 A 
ENDROOT
BRANCH   6   8
HETATM    8  C   UNL     1      43.110 -16.087   3.524  1.00  0.00    -0.007 A 
HETATM    9  C   UNL     1      42.933 -17.146   2.616  1.00  0.00     0.053 A 
HETATM   10  C   UNL     1      43.377 -18.435   2.917  1.00  0.00     0.103 A 
HETATM   11  C   UNL     1      43.984 -18.697   4.144  1.00  0.00     0.102 A 
HETATM   12  O   UNL     1      43.169 -19.392   1.959  1.00  0.00    -0.346 OA
HETATM   13  O   UNL     1      44.407 -19.943   4.520  1.00  0.00    -0.346 OA
HETATM   14  C   UNL     1      44.183 -17.662   5.052  1.00  0.00     0.040 A 
HETATM   15  C   UNL     1      43.824 -20.964   3.700  1.00  0.00     0.202 C 
HETATM   16  C   UNL     1      43.916 -20.587   2.229  1.00  0.00     0.202 C 
HETATM   17  C   UNL     1      43.746 -16.368   4.750  1.00  0.00     0.016 A 
ENDBRANCH   6   8
BRANCH   3  18
HETATM   18  N   UNL     1      41.372 -13.243   0.120  1.00  0.00    -0.372 N 
HETATM   19  H   UNL     1      42.200 -13.123  -0.470  1.00  0.00     0.161 HD
BRANCH  18  20
HETATM   20  C   UNL     1      40.281 -12.383  -0.339  1.00  0.00     0.162 C 
BRANCH  20  21
HETATM   21  C   UNL     1      39.467 -13.020  -1.419  1.00  0.00    -0.005 A 
HETATM   22  C   UNL     1      38.116 -12.768  -1.556  1.00  0.00     0.128 A 
HETATM   23  N   UNL     1      37.340 -13.357  -2.481  1.00  0.00    -0.254 NA
HETATM   24  C   UNL     1      37.959 -14.175  -3.344  1.00  0.00     0.232 A 
HETATM   25  N   UNL     1      39.264 -14.476  -3.320  1.00  0.00    -0.254 NA
HETATM   26  C   UNL     1      39.999 -13.867  -2.372  1.00  0.00     0.128 A 
ENDBRANCH  20  21
ENDBRANCH  18  20
ENDBRANCH   3  18
TORSDOF 4
ENDMDL
MODEL 2
REMARK VINA RESULT:      -8.1      1.323      1.648
REMARK  4 active torsions:
REMARK  status: ('A' for Active; 'I' for Inactive)
REMARK    1  A    between atoms: C_3  and  N_4 
REMARK    2  A    between atoms: N_4  and  C_5 
REMARK    3  A    between atoms: C_5  and  C_6 
REMARK    4  A    between atoms: C_14  and  C_15 
ROOT
HETATM    1  C   UNL     1      41.528 -12.612   4.427  1.00  0.00     0.006 A 
HETATM    2  C   UNL     1      40.658 -12.540   3.342  1.00  0.00     0.048 A 
HETATM    3  C   UNL     1      40.456 -13.655   2.515  1.00  0.00     0.101 A 
HETATM    4  N   UNL     1      41.170 -14.762   2.776  1.00  0.00    -0.342 N 
HETATM    5  H   UNL     1      41.067 -15.564   2.167  1.00  0.00     0.167 HD
HETATM    6  C   UNL     1      42.030 -14.874   3.806  1.00  0.00     0.044 A 
HETATM    7  C   UNL     1      42.216 -13.793   4.666  1.00  0.00     0.030 A 
ENDROOT
BRANCH   6   8
HETATM    8  C   UNL     1      42.685 -16.174   3.936  1.00  0.00    -0.007 A 
HETATM    9  C   UNL     1      42.494 -17.169   2.961  1.00  0.00     0.053 A 
HETATM   10  C   UNL     1      43.116 -18.415   3.071  1.00  0.00     0.103 A 
HETATM   11  C   UNL     1      43.920 -18.699   4.173  1.00  0.00     0.102 A 
HETATM   12  O   UNL     1      42.876 -19.309   2.062  1.00  0.00    -0.346 OA
HETATM   13  O   UNL     1      44.528 -19.910   4.365  1.00  0.00    -0.346 OA
HETATM   14  C   UNL     1      44.136 -17.724   5.142  1.00  0.00     0.040 A 
HETATM   15  C   UNL     1      43.946 -20.925   3.535  1.00  0.00     0.202 C 
HETATM   16  C   UNL     1      43.780 -20.421   2.110  1.00  0.00     0.202 C 
HETATM   17  C   UNL     1      43.520 -16.473   5.030  1.00  0.00     0.016 A 
ENDBRANCH   6   8
BRANCH   3  18
HETATM   18  N   UNL     1      39.634 -13.534   1.401  1.00  0.00    -0.372 N 
HETATM   19  H   UNL     1      38.654 -13.433   1.676  1.00  0.00     0.161 HD
BRANCH  18  20
HETATM   20  C   UNL     1      39.752 -14.349   0.192  1.00  0.00     0.162 C 
BRANCH  20  21
HETATM   21  C   UNL     1      40.238 -13.563  -0.982  1.00  0.00    -0.005 A 
HETATM   22  C   UNL     1      40.871 -12.345  -0.831  1.00  0.00     0.128 A 
HETATM   23  N   UNL     1      41.280 -11.585  -1.862  1.00  0.00    -0.254 NA
HETATM   24  C   UNL     1      41.108 -12.104  -3.087  1.00  0.00     0.232 A 
HETATM   25  N   UNL     1      40.529 -13.281  -3.351  1.00  0.00    -0.254 NA
HETATM   26  C   UNL     1      40.131 -14.003  -2.288  1.00  0.00     0.128 A 
ENDBRANCH  20  21
ENDBRANCH  18  20
ENDBRANCH   3  18
TORSDOF 4
ENDMDL
MODEL 3
REMARK VINA RESULT:      -7.9      4.267      7.650
REMARK  4 active torsions:
REMARK  status: ('A' for Active; 'I' for Inactive)
REMARK    1  A    between atoms: C_3  and  N_4 
REMARK    2  A    between atoms: N_4  and  C_5 
REMARK    3  A    between atoms: C_5  and  C_6 
REMARK    4  A    between atoms: C_14  and  C_15 
ROOT
HETATM    1  C   UNL     1      39.751 -13.746   2.473  1.00  0.00     0.006 A 
HETATM    2  C   UNL     1      40.169 -15.022   2.105  1.00  0.00     0.048 A 
HETATM    3  C   UNL     1      41.250 -15.634   2.759  1.00  0.00     0.101 A 
HETATM    4  N   UNL     1      41.889 -14.925   3.703  1.00  0.00    -0.342 N 
HETATM    5  H   UNL     1      42.695 -15.333   4.158  1.00  0.00     0.167 HD
HETATM    6  C   UNL     1      41.527 -13.685   4.083  1.00  0.00     0.044 A 
HETATM    7  C   UNL     1      40.431 -13.073   3.477  1.00  0.00     0.030 A 
ENDROOT
BRANCH   6   8
HETATM    8  C   UNL     1      42.334 -13.096   5.150  1.00  0.00    -0.007 A 
HETATM    9  C   UNL     1      42.190 -11.739   5.486  1.00  0.00     0.053 A 
HETATM   10  C   UNL     1      42.953 -11.164   6.506  1.00  0.00     0.103 A 
HETATM   11  C   UNL     1      43.894 -11.930   7.190  1.00  0.00     0.102 A 
HETATM   12  O   UNL     1      42.727  -9.839   6.764  1.00  0.00    -0.346 OA
HETATM   13  O   UNL     1      44.702 -11.424   8.172  1.00  0.00    -0.346 OA
HETATM   14  C   UNL     1      44.043 -13.280   6.885  1.00  0.00     0.040 A 
HETATM   15  C   UNL     1      44.732  -9.990   8.137  1.00  0.00     0.202 C 
HETATM   16  C   UNL     1      43.326  -9.428   8.002  1.00  0.00     0.202 C 
HETATM   17  C   UNL     1      43.275 -13.859   5.869  1.00  0.00     0.016 A 
ENDBRANCH   6   8
BRANCH   3  18
HETATM   18  N   UNL     1      41.689 -16.879   2.325  1.00  0.00    -0.372 N 
HETATM   19  H   UNL     1      41.184 -17.633   2.799  1.00  0.00     0.161 HD
BRANCH  18  20
HETATM   20  C   UNL     1      43.092 -17.241   2.130  1.00  0.00     0.162 C 
BRANCH  20  21
HETATM   21  C   UNL     1      43.450 -18.527   2.801  1.00  0.00    -0.005 A 
HETATM   22  C   UNL     1      43.364 -19.739   2.144  1.00  0.00     0.128 A 
HETATM   23  N   UNL     1      43.629 -20.921   2.726  1.00  0.00    -0.254 NA
HETATM   24  C   UNL     1      44.065 -20.876   3.993  1.00  0.00     0.232 A 
HETATM   25  N   UNL     1      44.207 -19.760   4.720  1.00  0.00    -0.254 NA
HETATM   26  C   UNL     1      43.925 -18.602   4.096  1.00  0.00     0.128 A 
ENDBRANCH  20  21
ENDBRANCH  18  20
ENDBRANCH   3  18
TORSDOF 4
ENDMDL
MODEL 4
REMARK VINA RESULT:      -7.7      3.154      5.985
REMARK  4 active torsions:
REMARK  status: ('A' for Active; 'I' for Inactive)
REMARK    1  A    between atoms: C_3  and  N_4 
REMARK    2  A    between atoms: N_4  and  C_5 
REMARK    3  A    between atoms: C_5  and  C_6 
REMARK    4  A    between atoms: C_14  and  C_15 
ROOT
HETATM    1  C   UNL     1      39.934 -13.706   2.247  1.00  0.00     0.006 A 
HETATM    2  C   UNL     1      40.635 -12.562   2.618  1.00  0.00     0.048 A 
HETATM    3  C   UNL     1      41.911 -12.663   3.193  1.00  0.00     0.101 A 
HETATM    4  N   UNL     1      42.397 -13.894   3.418  1.00  0.00    -0.342 N 
HETATM    5  H   UNL     1      43.299 -13.988   3.868  1.00  0.00     0.167 HD
HETATM    6  C   UNL     1      41.751 -15.028   3.086  1.00  0.00     0.044 A 
HETATM    7  C   UNL     1      40.500 -14.952   2.476  1.00  0.00     0.030 A 
ENDROOT
BRANCH   6   8
HETATM    8  C   UNL     1      42.465 -16.267   3.387  1.00  0.00    -0.007 A 
HETATM    9  C   UNL     1      42.358 -17.377   2.531  1.00  0.00     0.053 A 
HETATM   10  C   UNL     1      43.037 -18.567   2.805  1.00  0.00     0.103 A 
HETATM   11  C   UNL     1      43.816 -18.678   3.955  1.00  0.00     0.102 A 
HETATM   12  O   UNL     1      42.877 -19.583   1.901  1.00  0.00    -0.346 OA
HETATM   13  O   UNL     1      44.477 -19.823   4.305  1.00  0.00    -0.346 OA
HETATM   14  C   UNL     1      43.949 -17.586   4.808  1.00  0.00     0.040 A 
HETATM   15  C   UNL     1      43.976 -20.958   3.585  1.00  0.00     0.202 C 
HETATM   16  C   UNL     1      43.834 -20.632   2.106  1.00  0.00     0.202 C 
HETATM   17  C   UNL     1      43.276 -16.392   4.532  1.00  0.00     0.016 A 
ENDBRANCH   6   8
BRANCH   3  18
HETATM   18  N   UNL     1      42.558 -11.508   3.617  1.00  0.00    -0.372 N 
HETATM   19  H   UNL     1      42.403 -10.738   2.961  1.00  0.00     0.161 HD
BRANCH  18  20
HETATM   20  C   UNL     1      43.920 -11.469   4.148  1.00  0.00     0.162 C 
BRANCH  20  21
HETATM   21  C   UNL     1      43.952 -11.230   5.623  1.00  0.00    -0.005 A 
HETATM   22  C   UNL     1      45.011 -11.649   6.405  1.00  0.00     0.128 A 
HETATM   23  N   UNL     1      45.056 -11.498   7.739  1.00  0.00    -0.254 NA
HETATM   24  C   UNL     1      44.031 -10.837   8.297  1.00  0.00     0.232 A 
HETATM   25  N   UNL     1      42.965 -10.368   7.637  1.00  0.00    -0.254 NA
HETATM   26  C   UNL     1      42.962 -10.549   6.304  1.00  0.00     0.128 A 
ENDBRANCH  20  21
ENDBRANCH  18  20
ENDBRANCH   3  18
TORSDOF 4
ENDMDL
MODEL 5
REMARK VINA RESULT:      -7.7      8.737     11.601
REMARK  4 active torsions:
REMARK  status: ('A' for Active; 'I' for Inactive)
REMARK    1  A    between atoms: C_3  and  N_4 
REMARK    2  A    between atoms: N_4  and  C_5 
REMARK    3  A    between atoms: C_5  and  C_6 
REMARK    4  A    between atoms: C_14  and  C_15 
ROOT
HETATM    1  C   UNL     1      45.878  -9.539   8.848  1.00  0.00     0.006 A 
HETATM    2  C   UNL     1      45.256 -10.432   7.980  1.00  0.00     0.048 A 
HETATM    3  C   UNL     1      43.979 -10.936   8.271  1.00  0.00     0.101 A 
HETATM    4  N   UNL     1      43.415 -10.571   9.433  1.00  0.00    -0.342 N 
HETATM    5  H   UNL     1      42.512 -10.955   9.679  1.00  0.00     0.167 HD
HETATM    6  C   UNL     1      43.984  -9.719  10.307  1.00  0.00     0.044 A 
HETATM    7  C   UNL     1      45.233  -9.172  10.020  1.00  0.00     0.030 A 
ENDROOT
BRANCH   6   8
HETATM    8  C   UNL     1      43.191  -9.425  11.500  1.00  0.00    -0.007 A 
HETATM    9  C   UNL     1      43.573  -8.389  12.371  1.00  0.00     0.053 A 
HETATM   10  C   UNL     1      42.823  -8.096  13.513  1.00  0.00     0.103 A 
HETATM   11  C   UNL     1      41.692  -8.848  13.819  1.00  0.00     0.102 A 
HETATM   12  O   UNL     1      43.273  -7.060  14.288  1.00  0.00    -0.346 OA
HETATM   13  O   UNL     1      40.933  -8.641  14.939  1.00  0.00    -0.346 OA
HETATM   14  C   UNL     1      41.286  -9.868  12.962  1.00  0.00     0.040 A 
HETATM   15  C   UNL     1      41.637  -7.853  15.909  1.00  0.00     0.202 C 
HETATM   16  C   UNL     1      42.289  -6.648  15.248  1.00  0.00     0.202 C 
HETATM   17  C   UNL     1      42.031 -10.160  11.815  1.00  0.00     0.016 A 
ENDBRANCH   6   8
BRANCH   3  18
HETATM   18  N   UNL     1      43.412 -11.879   7.421  1.00  0.00    -0.372 N 
HETATM   19  H   UNL     1      42.531 -12.234   7.801  1.00  0.00     0.161 HD
BRANCH  18  20
HETATM   20  C   UNL     1      44.156 -12.947   6.755  1.00  0.00     0.162 C 
BRANCH  20  21
HETATM   21  C   UNL     1      43.318 -14.160   6.510  1.00  0.00    -0.005 A 
HETATM   22  C   UNL     1      42.845 -14.476   5.251  1.00  0.00     0.128 A 
HETATM   23  N   UNL     1      42.049 -15.529   4.998  1.00  0.00    -0.254 NA
HETATM   24  C   UNL     1      41.778 -16.333   6.037  1.00  0.00     0.232 A 
HETATM   25  N   UNL     1      42.198 -16.137   7.293  1.00  0.00    -0.254 NA
HETATM   26  C   UNL     1      42.987 -15.067   7.499  1.00  0.00     0.128 A 
ENDBRANCH  20  21
ENDBRANCH  18  20
ENDBRANCH   3  18
TORSDOF 4
ENDMDL
MODEL 6
REMARK VINA RESULT:      -7.6      7.402     10.400
REMARK  4 active torsions:
REMARK  status: ('A' for Active; 'I' for Inactive)
REMARK    1  A    between atoms: C_3  and  N_4 
REMARK    2  A    between atoms: N_4  and  C_5 
REMARK    3  A    between atoms: C_5  and  C_6 
REMARK    4  A    between atoms: C_14  and  C_15 
ROOT
HETATM    1  C   UNL     1      46.229 -10.212   7.801  1.00  0.00     0.006 A 
HETATM    2  C   UNL     1      45.736 -11.213   6.968  1.00  0.00     0.048 A 
HETATM    3  C   UNL     1      44.492 -11.808   7.228  1.00  0.00     0.101 A 
HETATM    4  N   UNL     1      43.833 -11.418   8.331  1.00  0.00    -0.342 N 
HETATM    5  H   UNL     1      42.953 -11.864   8.557  1.00  0.00     0.167 HD
HETATM    6  C   UNL     1      44.276 -10.463   9.170  1.00  0.00     0.044 A 
HETATM    7  C   UNL     1      45.488  -9.826   8.909  1.00  0.00     0.030 A 
ENDROOT
BRANCH   6   8
HETATM    8  C   UNL     1      43.393 -10.161  10.296  1.00  0.00    -0.007 A 
HETATM    9  C   UNL     1      42.249  -9.365  10.111  1.00  0.00     0.053 A 
HETATM   10  C   UNL     1      41.396  -9.071  11.177  1.00  0.00     0.103 A 
HETATM   11  C   UNL     1      41.686  -9.545  12.455  1.00  0.00     0.102 A 
HETATM   12  O   UNL     1      40.302  -8.300  10.889  1.00  0.00    -0.346 OA
HETATM   13  O   UNL     1      40.916  -9.265  13.551  1.00  0.00    -0.346 OA
HETATM   14  C   UNL     1      42.805 -10.347  12.659  1.00  0.00     0.040 A 
HETATM   15  C   UNL     1      40.041  -8.155  13.306  1.00  0.00     0.202 C 
HETATM   16  C   UNL     1      39.348  -8.308  11.961  1.00  0.00     0.202 C 
HETATM   17  C   UNL     1      43.657 -10.649  11.591  1.00  0.00     0.016 A 
ENDBRANCH   6   8
BRANCH   3  18
HETATM   18  N   UNL     1      44.058 -12.852   6.420  1.00  0.00    -0.372 N 
HETATM   19  H   UNL     1      43.633 -12.498   5.559  1.00  0.00     0.161 HD
BRANCH  18  20
HETATM   20  C   UNL     1      43.340 -14.031   6.903  1.00  0.00     0.162 C 
BRANCH  20  21
HETATM   21  C   UNL     1      43.496 -15.207   5.995  1.00  0.00    -0.005 A 
HETATM   22  C   UNL     1      42.894 -15.252   4.753  1.00  0.00     0.128 A 
HETATM   23  N   UNL     1      42.968 -16.311   3.928  1.00  0.00    -0.254 NA
HETATM   24  C   UNL     1      43.735 -17.331   4.338  1.00  0.00     0.232 A 
HETATM   25  N   UNL     1      44.381 -17.388   5.509  1.00  0.00    -0.254 NA
HETATM   26  C   UNL     1      44.272 -16.308   6.304  1.00  0.00     0.128 A 
ENDBRANCH  20  21
ENDBRANCH  18  20
ENDBRANCH   3  18
TORSDOF 4
ENDMDL
MODEL 7
REMARK VINA RESULT:      -7.5      4.521      8.435
REMARK  4 active torsions:
REMARK  status: ('A' for Active; 'I' for Inactive)
REMARK    1  A    between atoms: C_3  and  N_4 
REMARK    2  A    between atoms: N_4  and  C_5 
REMARK    3  A    between atoms: C_5  and  C_6 
REMARK    4  A    between atoms: C_14  and  C_15 
ROOT
HETATM    1  C   UNL     1      43.303 -16.324   6.141  1.00  0.00     0.006 A 
HETATM    2  C   UNL     1      43.581 -15.106   6.755  1.00  0.00     0.048 A 
HETATM    3  C   UNL     1      43.168 -13.901   6.165  1.00  0.00     0.101 A 
HETATM    4  N   UNL     1      42.554 -13.968   4.973  1.00  0.00    -0.342 N 
HETATM    5  H   UNL     1      42.285 -13.108   4.514  1.00  0.00     0.167 HD
HETATM    6  C   UNL     1      42.275 -15.122   4.338  1.00  0.00     0.044 A 
HETATM    7  C   UNL     1      42.637 -16.334   4.924  1.00  0.00     0.030 A 
ENDROOT
BRANCH   6   8
HETATM    8  C   UNL     1      41.571 -14.981   3.065  1.00  0.00    -0.007 A 
HETATM    9  C   UNL     1      41.682 -13.796   2.317  1.00  0.00     0.053 A 
HETATM   10  C   UNL     1      41.017 -13.649   1.097  1.00  0.00     0.103 A 
HETATM   11  C   UNL     1      40.207 -14.675   0.614  1.00  0.00     0.102 A 
HETATM   12  O   UNL     1      41.201 -12.461   0.441  1.00  0.00    -0.346 OA
HETATM   13  O   UNL     1      39.498 -14.584  -0.552  1.00  0.00    -0.346 OA
HETATM   14  C   UNL     1      40.095 -15.863   1.330  1.00  0.00     0.040 A 
HETATM   15  C   UNL     1      39.386 -13.224  -0.992  1.00  0.00     0.202 C 
HETATM   16  C   UNL     1      40.734 -12.524  -0.914  1.00  0.00     0.202 C 
HETATM   17  C   UNL     1      40.766 -16.016   2.548  1.00  0.00     0.016 A 
ENDBRANCH   6   8
BRANCH   3  18
HETATM   18  N   UNL     1      43.519 -12.697   6.765  1.00  0.00    -0.372 N 
HETATM   19  H   UNL     1      42.827 -11.970   6.564  1.00  0.00     0.161 HD
BRANCH  18  20
HETATM   20  C   UNL     1      44.870 -12.137   6.771  1.00  0.00     0.162 C 
BRANCH  20  21
HETATM   21  C   UNL     1      44.928 -10.789   7.413  1.00  0.00    -0.005 A 
HETATM   22  C   UNL     1      46.122 -10.120   7.596  1.00  0.00     0.128 A 
HETATM   23  N   UNL     1      46.222  -8.930   8.212  1.00  0.00    -0.254 NA
HETATM   24  C   UNL     1      45.070  -8.361   8.596  1.00  0.00     0.232 A 
HETATM   25  N   UNL     1      43.856  -8.905   8.451  1.00  0.00    -0.254 NA
HETATM   26  C   UNL     1      43.807 -10.099   7.834  1.00  0.00     0.128 A 
ENDBRANCH  20  21
ENDBRANCH  18  20
ENDBRANCH   3  18
TORSDOF 4
ENDMDL
MODEL 8
REMARK VINA RESULT:      -7.4      4.002      7.823
REMARK  4 active torsions:
REMARK  status: ('A' for Active; 'I' for Inactive)
REMARK    1  A    between atoms: C_3  and  N_4 
REMARK    2  A    between atoms: N_4  and  C_5 
REMARK    3  A    between atoms: C_5  and  C_6 
REMARK    4  A    between atoms: C_14  and  C_15 
ROOT
HETATM    1  C   UNL     1      43.031 -16.721   2.791  1.00  0.00     0.006 A 
HETATM    2  C   UNL     1      42.192 -16.844   3.896  1.00  0.00     0.048 A 
HETATM    3  C   UNL     1      40.939 -16.213   3.912  1.00  0.00     0.101 A 
HETATM    4  N   UNL     1      40.612 -15.450   2.857  1.00  0.00    -0.342 N 
HETATM    5  H   UNL     1      39.729 -14.955   2.868  1.00  0.00     0.167 HD
HETATM    6  C   UNL     1      41.395 -15.293   1.773  1.00  0.00     0.044 A 
HETATM    7  C   UNL     1      42.627 -15.944   1.715  1.00  0.00     0.030 A 
ENDROOT
BRANCH   6   8
HETATM    8  C   UNL     1      40.842 -14.447   0.718  1.00  0.00    -0.007 A 
HETATM    9  C   UNL     1      41.243 -13.104   0.598  1.00  0.00     0.053 A 
HETATM   10  C   UNL     1      40.725 -12.285  -0.407  1.00  0.00     0.103 A 
HETATM   11  C   UNL     1      39.775 -12.784  -1.296  1.00  0.00     0.102 A 
HETATM   12  O   UNL     1      41.191 -10.997  -0.447  1.00  0.00    -0.346 OA
HETATM   13  O   UNL     1      39.197 -12.028  -2.279  1.00  0.00    -0.346 OA
HETATM   14  C   UNL     1      39.375 -14.114  -1.206  1.00  0.00     0.040 A 
HETATM   15  C   UNL     1      39.389 -10.627  -2.043  1.00  0.00     0.202 C 
HETATM   16  C   UNL     1      40.836 -10.340  -1.672  1.00  0.00     0.202 C 
HETATM   17  C   UNL     1      39.898 -14.939  -0.204  1.00  0.00     0.016 A 
ENDBRANCH   6   8
BRANCH   3  18
HETATM   18  N   UNL     1      40.152 -16.296   5.055  1.00  0.00    -0.372 N 
HETATM   19  H   UNL     1      39.169 -16.115   4.838  1.00  0.00     0.161 HD
BRANCH  18  20
HETATM   20  C   UNL     1      40.510 -15.721   6.351  1.00  0.00     0.162 C 
BRANCH  20  21
HETATM   21  C   UNL     1      40.977 -14.306   6.240  1.00  0.00    -0.005 A 
HETATM   22  C   UNL     1      40.097 -13.264   6.022  1.00  0.00     0.128 A 
HETATM   23  N   UNL     1      40.480 -11.985   5.867  1.00  0.00    -0.254 NA
HETATM   24  C   UNL     1      41.790 -11.737   6.007  1.00  0.00     0.232 A 
HETATM   25  N   UNL     1      42.730 -12.662   6.241  1.00  0.00    -0.254 NA
HETATM   26  C   UNL     1      42.299 -13.928   6.382  1.00  0.00     0.128 A 
ENDBRANCH  20  21
ENDBRANCH  18  20
ENDBRANCH   3  18
TORSDOF 4
ENDMDL
MODEL 9
REMARK VINA RESULT:      -7.4      3.956      5.243
REMARK  4 active torsions:
REMARK  status: ('A' for Active; 'I' for Inactive)
REMARK    1  A    between atoms: C_3  and  N_4 
REMARK    2  A    between atoms: N_4  and  C_5 
REMARK    3  A    between atoms: C_5  and  C_6 
REMARK    4  A    between atoms: C_14  and  C_15 
ROOT
HETATM    1  C   UNL     1      42.650 -12.500   2.815  1.00  0.00     0.006 A 
HETATM    2  C   UNL     1      41.929 -12.040   3.914  1.00  0.00     0.048 A 
HETATM    3  C   UNL     1      41.692 -12.881   5.013  1.00  0.00     0.101 A 
HETATM    4  N   UNL     1      42.135 -14.146   4.936  1.00  0.00    -0.342 N 
HETATM    5  H   UNL     1      41.939 -14.779   5.701  1.00  0.00     0.167 HD
HETATM    6  C   UNL     1      42.826 -14.636   3.889  1.00  0.00     0.044 A 
HETATM    7  C   UNL     1      43.110 -13.809   2.804  1.00  0.00     0.030 A 
ENDROOT
BRANCH   6   8
HETATM    8  C   UNL     1      43.245 -16.031   4.014  1.00  0.00    -0.007 A 
HETATM    9  C   UNL     1      42.988 -16.948   2.979  1.00  0.00     0.053 A 
HETATM   10  C   UNL     1      43.386 -18.283   3.084  1.00  0.00     0.103 A 
HETATM   11  C   UNL     1      44.025 -18.733   4.238  1.00  0.00     0.102 A 
HETATM   12  O   UNL     1      43.101 -19.091   2.015  1.00  0.00    -0.346 OA
HETATM   13  O   UNL     1      44.407 -20.034   4.424  1.00  0.00    -0.346 OA
HETATM   14  C   UNL     1      44.303 -17.840   5.268  1.00  0.00     0.040 A 
HETATM   15  C   UNL     1      43.749 -20.910   3.499  1.00  0.00     0.202 C 
HETATM   16  C   UNL     1      43.804 -20.339   2.090  1.00  0.00     0.202 C 
HETATM   17  C   UNL     1      43.912 -16.501   5.163  1.00  0.00     0.016 A 
ENDBRANCH   6   8
BRANCH   3  18
HETATM   18  N   UNL     1      40.912 -12.418   6.065  1.00  0.00    -0.372 N 
HETATM   19  H   UNL     1      41.151 -12.896   6.938  1.00  0.00     0.161 HD
BRANCH  18  20
HETATM   20  C   UNL     1      39.471 -12.179   5.986  1.00  0.00     0.162 C 
BRANCH  20  21
HETATM   21  C   UNL     1      39.134 -10.723   5.964  1.00  0.00    -0.005 A 
HETATM   22  C   UNL     1      39.348  -9.910   7.060  1.00  0.00     0.128 A 
HETATM   23  N   UNL     1      39.014  -8.609   7.098  1.00  0.00    -0.254 NA
HETATM   24  C   UNL     1      38.511  -8.091   5.967  1.00  0.00     0.232 A 
HETATM   25  N   UNL     1      38.282  -8.777   4.841  1.00  0.00    -0.254 NA
HETATM   26  C   UNL     1      38.627 -10.077   4.853  1.00  0.00     0.128 A 
ENDBRANCH  20  21
ENDBRANCH  18  20
ENDBRANCH   3  18
TORSDOF 4
ENDMDL
MODEL 10
REMARK VINA RESULT:      -7.4      3.910      5.133
REMARK  4 active torsions:
REMARK  status: ('A' for Active; 'I' for Inactive)
REMARK    1  A    between atoms: C_3  and  N_4 
REMARK    2  A    between atoms: N_4  and  C_5 
REMARK    3  A    between atoms: C_5  and  C_6 
REMARK    4  A    between atoms: C_14  and  C_15 
ROOT
HETATM    1  C   UNL     1      43.175 -12.920   2.685  1.00  0.00     0.006 A 
HETATM    2  C   UNL     1      42.600 -12.515   3.887  1.00  0.00     0.048 A 
HETATM    3  C   UNL     1      42.256 -13.459   4.866  1.00  0.00     0.101 A 
HETATM    4  N   UNL     1      42.450 -14.756   4.577  1.00  0.00    -0.342 N 
HETATM    5  H   UNL     1      42.172 -15.454   5.254  1.00  0.00     0.167 HD
HETATM    6  C   UNL     1      42.992 -15.194   3.425  1.00  0.00     0.044 A 
HETATM    7  C   UNL     1      43.381 -14.272   2.454  1.00  0.00     0.030 A 
ENDROOT
BRANCH   6   8
HETATM    8  C   UNL     1      43.148 -16.643   3.318  1.00  0.00    -0.007 A 
HETATM    9  C   UNL     1      43.553 -17.401   4.431  1.00  0.00     0.053 A 
HETATM   10  C   UNL     1      43.703 -18.786   4.343  1.00  0.00     0.103 A 
HETATM   11  C   UNL     1      43.477 -19.439   3.133  1.00  0.00     0.102 A 
HETATM   12  O   UNL     1      44.088 -19.433   5.488  1.00  0.00    -0.346 OA
HETATM   13  O   UNL     1      43.642 -20.787   2.966  1.00  0.00    -0.346 OA
HETATM   14  C   UNL     1      43.061 -18.712   2.022  1.00  0.00     0.040 A 
HETATM   15  C   UNL     1      44.416 -21.356   4.031  1.00  0.00     0.202 C 
HETATM   16  C   UNL     1      43.922 -20.853   5.378  1.00  0.00     0.202 C 
HETATM   17  C   UNL     1      42.903 -17.324   2.109  1.00  0.00     0.016 A 
ENDBRANCH   6   8
BRANCH   3  18
HETATM   18  N   UNL     1      41.621 -13.033   6.026  1.00  0.00    -0.372 N 
HETATM   19  H   UNL     1      42.118 -13.358   6.859  1.00  0.00     0.161 HD
BRANCH  18  20
HETATM   20  C   UNL     1      40.174 -13.070   6.241  1.00  0.00     0.162 C 
BRANCH  20  21
HETATM   21  C   UNL     1      39.515 -11.768   5.920  1.00  0.00    -0.005 A 
HETATM   22  C   UNL     1      39.189 -11.416   4.625  1.00  0.00     0.128 A 
HETATM   23  N   UNL     1      38.641 -10.236   4.289  1.00  0.00    -0.254 NA
HETATM   24  C   UNL     1      38.345  -9.408   5.303  1.00  0.00     0.232 A 
HETATM   25  N   UNL     1      38.595  -9.652   6.595  1.00  0.00    -0.254 NA
HETATM   26  C   UNL     1      39.150 -10.844   6.881  1.00  0.00     0.128 A 
ENDBRANCH  20  21
ENDBRANCH  18  20
ENDBRANCH   3  18
TORSDOF 4
ENDMDL
