MODEL 1
REMARK VINA RESULT:      -8.8      0.000      0.000
REMARK  10 active torsions:
REMARK  status: ('A' for Active; 'I' for Inactive)
REMARK    1  A    between atoms: C_6  and  N_7 
REMARK    2  A    between atoms: C_8  and  S_9 
REMARK    3  A    between atoms: S_9  and  C_10 
REMARK    4  A    between atoms: C_10  and  C_11 
REMARK       I    between atoms: C_11  and  N_12 
REMARK    5  A    between atoms: N_12  and  C_13 
REMARK    6  A    between atoms: C_13  and  C_14 
REMARK    7  A    between atoms: C_14  and  C_15 
REMARK    8  A    between atoms: C_18  and  S_19 
REMARK    9  A    between atoms: S_19  and  N_20 
REMARK   10  A    between atoms: C_29  and  N_30 
ROOT
HETATM    1  N   UNL     1      42.057 -14.293   4.034  1.00  0.00    -0.276 N 
HETATM    2  C   UNL     1      42.623 -14.023   5.246  1.00  0.00     0.177 A 
HETATM    3  N   UNL     1      43.361 -14.888   5.964  1.00  0.00    -0.204 NA
HETATM    4  C   UNL     1      43.554 -16.039   5.320  1.00  0.00     0.162 A 
HETATM    5  C   UNL     1      43.068 -16.380   4.075  1.00  0.00     0.081 A 
HETATM    6  C   UNL     1      42.244 -15.476   3.384  1.00  0.00     0.124 A 
HETATM    7  N   UNL     1      44.291 -17.098   5.766  1.00  0.00    -0.260 N 
HETATM    8  H   UNL     1      44.794 -17.184   6.645  1.00  0.00     0.191 HD
HETATM    9  N   UNL     1      44.336 -18.110   4.887  1.00  0.00    -0.177 NA
HETATM   10  C   UNL     1      43.612 -17.681   3.846  1.00  0.00     0.068 A 
HETATM   11  C   UNL     1      43.482 -18.547   2.646  1.00  0.00     0.073 C 
ENDROOT
BRANCH   2  12
HETATM   12  S   UNL     1      42.604 -12.361   5.919  1.00  0.00    -0.082 SA
BRANCH  12  13
HETATM   13  C   UNL     1      44.213 -12.319   6.771  1.00  0.00     0.185 C 
BRANCH  13  14
HETATM   14  C   UNL     1      45.137 -11.358   6.050  1.00  0.00     0.227 C 
HETATM   15  N   UNL     1      46.065 -10.652   6.762  1.00  0.00    -0.360 N 
HETATM   16  H   UNL     1      46.553  -9.972   6.183  1.00  0.00     0.162 HD
HETATM   17  O   UNL     1      45.062 -11.205   4.831  1.00  0.00    -0.273 OA
BRANCH  15  18
HETATM   18  C   UNL     1      46.148 -10.491   8.207  1.00  0.00     0.127 C 
BRANCH  18  19
HETATM   19  C   UNL     1      45.569  -9.162   8.706  1.00  0.00     0.058 C 
BRANCH  19  20
HETATM   20  C   UNL     1      44.297  -9.340   9.504  1.00  0.00    -0.057 A 
HETATM   21  C   UNL     1      43.041  -9.224   8.890  1.00  0.00     0.009 A 
HETATM   22  C   UNL     1      41.870  -9.326   9.644  1.00  0.00     0.025 A 
HETATM   23  C   UNL     1      41.955  -9.563  11.018  1.00  0.00     0.074 A 
HETATM   24  C   UNL     1      43.197  -9.694  11.642  1.00  0.00     0.025 A 
HETATM   25  C   UNL     1      44.364  -9.588  10.884  1.00  0.00     0.009 A 
BRANCH  23  26
HETATM   26  S   UNL     1      40.478  -9.609  11.990  1.00  0.00     0.239 S 
HETATM   27  O   UNL     1      40.699 -10.445  13.147  1.00  0.00    -0.206 OA
HETATM   28  O   UNL     1      39.944  -8.269  12.093  1.00  0.00    -0.206 OA
BRANCH  26  29
HETATM   29  N   UNL     1      39.428 -10.455  10.993  1.00  0.00    -0.225 NA
HETATM   30  H   UNL     1      39.960 -10.987  10.303  1.00  0.00     0.136 HD
HETATM   31  H   UNL     1      38.804 -11.033  11.557  1.00  0.00     0.136 HD
ENDBRANCH  26  29
ENDBRANCH  23  26
ENDBRANCH  19  20
ENDBRANCH  18  19
ENDBRANCH  15  18
ENDBRANCH  13  14
ENDBRANCH  12  13
ENDBRANCH   2  12
BRANCH   1  32
HETATM   32  C   UNL     1      41.224 -13.295   3.419  1.00  0.00     0.045 A 
HETATM   33  C   UNL     1      41.791 -12.406   2.510  1.00  0.00     0.054 A 
HETATM   34  C   UNL     1      40.975 -11.426   1.947  1.00  0.00     0.042 A 
HETATM   35  C   UNL     1      39.611 -11.339   2.286  1.00  0.00    -0.040 A 
HETATM   36 CL   UNL     1      41.699 -10.331   0.829  1.00  0.00    -0.084 Cl
HETATM   37  C   UNL     1      38.716 -10.281   1.695  1.00  0.00     0.050 C 
HETATM   38  C   UNL     1      39.070 -12.266   3.194  1.00  0.00     0.011 A 
HETATM   39  C   UNL     1      39.872 -13.252   3.765  1.00  0.00     0.031 A 
ENDBRANCH   1  32
BRANCH   6  40
HETATM   40  N   UNL     1      41.673 -15.763   2.153  1.00  0.00    -0.384 N 
HETATM   41  H   UNL     1      42.240 -15.681   1.315  1.00  0.00     0.157 HD
HETATM   42  H   UNL     1      40.843 -16.334   2.046  1.00  0.00     0.157 HD
ENDBRANCH   6  40
TORSDOF 10
ENDMDL
MODEL 2
REMARK VINA RESULT:      -8.6      3.875      8.729
REMARK  10 active torsions:
REMARK  status: ('A' for Active; 'I' for Inactive)
REMARK    1  A    between atoms: C_6  and  N_7 
REMARK    2  A    between atoms: C_8  and  S_9 
REMARK    3  A    between atoms: S_9  and  C_10 
REMARK    4  A    between atoms: C_10  and  C_11 
REMARK       I    between atoms: C_11  and  N_12 
REMARK    5  A    between atoms: N_12  and  C_13 
REMARK    6  A    between atoms: C_13  and  C_14 
REMARK    7  A    between atoms: C_14  and  C_15 
REMARK    8  A    between atoms: C_18  and  S_19 
REMARK    9  A    between atoms: S_19  and  N_20 
REMARK   10  A    between atoms: C_29  and  N_30 
ROOT
HETATM    1  N   UNL     1      42.003 -11.824   5.258  1.00  0.00    -0.276 N 
HETATM    2  C   UNL     1      41.466 -13.022   5.626  1.00  0.00     0.177 A 
HETATM    3  N   UNL     1      40.384 -13.591   5.064  1.00  0.00    -0.204 NA
HETATM    4  C   UNL     1      39.924 -12.883   4.032  1.00  0.00     0.162 A 
HETATM    5  C   UNL     1      40.433 -11.692   3.555  1.00  0.00     0.081 A 
HETATM    6  C   UNL     1      41.522 -11.095   4.211  1.00  0.00     0.124 A 
HETATM    7  N   UNL     1      38.869 -13.216   3.232  1.00  0.00    -0.260 N 
HETATM    8  H   UNL     1      38.269 -14.033   3.298  1.00  0.00     0.191 HD
HETATM    9  N   UNL     1      38.658 -12.328   2.249  1.00  0.00    -0.177 NA
HETATM   10  C   UNL     1      39.613 -11.406   2.421  1.00  0.00     0.068 A 
HETATM   11  C   UNL     1      39.710 -10.274   1.463  1.00  0.00     0.073 C 
ENDROOT
BRANCH   2  12
HETATM   12  S   UNL     1      42.307 -14.084   6.801  1.00  0.00    -0.082 SA
BRANCH  12  13
HETATM   13  C   UNL     1      43.408 -15.017   5.690  1.00  0.00     0.185 C 
BRANCH  13  14
HETATM   14  C   UNL     1      43.159 -16.502   5.868  1.00  0.00     0.227 C 
HETATM   15  N   UNL     1      42.942 -17.287   4.771  1.00  0.00    -0.360 N 
HETATM   16  H   UNL     1      42.691 -18.238   5.027  1.00  0.00     0.162 HD
HETATM   17  O   UNL     1      43.150 -17.009   6.989  1.00  0.00    -0.273 OA
BRANCH  15  18
HETATM   18  C   UNL     1      42.660 -16.856   3.408  1.00  0.00     0.127 C 
BRANCH  18  19
HETATM   19  C   UNL     1      41.186 -16.504   3.175  1.00  0.00     0.058 C 
BRANCH  19  20
HETATM   20  C   UNL     1      40.971 -15.685   1.922  1.00  0.00    -0.057 A 
HETATM   21  C   UNL     1      41.830 -14.624   1.602  1.00  0.00     0.009 A 
HETATM   22  C   UNL     1      41.589 -13.830   0.478  1.00  0.00     0.025 A 
HETATM   23  C   UNL     1      40.493 -14.112  -0.341  1.00  0.00     0.074 A 
HETATM   24  C   UNL     1      39.636 -15.173  -0.044  1.00  0.00     0.025 A 
HETATM   25  C   UNL     1      39.880 -15.961   1.083  1.00  0.00     0.009 A 
BRANCH  23  26
HETATM   26  S   UNL     1      40.137 -13.059  -1.717  1.00  0.00     0.239 S 
HETATM   27  O   UNL     1      40.247 -13.823  -2.938  1.00  0.00    -0.206 OA
HETATM   28  O   UNL     1      38.974 -12.260  -1.405  1.00  0.00    -0.206 OA
BRANCH  26  29
HETATM   29  N   UNL     1      41.444 -12.008  -1.702  1.00  0.00    -0.225 NA
HETATM   30  H   UNL     1      41.684 -11.769  -0.739  1.00  0.00     0.136 HD
HETATM   31  H   UNL     1      42.221 -12.413  -2.226  1.00  0.00     0.136 HD
ENDBRANCH  26  29
ENDBRANCH  23  26
ENDBRANCH  19  20
ENDBRANCH  18  19
ENDBRANCH  15  18
ENDBRANCH  13  14
ENDBRANCH  12  13
ENDBRANCH   2  12
BRANCH   1  32
HETATM   32  C   UNL     1      43.114 -11.302   6.006  1.00  0.00     0.045 A 
HETATM   33  C   UNL     1      42.866 -10.488   7.108  1.00  0.00     0.054 A 
HETATM   34  C   UNL     1      43.956  -9.965   7.803  1.00  0.00     0.042 A 
HETATM   35  C   UNL     1      45.275 -10.256   7.403  1.00  0.00    -0.040 A 
HETATM   36 CL   UNL     1      43.626  -8.953   9.159  1.00  0.00    -0.084 Cl
HETATM   37  C   UNL     1      46.465  -9.693   8.136  1.00  0.00     0.050 C 
HETATM   38  C   UNL     1      45.486 -11.097   6.296  1.00  0.00     0.011 A 
HETATM   39  C   UNL     1      44.407 -11.628   5.592  1.00  0.00     0.031 A 
ENDBRANCH   1  32
BRANCH   6  40
HETATM   40  N   UNL     1      42.058  -9.874   3.828  1.00  0.00    -0.384 N 
HETATM   41  H   UNL     1      43.032  -9.676   4.037  1.00  0.00     0.157 HD
HETATM   42  H   UNL     1      41.658  -9.297   3.099  1.00  0.00     0.157 HD
ENDBRANCH   6  40
TORSDOF 10
ENDMDL
MODEL 3
REMARK VINA RESULT:      -8.2      1.600      1.691
REMARK  10 active torsions:
REMARK  status: ('A' for Active; 'I' for Inactive)
REMARK    1  A    between atoms: C_6  and  N_7 
REMARK    2  A    between atoms: C_8  and  S_9 
REMARK    3  A    between atoms: S_9  and  C_10 
REMARK    4  A    between atoms: C_10  and  C_11 
REMARK       I    between atoms: C_11  and  N_12 
REMARK    5  A    between atoms: N_12  and  C_13 
REMARK    6  A    between atoms: C_13  and  C_14 
REMARK    7  A    between atoms: C_14  and  C_15 
REMARK    8  A    between atoms: C_18  and  S_19 
REMARK    9  A    between atoms: S_19  and  N_20 
REMARK   10  A    between atoms: C_29  and  N_30 
ROOT
HETATM    1  N   UNL     1      41.828 -14.304   3.436  1.00  0.00    -0.276 N 
HETATM    2  C   UNL     1      42.358 -13.726   4.552  1.00  0.00     0.177 A 
HETATM    3  N   UNL     1      43.150 -14.348   5.444  1.00  0.00    -0.204 NA
HETATM    4  C   UNL     1      43.435 -15.597   5.076  1.00  0.00     0.162 A 
HETATM    5  C   UNL     1      42.991 -16.247   3.943  1.00  0.00     0.081 A 
HETATM    6  C   UNL     1      42.111 -15.586   3.069  1.00  0.00     0.124 A 
HETATM    7  N   UNL     1      44.244 -16.469   5.746  1.00  0.00    -0.260 N 
HETATM    8  H   UNL     1      44.741 -16.316   6.619  1.00  0.00     0.191 HD
HETATM    9  N   UNL     1      44.375 -17.648   5.118  1.00  0.00    -0.177 NA
HETATM   10  C   UNL     1      43.634 -17.520   4.011  1.00  0.00     0.068 A 
HETATM   11  C   UNL     1      43.584 -18.643   3.039  1.00  0.00     0.073 C 
ENDROOT
BRANCH   2  12
HETATM   12  S   UNL     1      42.206 -11.962   4.832  1.00  0.00    -0.082 SA
BRANCH  12  13
HETATM   13  C   UNL     1      43.118 -11.785   6.399  1.00  0.00     0.185 C 
BRANCH  13  14
HETATM   14  C   UNL     1      43.033 -10.347   6.869  1.00  0.00     0.227 C 
HETATM   15  N   UNL     1      43.997  -9.850   7.700  1.00  0.00    -0.360 N 
HETATM   16  H   UNL     1      43.776  -8.911   8.022  1.00  0.00     0.162 HD
HETATM   17  O   UNL     1      42.107  -9.620   6.512  1.00  0.00    -0.273 OA
BRANCH  15  18
HETATM   18  C   UNL     1      45.012 -10.593   8.434  1.00  0.00     0.127 C 
BRANCH  18  19
HETATM   19  C   UNL     1      45.458  -9.901   9.727  1.00  0.00     0.058 C 
BRANCH  19  20
HETATM   20  C   UNL     1      44.321  -9.696  10.703  1.00  0.00    -0.057 A 
HETATM   21  C   UNL     1      43.776  -8.420  10.913  1.00  0.00     0.009 A 
HETATM   22  C   UNL     1      42.771  -8.226  11.862  1.00  0.00     0.025 A 
HETATM   23  C   UNL     1      42.293  -9.317  12.592  1.00  0.00     0.074 A 
HETATM   24  C   UNL     1      42.815 -10.595  12.385  1.00  0.00     0.025 A 
HETATM   25  C   UNL     1      43.823 -10.783  11.438  1.00  0.00     0.009 A 
BRANCH  23  26
HETATM   26  S   UNL     1      41.079  -9.061  13.853  1.00  0.00     0.239 S 
HETATM   27  O   UNL     1      40.099 -10.120  13.788  1.00  0.00    -0.206 OA
HETATM   28  O   UNL     1      41.750  -8.701  15.082  1.00  0.00    -0.206 OA
BRANCH  26  29
HETATM   29  N   UNL     1      40.306  -7.673  13.319  1.00  0.00    -0.225 NA
HETATM   30  H   UNL     1      39.774  -7.256  14.084  1.00  0.00     0.136 HD
HETATM   31  H   UNL     1      40.985  -7.034  12.903  1.00  0.00     0.136 HD
ENDBRANCH  26  29
ENDBRANCH  23  26
ENDBRANCH  19  20
ENDBRANCH  18  19
ENDBRANCH  15  18
ENDBRANCH  13  14
ENDBRANCH  12  13
ENDBRANCH   2  12
BRANCH   1  32
HETATM   32  C   UNL     1      40.931 -13.538   2.616  1.00  0.00     0.045 A 
HETATM   33  C   UNL     1      41.397 -13.001   1.419  1.00  0.00     0.054 A 
HETATM   34  C   UNL     1      40.522 -12.234   0.651  1.00  0.00     0.042 A 
HETATM   35  C   UNL     1      39.197 -12.010   1.073  1.00  0.00    -0.040 A 
HETATM   36 CL   UNL     1      41.123 -11.574  -0.823  1.00  0.00    -0.084 Cl
HETATM   37  C   UNL     1      38.240 -11.177   0.262  1.00  0.00     0.050 C 
HETATM   38  C   UNL     1      38.756 -12.584   2.279  1.00  0.00     0.011 A 
HETATM   39  C   UNL     1      39.618 -13.353   3.057  1.00  0.00     0.031 A 
ENDBRANCH   1  32
BRANCH   6  40
HETATM   40  N   UNL     1      41.577 -16.187   1.938  1.00  0.00    -0.384 N 
HETATM   41  H   UNL     1      41.913 -15.900   1.024  1.00  0.00     0.157 HD
HETATM   42  H   UNL     1      41.114 -17.087   1.954  1.00  0.00     0.157 HD
ENDBRANCH   6  40
TORSDOF 10
ENDMDL
MODEL 4
REMARK VINA RESULT:      -8.1      3.196      5.396
REMARK  10 active torsions:
REMARK  status: ('A' for Active; 'I' for Inactive)
REMARK    1  A    between atoms: C_6  and  N_7 
REMARK    2  A    between atoms: C_8  and  S_9 
REMARK    3  A    between atoms: S_9  and  C_10 
REMARK    4  A    between atoms: C_10  and  C_11 
REMARK       I    between atoms: C_11  and  N_12 
REMARK    5  A    between atoms: N_12  and  C_13 
REMARK    6  A    between atoms: C_13  and  C_14 
REMARK    7  A    between atoms: C_14  and  C_15 
REMARK    8  A    between atoms: C_18  and  S_19 
REMARK    9  A    between atoms: S_19  and  N_20 
REMARK   10  A    between atoms: C_29  and  N_30 
ROOT
HETATM    1  N   UNL     1      40.976 -13.393   1.087  1.00  0.00    -0.276 N 
HETATM    2  C   UNL     1      41.402 -12.118   1.323  1.00  0.00     0.177 A 
HETATM    3  N   UNL     1      41.015 -11.033   0.629  1.00  0.00    -0.204 NA
HETATM    4  C   UNL     1      40.091 -11.325  -0.286  1.00  0.00     0.162 A 
HETATM    5  C   UNL     1      39.563 -12.570  -0.558  1.00  0.00     0.081 A 
HETATM    6  C   UNL     1      40.041 -13.691   0.142  1.00  0.00     0.124 A 
HETATM    7  N   UNL     1      39.472 -10.437  -1.118  1.00  0.00    -0.260 N 
HETATM    8  H   UNL     1      39.619  -9.433  -1.182  1.00  0.00     0.191 HD
HETATM    9  N   UNL     1      38.558 -11.015  -1.911  1.00  0.00    -0.177 NA
HETATM   10  C   UNL     1      38.589 -12.308  -1.569  1.00  0.00     0.068 A 
HETATM   11  C   UNL     1      37.654 -13.256  -2.230  1.00  0.00     0.073 C 
ENDROOT
BRANCH   2  12
HETATM   12  S   UNL     1      42.395 -11.734   2.766  1.00  0.00    -0.082 SA
BRANCH  12  13
HETATM   13  C   UNL     1      41.104 -11.214   3.941  1.00  0.00     0.185 C 
BRANCH  13  14
HETATM   14  C   UNL     1      41.254  -9.733   4.227  1.00  0.00     0.227 C 
HETATM   15  N   UNL     1      41.866  -9.326   5.378  1.00  0.00    -0.360 N 
HETATM   16  H   UNL     1      41.816  -8.318   5.501  1.00  0.00     0.162 HD
HETATM   17  O   UNL     1      40.832  -8.891   3.434  1.00  0.00    -0.273 OA
BRANCH  15  18
HETATM   18  C   UNL     1      42.197 -10.133   6.545  1.00  0.00     0.127 C 
BRANCH  18  19
HETATM   19  C   UNL     1      42.909  -9.342   7.649  1.00  0.00     0.058 C 
BRANCH  19  20
HETATM   20  C   UNL     1      42.218  -9.455   8.990  1.00  0.00    -0.057 A 
HETATM   21  C   UNL     1      40.836  -9.243   9.105  1.00  0.00     0.009 A 
HETATM   22  C   UNL     1      40.214  -9.285  10.355  1.00  0.00     0.025 A 
HETATM   23  C   UNL     1      40.975  -9.560  11.494  1.00  0.00     0.074 A 
HETATM   24  C   UNL     1      42.349  -9.787  11.394  1.00  0.00     0.025 A 
HETATM   25  C   UNL     1      42.967  -9.740  10.142  1.00  0.00     0.009 A 
BRANCH  23  26
HETATM   26  S   UNL     1      40.206  -9.532  13.087  1.00  0.00     0.239 S 
HETATM   27  O   UNL     1      41.221  -9.347  14.098  1.00  0.00    -0.206 OA
HETATM   28  O   UNL     1      39.021  -8.708  13.018  1.00  0.00    -0.206 OA
BRANCH  26  29
HETATM   29  N   UNL     1      39.670 -11.112  13.245  1.00  0.00    -0.225 NA
HETATM   30  H   UNL     1      40.394 -11.757  12.927  1.00  0.00     0.136 HD
HETATM   31  H   UNL     1      39.369 -11.283  14.205  1.00  0.00     0.136 HD
ENDBRANCH  26  29
ENDBRANCH  23  26
ENDBRANCH  19  20
ENDBRANCH  18  19
ENDBRANCH  15  18
ENDBRANCH  13  14
ENDBRANCH  12  13
ENDBRANCH   2  12
BRANCH   1  32
HETATM   32  C   UNL     1      41.539 -14.467   1.859  1.00  0.00     0.045 A 
HETATM   33  C   UNL     1      40.917 -14.848   3.044  1.00  0.00     0.054 A 
HETATM   34  C   UNL     1      41.493 -15.871   3.796  1.00  0.00     0.042 A 
HETATM   35  C   UNL     1      42.674 -16.507   3.365  1.00  0.00    -0.040 A 
HETATM   36 CL   UNL     1      40.710 -16.322   5.264  1.00  0.00    -0.084 Cl
HETATM   37  C   UNL     1      43.317 -17.607   4.168  1.00  0.00     0.050 C 
HETATM   38  C   UNL     1      43.265 -16.107   2.153  1.00  0.00     0.011 A 
HETATM   39  C   UNL     1      42.700 -15.087   1.391  1.00  0.00     0.031 A 
ENDBRANCH   1  32
BRANCH   6  40
HETATM   40  N   UNL     1      39.602 -14.983  -0.109  1.00  0.00    -0.384 N 
HETATM   41  H   UNL     1      39.057 -15.164  -0.947  1.00  0.00     0.157 HD
HETATM   42  H   UNL     1      40.029 -15.803   0.301  1.00  0.00     0.157 HD
ENDBRANCH   6  40
TORSDOF 10
ENDMDL
MODEL 5
REMARK VINA RESULT:      -8.0      3.818      7.492
REMARK  10 active torsions:
REMARK  status: ('A' for Active; 'I' for Inactive)
REMARK    1  A    between atoms: C_6  and  N_7 
REMARK    2  A    between atoms: C_8  and  S_9 
REMARK    3  A    between atoms: S_9  and  C_10 
REMARK    4  A    between atoms: C_10  and  C_11 
REMARK       I    between atoms: C_11  and  N_12 
REMARK    5  A    between atoms: N_12  and  C_13 
REMARK    6  A    between atoms: C_13  and  C_14 
REMARK    7  A    between atoms: C_14  and  C_15 
REMARK    8  A    between atoms: C_18  and  S_19 
REMARK    9  A    between atoms: S_19  and  N_20 
REMARK   10  A    between atoms: C_29  and  N_30 
ROOT
HETATM    1  N   UNL     1      41.166 -10.336   5.185  1.00  0.00    -0.276 N 
HETATM    2  C   UNL     1      41.096 -11.672   4.917  1.00  0.00     0.177 A 
HETATM    3  N   UNL     1      41.872 -12.615   5.482  1.00  0.00    -0.204 NA
HETATM    4  C   UNL     1      42.683 -12.109   6.410  1.00  0.00     0.162 A 
HETATM    5  C   UNL     1      42.784 -10.785   6.785  1.00  0.00     0.081 A 
HETATM    6  C   UNL     1      42.006  -9.819   6.125  1.00  0.00     0.124 A 
HETATM    7  N   UNL     1      43.557 -12.812   7.187  1.00  0.00    -0.260 N 
HETATM    8  H   UNL     1      43.737 -13.813   7.177  1.00  0.00     0.191 HD
HETATM    9  N   UNL     1      44.218 -12.039   8.062  1.00  0.00    -0.177 NA
HETATM   10  C   UNL     1      43.745 -10.807   7.841  1.00  0.00     0.068 A 
HETATM   11  C   UNL     1      44.233  -9.681   8.680  1.00  0.00     0.073 C 
ENDROOT
BRANCH   2  12
HETATM   12  S   UNL     1      39.777 -12.338   3.902  1.00  0.00    -0.082 SA
BRANCH  12  13
HETATM   13  C   UNL     1      40.609 -12.440   2.285  1.00  0.00     0.185 C 
BRANCH  13  14
HETATM   14  C   UNL     1      39.569 -12.617   1.196  1.00  0.00     0.227 C 
HETATM   15  N   UNL     1      39.494 -13.802   0.520  1.00  0.00    -0.360 N 
HETATM   16  H   UNL     1      38.828 -13.761  -0.247  1.00  0.00     0.162 HD
HETATM   17  O   UNL     1      38.791 -11.707   0.914  1.00  0.00    -0.273 OA
BRANCH  15  18
HETATM   18  C   UNL     1      40.463 -14.890   0.517  1.00  0.00     0.127 C 
BRANCH  18  19
HETATM   19  C   UNL     1      40.076 -16.052   1.439  1.00  0.00     0.058 C 
BRANCH  19  20
HETATM   20  C   UNL     1      40.919 -16.111   2.693  1.00  0.00    -0.057 A 
HETATM   21  C   UNL     1      42.312 -16.263   2.615  1.00  0.00     0.009 A 
HETATM   22  C   UNL     1      43.078 -16.382   3.775  1.00  0.00     0.025 A 
HETATM   23  C   UNL     1      42.451 -16.329   5.023  1.00  0.00     0.074 A 
HETATM   24  C   UNL     1      41.068 -16.164   5.118  1.00  0.00     0.025 A 
HETATM   25  C   UNL     1      40.306 -16.050   3.954  1.00  0.00     0.009 A 
BRANCH  23  26
HETATM   26  S   UNL     1      43.408 -16.562   6.493  1.00  0.00     0.239 S 
HETATM   27  O   UNL     1      43.470 -17.972   6.798  1.00  0.00    -0.206 OA
HETATM   28  O   UNL     1      44.590 -15.733   6.417  1.00  0.00    -0.206 OA
BRANCH  26  29
HETATM   29  N   UNL     1      42.427 -15.871   7.663  1.00  0.00    -0.225 NA
HETATM   30  H   UNL     1      42.031 -16.601   8.258  1.00  0.00     0.136 HD
HETATM   31  H   UNL     1      42.949 -15.165   8.183  1.00  0.00     0.136 HD
ENDBRANCH  26  29
ENDBRANCH  23  26
ENDBRANCH  19  20
ENDBRANCH  18  19
ENDBRANCH  15  18
ENDBRANCH  13  14
ENDBRANCH  12  13
ENDBRANCH   2  12
BRANCH   1  32
HETATM   32  C   UNL     1      40.327  -9.435   4.442  1.00  0.00     0.045 A 
HETATM   33  C   UNL     1      39.116  -9.027   4.994  1.00  0.00     0.054 A 
HETATM   34  C   UNL     1      38.301  -8.177   4.247  1.00  0.00     0.042 A 
HETATM   35  C   UNL     1      38.694  -7.739   2.968  1.00  0.00    -0.040 A 
HETATM   36 CL   UNL     1      36.802  -7.691   4.947  1.00  0.00    -0.084 Cl
HETATM   37  C   UNL     1      37.824  -6.828   2.142  1.00  0.00     0.050 C 
HETATM   38  C   UNL     1      39.934  -8.158   2.451  1.00  0.00     0.011 A 
HETATM   39  C   UNL     1      40.759  -9.006   3.185  1.00  0.00     0.031 A 
ENDBRANCH   1  32
BRANCH   6  40
HETATM   40  N   UNL     1      42.087  -8.462   6.405  1.00  0.00    -0.384 N 
HETATM   41  H   UNL     1      41.230  -7.924   6.488  1.00  0.00     0.157 HD
HETATM   42  H   UNL     1      42.898  -8.032   6.831  1.00  0.00     0.157 HD
ENDBRANCH   6  40
TORSDOF 10
ENDMDL
MODEL 6
REMARK VINA RESULT:      -7.9     18.500     19.620
REMARK  10 active torsions:
REMARK  status: ('A' for Active; 'I' for Inactive)
REMARK    1  A    between atoms: C_6  and  N_7 
REMARK    2  A    between atoms: C_8  and  S_9 
REMARK    3  A    between atoms: S_9  and  C_10 
REMARK    4  A    between atoms: C_10  and  C_11 
REMARK       I    between atoms: C_11  and  N_12 
REMARK    5  A    between atoms: N_12  and  C_13 
REMARK    6  A    between atoms: C_13  and  C_14 
REMARK    7  A    between atoms: C_14  and  C_15 
REMARK    8  A    between atoms: C_18  and  S_19 
REMARK    9  A    between atoms: S_19  and  N_20 
REMARK   10  A    between atoms: C_29  and  N_30 
ROOT
HETATM    1  N   UNL     1      44.535 -30.289   0.978  1.00  0.00    -0.276 N 
HETATM    2  C   UNL     1      45.621 -30.926   1.503  1.00  0.00     0.177 A 
HETATM    3  N   UNL     1      45.665 -31.510   2.713  1.00  0.00    -0.204 NA
HETATM    4  C   UNL     1      44.486 -31.470   3.333  1.00  0.00     0.162 A 
HETATM    5  C   UNL     1      43.323 -30.898   2.860  1.00  0.00     0.081 A 
HETATM    6  C   UNL     1      43.334 -30.238   1.619  1.00  0.00     0.124 A 
HETATM    7  N   UNL     1      44.198 -32.011   4.553  1.00  0.00    -0.260 N 
HETATM    8  H   UNL     1      44.824 -32.511   5.178  1.00  0.00     0.191 HD
HETATM    9  N   UNL     1      42.915 -31.846   4.908  1.00  0.00    -0.177 NA
HETATM   10  C   UNL     1      42.367 -31.187   3.880  1.00  0.00     0.068 A 
HETATM   11  C   UNL     1      40.915 -30.869   3.913  1.00  0.00     0.073 C 
ENDROOT
BRANCH   2  12
HETATM   12  S   UNL     1      47.079 -31.230   0.503  1.00  0.00    -0.082 SA
BRANCH  12  13
HETATM   13  C   UNL     1      48.138 -29.839   1.013  1.00  0.00     0.185 C 
BRANCH  13  14
HETATM   14  C   UNL     1      49.535 -30.044   0.461  1.00  0.00     0.227 C 
HETATM   15  N   UNL     1      50.598 -30.099   1.316  1.00  0.00    -0.360 N 
HETATM   16  H   UNL     1      51.485 -30.140   0.820  1.00  0.00     0.162 HD
HETATM   17  O   UNL     1      49.723 -30.162  -0.750  1.00  0.00    -0.273 OA
BRANCH  15  18
HETATM   18  C   UNL     1      50.629 -29.732   2.726  1.00  0.00     0.127 C 
BRANCH  18  19
HETATM   19  C   UNL     1      51.020 -30.893   3.648  1.00  0.00     0.058 C 
BRANCH  19  20
HETATM   20  C   UNL     1      49.909 -31.289   4.594  1.00  0.00    -0.057 A 
HETATM   21  C   UNL     1      50.092 -32.323   5.524  1.00  0.00     0.009 A 
HETATM   22  C   UNL     1      49.042 -32.728   6.351  1.00  0.00     0.025 A 
HETATM   23  C   UNL     1      47.806 -32.083   6.260  1.00  0.00     0.074 A 
HETATM   24  C   UNL     1      47.612 -31.043   5.348  1.00  0.00     0.025 A 
HETATM   25  C   UNL     1      48.664 -30.645   4.522  1.00  0.00     0.009 A 
BRANCH  23  26
HETATM   26  S   UNL     1      46.450 -32.648   7.246  1.00  0.00     0.239 S 
HETATM   27  O   UNL     1      45.820 -33.767   6.585  1.00  0.00    -0.206 OA
HETATM   28  O   UNL     1      46.868 -32.699   8.628  1.00  0.00    -0.206 OA
BRANCH  26  29
HETATM   29  N   UNL     1      45.374 -31.367   7.129  1.00  0.00    -0.225 NA
HETATM   30  H   UNL     1      45.424 -30.795   7.973  1.00  0.00     0.136 HD
HETATM   31  H   UNL     1      45.552 -30.841   6.272  1.00  0.00     0.136 HD
ENDBRANCH  26  29
ENDBRANCH  23  26
ENDBRANCH  19  20
ENDBRANCH  18  19
ENDBRANCH  15  18
ENDBRANCH  13  14
ENDBRANCH  12  13
ENDBRANCH   2  12
BRANCH   1  32
HETATM   32  C   UNL     1      44.661 -29.638  -0.298  1.00  0.00     0.045 A 
HETATM   33  C   UNL     1      44.316 -30.338  -1.451  1.00  0.00     0.054 A 
HETATM   34  C   UNL     1      44.473 -29.702  -2.683  1.00  0.00     0.042 A 
HETATM   35  C   UNL     1      44.964 -28.384  -2.758  1.00  0.00    -0.040 A 
HETATM   36 CL   UNL     1      44.049 -30.589  -4.098  1.00  0.00    -0.084 Cl
HETATM   37  C   UNL     1      45.149 -27.684  -4.079  1.00  0.00     0.050 C 
HETATM   38  C   UNL     1      45.284 -27.703  -1.570  1.00  0.00     0.011 A 
HETATM   39  C   UNL     1      45.132 -28.324  -0.332  1.00  0.00     0.031 A 
ENDBRANCH   1  32
BRANCH   6  40
HETATM   40  N   UNL     1      42.222 -29.592   1.098  1.00  0.00    -0.384 N 
HETATM   41  H   UNL     1      41.700 -28.954   1.690  1.00  0.00     0.157 HD
HETATM   42  H   UNL     1      42.070 -29.466   0.105  1.00  0.00     0.157 HD
ENDBRANCH   6  40
TORSDOF 10
ENDMDL
MODEL 7
REMARK VINA RESULT:      -7.8      5.385     10.158
REMARK  10 active torsions:
REMARK  status: ('A' for Active; 'I' for Inactive)
REMARK    1  A    between atoms: C_6  and  N_7 
REMARK    2  A    between atoms: C_8  and  S_9 
REMARK    3  A    between atoms: S_9  and  C_10 
REMARK    4  A    between atoms: C_10  and  C_11 
REMARK       I    between atoms: C_11  and  N_12 
REMARK    5  A    between atoms: N_12  and  C_13 
REMARK    6  A    between atoms: C_13  and  C_14 
REMARK    7  A    between atoms: C_14  and  C_15 
REMARK    8  A    between atoms: C_18  and  S_19 
REMARK    9  A    between atoms: S_19  and  N_20 
REMARK   10  A    between atoms: C_29  and  N_30 
ROOT
HETATM    1  N   UNL     1      42.584 -15.258   5.412  1.00  0.00    -0.276 N 
HETATM    2  C   UNL     1      41.406 -14.936   4.804  1.00  0.00     0.177 A 
HETATM    3  N   UNL     1      40.833 -13.719   4.823  1.00  0.00    -0.204 NA
HETATM    4  C   UNL     1      41.591 -12.817   5.447  1.00  0.00     0.162 A 
HETATM    5  C   UNL     1      42.815 -13.038   6.043  1.00  0.00     0.081 A 
HETATM    6  C   UNL     1      43.350 -14.337   6.062  1.00  0.00     0.124 A 
HETATM    7  N   UNL     1      41.306 -11.491   5.596  1.00  0.00    -0.260 N 
HETATM    8  H   UNL     1      40.484 -10.987   5.273  1.00  0.00     0.191 HD
HETATM    9  N   UNL     1      42.272 -10.818   6.240  1.00  0.00    -0.177 NA
HETATM   10  C   UNL     1      43.204 -11.742   6.501  1.00  0.00     0.068 A 
HETATM   11  C   UNL     1      44.461 -11.332   7.180  1.00  0.00     0.073 C 
ENDROOT
BRANCH   2  12
HETATM   12  S   UNL     1      40.589 -16.099   3.711  1.00  0.00    -0.082 SA
BRANCH  12  13
HETATM   13  C   UNL     1      40.168 -15.014   2.310  1.00  0.00     0.185 C 
BRANCH  13  14
HETATM   14  C   UNL     1      41.358 -14.916   1.376  1.00  0.00     0.227 C 
HETATM   15  N   UNL     1      41.342 -14.010   0.354  1.00  0.00    -0.360 N 
HETATM   16  H   UNL     1      42.148 -14.110  -0.256  1.00  0.00     0.162 HD
HETATM   17  O   UNL     1      42.339 -15.643   1.527  1.00  0.00    -0.273 OA
BRANCH  15  18
HETATM   18  C   UNL     1      40.203 -13.252  -0.148  1.00  0.00     0.127 C 
BRANCH  18  19
HETATM   19  C   UNL     1      39.393 -14.005  -1.211  1.00  0.00     0.058 C 
BRANCH  19  20
HETATM   20  C   UNL     1      38.313 -13.152  -1.837  1.00  0.00    -0.057 A 
HETATM   21  C   UNL     1      38.131 -11.818  -1.441  1.00  0.00     0.009 A 
HETATM   22  C   UNL     1      37.092 -11.055  -1.976  1.00  0.00     0.025 A 
HETATM   23  C   UNL     1      36.241 -11.622  -2.927  1.00  0.00     0.074 A 
HETATM   24  C   UNL     1      36.416 -12.943  -3.342  1.00  0.00     0.025 A 
HETATM   25  C   UNL     1      37.455 -13.703  -2.801  1.00  0.00     0.009 A 
BRANCH  23  26
HETATM   26  S   UNL     1      34.873 -10.685  -3.545  1.00  0.00     0.239 S 
HETATM   27  O   UNL     1      34.204 -10.040  -2.440  1.00  0.00    -0.206 OA
HETATM   28  O   UNL     1      35.296  -9.962  -4.723  1.00  0.00    -0.206 OA
BRANCH  26  29
HETATM   29  N   UNL     1      33.837 -11.889  -4.082  1.00  0.00    -0.225 NA
HETATM   30  H   UNL     1      34.366 -12.743  -4.268  1.00  0.00     0.136 HD
HETATM   31  H   UNL     1      33.079 -12.020  -3.412  1.00  0.00     0.136 HD
ENDBRANCH  26  29
ENDBRANCH  23  26
ENDBRANCH  19  20
ENDBRANCH  18  19
ENDBRANCH  15  18
ENDBRANCH  13  14
ENDBRANCH  12  13
ENDBRANCH   2  12
BRANCH   1  32
HETATM   32  C   UNL     1      43.034 -16.623   5.375  1.00  0.00     0.045 A 
HETATM   33  C   UNL     1      43.561 -17.131   4.192  1.00  0.00     0.054 A 
HETATM   34  C   UNL     1      43.964 -18.465   4.165  1.00  0.00     0.042 A 
HETATM   35  C   UNL     1      43.845 -19.279   5.308  1.00  0.00    -0.040 A 
HETATM   36 CL   UNL     1      44.606 -19.075   2.686  1.00  0.00    -0.084 Cl
HETATM   37  C   UNL     1      44.267 -20.725   5.297  1.00  0.00     0.050 C 
HETATM   38  C   UNL     1      43.325 -18.725   6.492  1.00  0.00     0.011 A 
HETATM   39  C   UNL     1      42.919 -17.393   6.534  1.00  0.00     0.031 A 
ENDBRANCH   1  32
BRANCH   6  40
HETATM   40  N   UNL     1      44.548 -14.652   6.686  1.00  0.00    -0.384 N 
HETATM   41  H   UNL     1      44.855 -14.091   7.474  1.00  0.00     0.157 HD
HETATM   42  H   UNL     1      44.983 -15.564   6.623  1.00  0.00     0.157 HD
ENDBRANCH   6  40
TORSDOF 10
ENDMDL
MODEL 8
REMARK VINA RESULT:      -7.7      6.831     12.341
REMARK  10 active torsions:
REMARK  status: ('A' for Active; 'I' for Inactive)
REMARK    1  A    between atoms: C_6  and  N_7 
REMARK    2  A    between atoms: C_8  and  S_9 
REMARK    3  A    between atoms: S_9  and  C_10 
REMARK    4  A    between atoms: C_10  and  C_11 
REMARK       I    between atoms: C_11  and  N_12 
REMARK    5  A    between atoms: N_12  and  C_13 
REMARK    6  A    between atoms: C_13  and  C_14 
REMARK    7  A    between atoms: C_14  and  C_15 
REMARK    8  A    between atoms: C_18  and  S_19 
REMARK    9  A    between atoms: S_19  and  N_20 
REMARK   10  A    between atoms: C_29  and  N_30 
ROOT
HETATM    1  N   UNL     1      38.384  -4.114  12.977  1.00  0.00    -0.276 N 
HETATM    2  C   UNL     1      38.056  -4.794  14.113  1.00  0.00     0.177 A 
HETATM    3  N   UNL     1      37.074  -4.449  14.964  1.00  0.00    -0.204 NA
HETATM    4  C   UNL     1      36.383  -3.394  14.533  1.00  0.00     0.162 A 
HETATM    5  C   UNL     1      36.606  -2.678  13.375  1.00  0.00     0.081 A 
HETATM    6  C   UNL     1      37.685  -3.027  12.545  1.00  0.00     0.124 A 
HETATM    7  N   UNL     1      35.303  -2.831  15.149  1.00  0.00    -0.260 N 
HETATM    8  H   UNL     1      34.866  -3.111  16.023  1.00  0.00     0.191 HD
HETATM    9  N   UNL     1      34.789  -1.798  14.464  1.00  0.00    -0.177 NA
HETATM   10  C   UNL     1      35.560  -1.706  13.373  1.00  0.00     0.068 A 
HETATM   11  C   UNL     1      35.245  -0.677  12.348  1.00  0.00     0.073 C 
ENDROOT
BRANCH   2  12
HETATM   12  S   UNL     1      38.803  -6.382  14.481  1.00  0.00    -0.082 SA
BRANCH  12  13
HETATM   13  C   UNL     1      40.080  -5.890  15.682  1.00  0.00     0.185 C 
BRANCH  13  14
HETATM   14  C   UNL     1      40.544  -7.112  16.450  1.00  0.00     0.227 C 
HETATM   15  N   UNL     1      41.554  -7.881  15.947  1.00  0.00    -0.360 N 
HETATM   16  H   UNL     1      41.705  -8.721  16.500  1.00  0.00     0.162 HD
HETATM   17  O   UNL     1      40.023  -7.419  17.521  1.00  0.00    -0.273 OA
BRANCH  15  18
HETATM   18  C   UNL     1      42.118  -7.846  14.604  1.00  0.00     0.127 C 
BRANCH  18  19
HETATM   19  C   UNL     1      41.431  -8.810  13.630  1.00  0.00     0.058 C 
BRANCH  19  20
HETATM   20  C   UNL     1      42.201  -8.988  12.341  1.00  0.00    -0.057 A 
HETATM   21  C   UNL     1      41.555  -9.413  11.170  1.00  0.00     0.009 A 
HETATM   22  C   UNL     1      42.282  -9.638  10.000  1.00  0.00     0.025 A 
HETATM   23  C   UNL     1      43.662  -9.419   9.994  1.00  0.00     0.074 A 
HETATM   24  C   UNL     1      44.318  -8.983  11.147  1.00  0.00     0.025 A 
HETATM   25  C   UNL     1      43.586  -8.763  12.315  1.00  0.00     0.009 A 
BRANCH  23  26
HETATM   26  S   UNL     1      44.598  -9.782   8.538  1.00  0.00     0.239 S 
HETATM   27  O   UNL     1      45.551 -10.825   8.837  1.00  0.00    -0.206 OA
HETATM   28  O   UNL     1      43.698  -9.855   7.410  1.00  0.00    -0.206 OA
BRANCH  26  29
HETATM   29  N   UNL     1      45.490  -8.377   8.335  1.00  0.00    -0.225 NA
HETATM   30  H   UNL     1      44.869  -7.567   8.356  1.00  0.00     0.136 HD
HETATM   31  H   UNL     1      46.235  -8.334   9.032  1.00  0.00     0.136 HD
ENDBRANCH  26  29
ENDBRANCH  23  26
ENDBRANCH  19  20
ENDBRANCH  18  19
ENDBRANCH  15  18
ENDBRANCH  13  14
ENDBRANCH  12  13
ENDBRANCH   2  12
BRANCH   1  32
HETATM   32  C   UNL     1      39.515  -4.555  12.206  1.00  0.00     0.045 A 
HETATM   33  C   UNL     1      39.307  -5.407  11.125  1.00  0.00     0.054 A 
HETATM   34  C   UNL     1      40.418  -5.849  10.407  1.00  0.00     0.042 A 
HETATM   35  C   UNL     1      41.718  -5.440  10.763  1.00  0.00    -0.040 A 
HETATM   36 CL   UNL     1      40.138  -6.910   9.078  1.00  0.00    -0.084 Cl
HETATM   37  C   UNL     1      42.930  -5.914  10.006  1.00  0.00     0.050 C 
HETATM   38  C   UNL     1      41.886  -4.563  11.850  1.00  0.00     0.011 A 
HETATM   39  C   UNL     1      40.787  -4.113  12.577  1.00  0.00     0.031 A 
ENDBRANCH   1  32
BRANCH   6  40
HETATM   40  N   UNL     1      38.009  -2.326  11.392  1.00  0.00    -0.384 N 
HETATM   41  H   UNL     1      38.702  -2.713  10.759  1.00  0.00     0.157 HD
HETATM   42  H   UNL     1      37.403  -1.628  10.979  1.00  0.00     0.157 HD
ENDBRANCH   6  40
TORSDOF 10
ENDMDL
MODEL 9
REMARK VINA RESULT:      -7.7     18.279     19.309
REMARK  10 active torsions:
REMARK  status: ('A' for Active; 'I' for Inactive)
REMARK    1  A    between atoms: C_6  and  N_7 
REMARK    2  A    between atoms: C_8  and  S_9 
REMARK    3  A    between atoms: S_9  and  C_10 
REMARK    4  A    between atoms: C_10  and  C_11 
REMARK       I    between atoms: C_11  and  N_12 
REMARK    5  A    between atoms: N_12  and  C_13 
REMARK    6  A    between atoms: C_13  and  C_14 
REMARK    7  A    between atoms: C_14  and  C_15 
REMARK    8  A    between atoms: C_18  and  S_19 
REMARK    9  A    between atoms: S_19  and  N_20 
REMARK   10  A    between atoms: C_29  and  N_30 
ROOT
HETATM    1  N   UNL     1      45.568 -29.828   1.040  1.00  0.00    -0.276 N 
HETATM    2  C   UNL     1      44.511 -30.218   1.810  1.00  0.00     0.177 A 
HETATM    3  N   UNL     1      44.585 -30.562   3.108  1.00  0.00    -0.204 NA
HETATM    4  C   UNL     1      45.814 -30.404   3.600  1.00  0.00     0.162 A 
HETATM    5  C   UNL     1      46.928 -29.966   2.915  1.00  0.00     0.081 A 
HETATM    6  C   UNL     1      46.827 -29.681   1.542  1.00  0.00     0.124 A 
HETATM    7  N   UNL     1      46.199 -30.628   4.890  1.00  0.00    -0.260 N 
HETATM    8  H   UNL     1      45.629 -30.954   5.666  1.00  0.00     0.191 HD
HETATM    9  N   UNL     1      47.495 -30.351   5.104  1.00  0.00    -0.177 NA
HETATM   10  C   UNL     1      47.946 -29.930   3.916  1.00  0.00     0.068 A 
HETATM   11  C   UNL     1      49.359 -29.487   3.792  1.00  0.00     0.073 C 
ENDROOT
BRANCH   2  12
HETATM   12  S   UNL     1      42.833 -30.105   1.189  1.00  0.00    -0.082 SA
BRANCH  12  13
HETATM   13  C   UNL     1      42.139 -31.677   1.793  1.00  0.00     0.185 C 
BRANCH  13  14
HETATM   14  C   UNL     1      40.682 -31.476   2.158  1.00  0.00     0.227 C 
HETATM   15  N   UNL     1      40.324 -31.362   3.471  1.00  0.00    -0.360 N 
HETATM   16  H   UNL     1      39.315 -31.330   3.589  1.00  0.00     0.162 HD
HETATM   17  O   UNL     1      39.817 -31.412   1.285  1.00  0.00    -0.273 OA
BRANCH  15  18
HETATM   18  C   UNL     1      41.133 -31.660   4.645  1.00  0.00     0.127 C 
BRANCH  18  19
HETATM   19  C   UNL     1      40.322 -32.237   5.812  1.00  0.00     0.058 C 
BRANCH  19  20
HETATM   20  C   UNL     1      40.977 -32.000   7.154  1.00  0.00    -0.057 A 
HETATM   21  C   UNL     1      42.297 -31.534   7.237  1.00  0.00     0.009 A 
HETATM   22  C   UNL     1      42.918 -31.378   8.477  1.00  0.00     0.025 A 
HETATM   23  C   UNL     1      42.208 -31.672   9.644  1.00  0.00     0.074 A 
HETATM   24  C   UNL     1      40.889 -32.124   9.580  1.00  0.00     0.025 A 
HETATM   25  C   UNL     1      40.274 -32.281   8.336  1.00  0.00     0.009 A 
BRANCH  23  26
HETATM   26  S   UNL     1      43.018 -31.556  11.213  1.00  0.00     0.239 S 
HETATM   27  O   UNL     1      44.157 -32.444  11.224  1.00  0.00    -0.206 OA
HETATM   28  O   UNL     1      43.118 -30.163  11.584  1.00  0.00    -0.206 OA
BRANCH  26  29
HETATM   29  N   UNL     1      41.884 -32.234  12.244  1.00  0.00    -0.225 NA
HETATM   30  H   UNL     1      42.271 -32.305  13.186  1.00  0.00     0.136 HD
HETATM   31  H   UNL     1      41.013 -31.702  12.203  1.00  0.00     0.136 HD
ENDBRANCH  26  29
ENDBRANCH  23  26
ENDBRANCH  19  20
ENDBRANCH  18  19
ENDBRANCH  15  18
ENDBRANCH  13  14
ENDBRANCH  12  13
ENDBRANCH   2  12
BRANCH   1  32
HETATM   32  C   UNL     1      45.352 -29.569  -0.357  1.00  0.00     0.045 A 
HETATM   33  C   UNL     1      45.224 -30.642  -1.233  1.00  0.00     0.054 A 
HETATM   34  C   UNL     1      45.045 -30.372  -2.590  1.00  0.00     0.042 A 
HETATM   35  C   UNL     1      44.991 -29.047  -3.062  1.00  0.00    -0.040 A 
HETATM   36 CL   UNL     1      44.898 -31.717  -3.658  1.00  0.00    -0.084 Cl
HETATM   37  C   UNL     1      44.808 -28.735  -4.524  1.00  0.00     0.050 C 
HETATM   38  C   UNL     1      45.105 -27.987  -2.143  1.00  0.00     0.011 A 
HETATM   39  C   UNL     1      45.283 -28.241  -0.785  1.00  0.00     0.031 A 
ENDBRANCH   1  32
BRANCH   6  40
HETATM   40  N   UNL     1      47.910 -29.288   0.770  1.00  0.00    -0.384 N 
HETATM   41  H   UNL     1      48.693 -28.825   1.220  1.00  0.00     0.157 HD
HETATM   42  H   UNL     1      48.121 -29.689  -0.135  1.00  0.00     0.157 HD
ENDBRANCH   6  40
TORSDOF 10
ENDMDL
MODEL 10
REMARK VINA RESULT:      -7.7      5.321      7.909
REMARK  10 active torsions:
REMARK  status: ('A' for Active; 'I' for Inactive)
REMARK    1  A    between atoms: C_6  and  N_7 
REMARK    2  A    between atoms: C_8  and  S_9 
REMARK    3  A    between atoms: S_9  and  C_10 
REMARK    4  A    between atoms: C_10  and  C_11 
REMARK       I    between atoms: C_11  and  N_12 
REMARK    5  A    between atoms: N_12  and  C_13 
REMARK    6  A    between atoms: C_13  and  C_14 
REMARK    7  A    between atoms: C_14  and  C_15 
REMARK    8  A    between atoms: C_18  and  S_19 
REMARK    9  A    between atoms: S_19  and  N_20 
REMARK   10  A    between atoms: C_29  and  N_30 
ROOT
HETATM    1  N   UNL     1      41.039 -10.076  -1.898  1.00  0.00    -0.276 N 
HETATM    2  C   UNL     1      41.236  -9.851  -0.567  1.00  0.00     0.177 A 
HETATM    3  N   UNL     1      41.954  -8.837  -0.052  1.00  0.00    -0.204 NA
HETATM    4  C   UNL     1      42.400  -8.008  -0.995  1.00  0.00     0.162 A 
HETATM    5  C   UNL     1      42.205  -8.124  -2.356  1.00  0.00     0.081 A 
HETATM    6  C   UNL     1      41.507  -9.234  -2.861  1.00  0.00     0.124 A 
HETATM    7  N   UNL     1      43.120  -6.867  -0.789  1.00  0.00    -0.260 N 
HETATM    8  H   UNL     1      43.436  -6.478   0.095  1.00  0.00     0.191 HD
HETATM    9  N   UNL     1      43.400  -6.214  -1.927  1.00  0.00    -0.177 NA
HETATM   10  C   UNL     1      42.834  -6.957  -2.886  1.00  0.00     0.068 A 
HETATM   11  C   UNL     1      42.910  -6.498  -4.298  1.00  0.00     0.073 C 
ENDROOT
BRANCH   2  12
HETATM   12  S   UNL     1      40.352 -10.807   0.666  1.00  0.00    -0.082 SA
BRANCH  12  13
HETATM   13  C   UNL     1      41.632 -12.011   1.147  1.00  0.00     0.185 C 
BRANCH  13  14
HETATM   14  C   UNL     1      41.018 -13.395   1.217  1.00  0.00     0.227 C 
HETATM   15  N   UNL     1      41.587 -14.347   2.014  1.00  0.00    -0.360 N 
HETATM   16  H   UNL     1      41.145 -15.254   1.899  1.00  0.00     0.162 HD
HETATM   17  O   UNL     1      40.012 -13.672   0.565  1.00  0.00    -0.273 OA
BRANCH  15  18
HETATM   18  C   UNL     1      42.897 -14.309   2.652  1.00  0.00     0.127 C 
BRANCH  18  19
HETATM   19  C   UNL     1      42.840 -14.524   4.169  1.00  0.00     0.058 C 
BRANCH  19  20
HETATM   20  C   UNL     1      41.964 -13.511   4.872  1.00  0.00    -0.057 A 
HETATM   21  C   UNL     1      40.704 -13.874   5.370  1.00  0.00     0.009 A 
HETATM   22  C   UNL     1      39.873 -12.921   5.961  1.00  0.00     0.025 A 
HETATM   23  C   UNL     1      40.312 -11.599   6.071  1.00  0.00     0.074 A 
HETATM   24  C   UNL     1      41.569 -11.224   5.592  1.00  0.00     0.025 A 
HETATM   25  C   UNL     1      42.394 -12.181   5.000  1.00  0.00     0.009 A 
BRANCH  23  26
HETATM   26  S   UNL     1      39.229 -10.371   6.742  1.00  0.00     0.239 S 
HETATM   27  O   UNL     1      39.994  -9.186   7.054  1.00  0.00    -0.206 OA
HETATM   28  O   UNL     1      38.023 -10.328   5.948  1.00  0.00    -0.206 OA
BRANCH  26  29
HETATM   29  N   UNL     1      38.797 -11.051   8.212  1.00  0.00    -0.225 NA
HETATM   30  H   UNL     1      39.544 -11.664   8.543  1.00  0.00     0.136 HD
HETATM   31  H   UNL     1      38.551 -10.316   8.877  1.00  0.00     0.136 HD
ENDBRANCH  26  29
ENDBRANCH  23  26
ENDBRANCH  19  20
ENDBRANCH  18  19
ENDBRANCH  15  18
ENDBRANCH  13  14
ENDBRANCH  12  13
ENDBRANCH   2  12
BRANCH   1  32
HETATM   32  C   UNL     1      40.315 -11.250  -2.304  1.00  0.00     0.045 A 
HETATM   33  C   UNL     1      38.929 -11.187  -2.415  1.00  0.00     0.054 A 
HETATM   34  C   UNL     1      38.240 -12.343  -2.780  1.00  0.00     0.042 A 
HETATM   35  C   UNL     1      38.930 -13.544  -3.036  1.00  0.00    -0.040 A 
HETATM   36 CL   UNL     1      36.524 -12.244  -2.903  1.00  0.00    -0.084 Cl
HETATM   37  C   UNL     1      38.203 -14.805  -3.423  1.00  0.00     0.050 C 
HETATM   38  C   UNL     1      40.333 -13.564  -2.933  1.00  0.00     0.011 A 
HETATM   39  C   UNL     1      41.034 -12.417  -2.569  1.00  0.00     0.031 A 
ENDBRANCH   1  32
BRANCH   6  40
HETATM   40  N   UNL     1      41.316  -9.452  -4.218  1.00  0.00    -0.384 N 
HETATM   41  H   UNL     1      40.633 -10.142  -4.514  1.00  0.00     0.157 HD
HETATM   42  H   UNL     1      41.569  -8.777  -4.929  1.00  0.00     0.157 HD
ENDBRANCH   6  40
TORSDOF 10
ENDMDL
