MODEL 1
REMARK VINA RESULT:      -7.9      0.000      0.000
REMARK  5 active torsions:
REMARK  status: ('A' for Active; 'I' for Inactive)
REMARK    1  A    between atoms: C_3  and  S_4 
REMARK    2  A    between atoms: S_4  and  C_5 
REMARK    3  A    between atoms: C_5  and  C_6 
REMARK       I    between atoms: C_6  and  N_7 
REMARK    4  A    between atoms: N_7  and  C_8 
REMARK    5  A    between atoms: C_10  and  C_11 
ROOT
HETATM    1  C   UNL     1      41.690 -16.161   6.359  1.00  0.00     0.231 C 
HETATM    2  N   UNL     1      42.052 -15.193   5.432  1.00  0.00    -0.327 N 
HETATM    3  O   UNL     1      40.576 -16.320   6.850  1.00  0.00    -0.272 OA
HETATM    4  H   UNL     1      43.045 -15.086   5.266  1.00  0.00     0.169 HD
ENDROOT
BRANCH   2   5
HETATM    5  C   UNL     1      41.200 -14.301   4.749  1.00  0.00     0.035 A 
HETATM    6  C   UNL     1      40.895 -14.405   3.388  1.00  0.00     0.042 A 
HETATM    7  C   UNL     1      40.071 -13.462   2.750  1.00  0.00    -0.021 A 
HETATM    8  C   UNL     1      39.557 -12.400   3.503  1.00  0.00     0.012 A 
HETATM    9  C   UNL     1      39.856 -12.285   4.862  1.00  0.00     0.003 A 
HETATM   10  C   UNL     1      40.674 -13.230   5.481  1.00  0.00     0.029 A 
BRANCH   7  11
HETATM   11  C   UNL     1      39.767 -13.567   1.329  1.00  0.00     0.010 A 
HETATM   12  C   UNL     1      39.281 -12.607   0.408  1.00  0.00     0.152 A 
HETATM   13  N   UNL     1      39.126 -13.099  -0.824  1.00  0.00    -0.187 NA
HETATM   14  N   UNL     1      39.513 -14.377  -0.701  1.00  0.00    -0.289 N 
HETATM   15  H   UNL     1      39.486 -14.971  -1.523  1.00  0.00     0.188 HD
HETATM   16  C   UNL     1      39.901 -14.709   0.564  1.00  0.00     0.123 A 
ENDBRANCH   7  11
ENDBRANCH   2   5
BRANCH   1  17
HETATM   17  C   UNL     1      42.827 -17.109   6.693  1.00  0.00     0.182 C 
BRANCH  17  18
HETATM   18  S   UNL     1      44.212 -16.886   5.536  1.00  0.00    -0.120 SA
BRANCH  18  19
HETATM   19  C   UNL     1      43.948 -18.328   4.507  1.00  0.00     0.006 A 
HETATM   20  C   UNL     1      43.591 -18.271   3.145  1.00  0.00    -0.045 A 
HETATM   21  C   UNL     1      43.356 -16.983   2.403  1.00  0.00     0.049 C 
HETATM   22  C   UNL     1      43.478 -19.474   2.422  1.00  0.00     0.008 A 
HETATM   23  C   UNL     1      43.668 -20.708   3.044  1.00  0.00     0.001 A 
HETATM   24  C   UNL     1      43.975 -20.761   4.398  1.00  0.00     0.001 A 
HETATM   25  C   UNL     1      44.114 -19.578   5.124  1.00  0.00     0.019 A 
ENDBRANCH  18  19
ENDBRANCH  17  18
ENDBRANCH   1  17
TORSDOF 5
ENDMDL
MODEL 2
REMARK VINA RESULT:      -7.9      1.758      2.299
REMARK  5 active torsions:
REMARK  status: ('A' for Active; 'I' for Inactive)
REMARK    1  A    between atoms: C_3  and  S_4 
REMARK    2  A    between atoms: S_4  and  C_5 
REMARK    3  A    between atoms: C_5  and  C_6 
REMARK       I    between atoms: C_6  and  N_7 
REMARK    4  A    between atoms: N_7  and  C_8 
REMARK    5  A    between atoms: C_10  and  C_11 
ROOT
HETATM    1  C   UNL     1      41.971 -15.142   4.211  1.00  0.00     0.231 C 
HETATM    2  N   UNL     1      40.895 -15.300   3.348  1.00  0.00    -0.327 N 
HETATM    3  O   UNL     1      42.719 -14.170   4.273  1.00  0.00    -0.272 OA
HETATM    4  H   UNL     1      40.495 -16.229   3.302  1.00  0.00     0.169 HD
ENDROOT
BRANCH   2   5
HETATM    5  C   UNL     1      40.343 -14.333   2.483  1.00  0.00     0.035 A 
HETATM    6  C   UNL     1      40.640 -14.249   1.119  1.00  0.00     0.042 A 
HETATM    7  C   UNL     1      40.092 -13.238   0.311  1.00  0.00    -0.021 A 
HETATM    8  C   UNL     1      39.236 -12.299   0.900  1.00  0.00     0.012 A 
HETATM    9  C   UNL     1      38.932 -12.372   2.260  1.00  0.00     0.003 A 
HETATM   10  C   UNL     1      39.484 -13.383   3.047  1.00  0.00     0.029 A 
BRANCH   7  11
HETATM   11  C   UNL     1      40.416 -13.148  -1.105  1.00  0.00     0.010 A 
HETATM   12  C   UNL     1      40.079 -13.992  -2.192  1.00  0.00     0.152 A 
HETATM   13  N   UNL     1      40.576 -13.565  -3.357  1.00  0.00    -0.187 NA
HETATM   14  N   UNL     1      41.233 -12.444  -3.024  1.00  0.00    -0.289 N 
HETATM   15  H   UNL     1      41.705 -11.925  -3.757  1.00  0.00     0.188 HD
HETATM   16  C   UNL     1      41.172 -12.153  -1.692  1.00  0.00     0.123 A 
ENDBRANCH   7  11
ENDBRANCH   2   5
BRANCH   1  17
HETATM   17  C   UNL     1      42.126 -16.303   5.176  1.00  0.00     0.182 C 
BRANCH  17  18
HETATM   18  S   UNL     1      43.876 -16.757   5.363  1.00  0.00    -0.120 SA
BRANCH  18  19
HETATM   19  C   UNL     1      43.823 -18.381   4.607  1.00  0.00     0.006 A 
HETATM   20  C   UNL     1      43.680 -18.604   3.224  1.00  0.00    -0.045 A 
HETATM   21  C   UNL     1      43.520 -17.496   2.218  1.00  0.00     0.049 C 
HETATM   22  C   UNL     1      43.721 -19.925   2.742  1.00  0.00     0.008 A 
HETATM   23  C   UNL     1      43.854 -21.006   3.613  1.00  0.00     0.001 A 
HETATM   24  C   UNL     1      43.949 -20.784   4.982  1.00  0.00     0.001 A 
HETATM   25  C   UNL     1      43.933 -19.479   5.475  1.00  0.00     0.019 A 
ENDBRANCH  18  19
ENDBRANCH  17  18
ENDBRANCH   1  17
TORSDOF 5
ENDMDL
MODEL 3
REMARK VINA RESULT:      -7.9      3.427      7.729
REMARK  5 active torsions:
REMARK  status: ('A' for Active; 'I' for Inactive)
REMARK    1  A    between atoms: C_3  and  S_4 
REMARK    2  A    between atoms: S_4  and  C_5 
REMARK    3  A    between atoms: C_5  and  C_6 
REMARK       I    between atoms: C_6  and  N_7 
REMARK    4  A    between atoms: N_7  and  C_8 
REMARK    5  A    between atoms: C_10  and  C_11 
ROOT
HETATM    1  C   UNL     1      41.279 -14.449   1.734  1.00  0.00     0.231 C 
HETATM    2  N   UNL     1      42.577 -14.779   2.099  1.00  0.00    -0.327 N 
HETATM    3  O   UNL     1      40.249 -14.957   2.166  1.00  0.00    -0.272 OA
HETATM    4  H   UNL     1      43.313 -14.394   1.520  1.00  0.00     0.169 HD
ENDROOT
BRANCH   2   5
HETATM    5  C   UNL     1      42.981 -15.643   3.138  1.00  0.00     0.035 A 
HETATM    6  C   UNL     1      43.216 -17.011   2.965  1.00  0.00     0.042 A 
HETATM    7  C   UNL     1      43.577 -17.834   4.046  1.00  0.00    -0.021 A 
HETATM    8  C   UNL     1      43.694 -17.258   5.317  1.00  0.00     0.012 A 
HETATM    9  C   UNL     1      43.462 -15.895   5.502  1.00  0.00     0.003 A 
HETATM   10  C   UNL     1      43.106 -15.092   4.418  1.00  0.00     0.029 A 
BRANCH   7  11
HETATM   11  C   UNL     1      43.807 -19.260   3.862  1.00  0.00     0.010 A 
HETATM   12  C   UNL     1      43.734 -20.072   2.704  1.00  0.00     0.152 A 
HETATM   13  N   UNL     1      44.016 -21.355   2.949  1.00  0.00    -0.187 NA
HETATM   14  N   UNL     1      44.274 -21.372   4.265  1.00  0.00    -0.289 N 
HETATM   15  H   UNL     1      44.520 -22.256   4.698  1.00  0.00     0.188 HD
HETATM   16  C   UNL     1      44.158 -20.149   4.858  1.00  0.00     0.123 A 
ENDBRANCH   7  11
ENDBRANCH   2   5
BRANCH   1  17
HETATM   17  C   UNL     1      41.221 -13.296   0.749  1.00  0.00     0.182 C 
BRANCH  17  18
HETATM   18  S   UNL     1      39.592 -12.489   0.796  1.00  0.00    -0.120 SA
BRANCH  18  19
HETATM   19  C   UNL     1      38.928 -13.117  -0.745  1.00  0.00     0.006 A 
HETATM   20  C   UNL     1      37.947 -12.455  -1.510  1.00  0.00    -0.045 A 
HETATM   21  C   UNL     1      37.316 -11.152  -1.099  1.00  0.00     0.049 C 
HETATM   22  C   UNL     1      37.554 -13.014  -2.740  1.00  0.00     0.008 A 
HETATM   23  C   UNL     1      38.084 -14.226  -3.182  1.00  0.00     0.001 A 
HETATM   24  C   UNL     1      39.018 -14.899  -2.402  1.00  0.00     0.001 A 
HETATM   25  C   UNL     1      39.436 -14.347  -1.192  1.00  0.00     0.019 A 
ENDBRANCH  18  19
ENDBRANCH  17  18
ENDBRANCH   1  17
TORSDOF 5
ENDMDL
MODEL 4
REMARK VINA RESULT:      -7.7      4.986      7.164
REMARK  5 active torsions:
REMARK  status: ('A' for Active; 'I' for Inactive)
REMARK    1  A    between atoms: C_3  and  S_4 
REMARK    2  A    between atoms: S_4  and  C_5 
REMARK    3  A    between atoms: C_5  and  C_6 
REMARK       I    between atoms: C_6  and  N_7 
REMARK    4  A    between atoms: N_7  and  C_8 
REMARK    5  A    between atoms: C_10  and  C_11 
ROOT
HETATM    1  C   UNL     1      43.320 -13.651   6.051  1.00  0.00     0.231 C 
HETATM    2  N   UNL     1      43.772 -12.342   5.950  1.00  0.00    -0.327 N 
HETATM    3  O   UNL     1      43.556 -14.436   6.965  1.00  0.00    -0.272 OA
HETATM    4  H   UNL     1      43.637 -11.893   5.053  1.00  0.00     0.169 HD
ENDROOT
BRANCH   2   5
HETATM    5  C   UNL     1      44.455 -11.595   6.932  1.00  0.00     0.035 A 
HETATM    6  C   UNL     1      43.875 -11.173   8.132  1.00  0.00     0.042 A 
HETATM    7  C   UNL     1      44.592 -10.395   9.057  1.00  0.00    -0.021 A 
HETATM    8  C   UNL     1      45.911 -10.038   8.754  1.00  0.00     0.012 A 
HETATM    9  C   UNL     1      46.501 -10.452   7.559  1.00  0.00     0.003 A 
HETATM   10  C   UNL     1      45.776 -11.226   6.652  1.00  0.00     0.029 A 
BRANCH   7  11
HETATM   11  C   UNL     1      43.978  -9.947  10.299  1.00  0.00     0.010 A 
HETATM   12  C   UNL     1      43.640  -8.648  10.754  1.00  0.00     0.152 A 
HETATM   13  N   UNL     1      43.088  -8.650  11.971  1.00  0.00    -0.187 NA
HETATM   14  N   UNL     1      43.066  -9.950  12.302  1.00  0.00    -0.289 N 
HETATM   15  H   UNL     1      42.681 -10.212  13.203  1.00  0.00     0.188 HD
HETATM   16  C   UNL     1      43.590 -10.764  11.341  1.00  0.00     0.123 A 
ENDBRANCH   7  11
ENDBRANCH   2   5
BRANCH   1  17
HETATM   17  C   UNL     1      42.402 -14.045   4.908  1.00  0.00     0.182 C 
BRANCH  17  18
HETATM   18  S   UNL     1      41.465 -15.548   5.323  1.00  0.00    -0.120 SA
BRANCH  18  19
HETATM   19  C   UNL     1      42.391 -16.729   4.345  1.00  0.00     0.006 A 
HETATM   20  C   UNL     1      42.168 -16.967   2.974  1.00  0.00    -0.045 A 
HETATM   21  C   UNL     1      41.096 -16.275   2.177  1.00  0.00     0.049 C 
HETATM   22  C   UNL     1      43.007 -17.871   2.297  1.00  0.00     0.008 A 
HETATM   23  C   UNL     1      44.014 -18.562   2.971  1.00  0.00     0.001 A 
HETATM   24  C   UNL     1      44.201 -18.358   4.333  1.00  0.00     0.001 A 
HETATM   25  C   UNL     1      43.394 -17.448   5.015  1.00  0.00     0.019 A 
ENDBRANCH  18  19
ENDBRANCH  17  18
ENDBRANCH   1  17
TORSDOF 5
ENDMDL
MODEL 5
REMARK VINA RESULT:      -7.6      2.901      6.608
REMARK  5 active torsions:
REMARK  status: ('A' for Active; 'I' for Inactive)
REMARK    1  A    between atoms: C_3  and  S_4 
REMARK    2  A    between atoms: S_4  and  C_5 
REMARK    3  A    between atoms: C_5  and  C_6 
REMARK       I    between atoms: C_6  and  N_7 
REMARK    4  A    between atoms: N_7  and  C_8 
REMARK    5  A    between atoms: C_10  and  C_11 
ROOT
HETATM    1  C   UNL     1      42.505 -12.964   3.961  1.00  0.00     0.231 C 
HETATM    2  N   UNL     1      42.158 -14.092   4.693  1.00  0.00    -0.327 N 
HETATM    3  O   UNL     1      43.608 -12.715   3.485  1.00  0.00    -0.272 OA
HETATM    4  H   UNL     1      41.262 -14.059   5.163  1.00  0.00     0.169 HD
ENDROOT
BRANCH   2   5
HETATM    5  C   UNL     1      42.940 -15.245   4.911  1.00  0.00     0.035 A 
HETATM    6  C   UNL     1      42.898 -16.379   4.093  1.00  0.00     0.042 A 
HETATM    7  C   UNL     1      43.670 -17.518   4.381  1.00  0.00    -0.021 A 
HETATM    8  C   UNL     1      44.489 -17.503   5.516  1.00  0.00     0.012 A 
HETATM    9  C   UNL     1      44.540 -16.377   6.340  1.00  0.00     0.003 A 
HETATM   10  C   UNL     1      43.768 -15.255   6.039  1.00  0.00     0.029 A 
BRANCH   7  11
HETATM   11  C   UNL     1      43.612 -18.701   3.534  1.00  0.00     0.010 A 
HETATM   12  C   UNL     1      43.976 -20.046   3.789  1.00  0.00     0.152 A 
HETATM   13  N   UNL     1      43.773 -20.848   2.741  1.00  0.00    -0.187 NA
HETATM   14  N   UNL     1      43.275 -20.022   1.808  1.00  0.00    -0.289 N 
HETATM   15  H   UNL     1      43.035 -20.408   0.900  1.00  0.00     0.188 HD
HETATM   16  C   UNL     1      43.163 -18.730   2.229  1.00  0.00     0.123 A 
ENDBRANCH   7  11
ENDBRANCH   2   5
BRANCH   1  17
HETATM   17  C   UNL     1      41.328 -12.036   3.721  1.00  0.00     0.182 C 
BRANCH  17  18
HETATM   18  S   UNL     1      39.801 -12.986   3.455  1.00  0.00    -0.120 SA
BRANCH  18  19
HETATM   19  C   UNL     1      39.978 -13.309   1.702  1.00  0.00     0.006 A 
HETATM   20  C   UNL     1      40.041 -14.599   1.139  1.00  0.00    -0.045 A 
HETATM   21  C   UNL     1      40.001 -15.862   1.956  1.00  0.00     0.049 C 
HETATM   22  C   UNL     1      40.111 -14.726  -0.261  1.00  0.00     0.008 A 
HETATM   23  C   UNL     1      40.165 -13.602  -1.084  1.00  0.00     0.001 A 
HETATM   24  C   UNL     1      40.148 -12.330  -0.522  1.00  0.00     0.001 A 
HETATM   25  C   UNL     1      40.056 -12.186   0.862  1.00  0.00     0.019 A 
ENDBRANCH  18  19
ENDBRANCH  17  18
ENDBRANCH   1  17
TORSDOF 5
ENDMDL
MODEL 6
REMARK VINA RESULT:      -7.6      2.444      3.417
REMARK  5 active torsions:
REMARK  status: ('A' for Active; 'I' for Inactive)
REMARK    1  A    between atoms: C_3  and  S_4 
REMARK    2  A    between atoms: S_4  and  C_5 
REMARK    3  A    between atoms: C_5  and  C_6 
REMARK       I    between atoms: C_6  and  N_7 
REMARK    4  A    between atoms: N_7  and  C_8 
REMARK    5  A    between atoms: C_10  and  C_11 
ROOT
HETATM    1  C   UNL     1      40.935 -15.566   2.735  1.00  0.00     0.231 C 
HETATM    2  N   UNL     1      41.589 -14.523   2.093  1.00  0.00    -0.327 N 
HETATM    3  O   UNL     1      39.737 -15.827   2.668  1.00  0.00    -0.272 OA
HETATM    4  H   UNL     1      42.538 -14.340   2.395  1.00  0.00     0.169 HD
ENDROOT
BRANCH   2   5
HETATM    5  C   UNL     1      41.058 -13.649   1.121  1.00  0.00     0.035 A 
HETATM    6  C   UNL     1      40.279 -14.071   0.039  1.00  0.00     0.042 A 
HETATM    7  C   UNL     1      39.810 -13.160  -0.923  1.00  0.00    -0.021 A 
HETATM    8  C   UNL     1      40.143 -11.807  -0.785  1.00  0.00     0.012 A 
HETATM    9  C   UNL     1      40.921 -11.374   0.290  1.00  0.00     0.003 A 
HETATM   10  C   UNL     1      41.377 -12.291   1.237  1.00  0.00     0.029 A 
BRANCH   7  11
HETATM   11  C   UNL     1      39.011 -13.606  -2.056  1.00  0.00     0.010 A 
HETATM   12  C   UNL     1      39.148 -14.731  -2.905  1.00  0.00     0.152 A 
HETATM   13  N   UNL     1      38.202 -14.792  -3.846  1.00  0.00    -0.187 NA
HETATM   14  N   UNL     1      37.451 -13.707  -3.604  1.00  0.00    -0.289 N 
HETATM   15  H   UNL     1      36.649 -13.532  -4.201  1.00  0.00     0.188 HD
HETATM   16  C   UNL     1      37.893 -12.963  -2.550  1.00  0.00     0.123 A 
ENDBRANCH   7  11
ENDBRANCH   2   5
BRANCH   1  17
HETATM   17  C   UNL     1      41.880 -16.455   3.522  1.00  0.00     0.182 C 
BRANCH  17  18
HETATM   18  S   UNL     1      43.074 -17.265   2.416  1.00  0.00    -0.120 SA
BRANCH  18  19
HETATM   19  C   UNL     1      43.465 -18.691   3.427  1.00  0.00     0.006 A 
HETATM   20  C   UNL     1      43.605 -20.000   2.925  1.00  0.00    -0.045 A 
HETATM   21  C   UNL     1      43.407 -20.359   1.477  1.00  0.00     0.049 C 
HETATM   22  C   UNL     1      43.982 -21.029   3.809  1.00  0.00     0.008 A 
HETATM   23  C   UNL     1      44.171 -20.777   5.168  1.00  0.00     0.001 A 
HETATM   24  C   UNL     1      43.988 -19.493   5.666  1.00  0.00     0.001 A 
HETATM   25  C   UNL     1      43.636 -18.457   4.800  1.00  0.00     0.019 A 
ENDBRANCH  18  19
ENDBRANCH  17  18
ENDBRANCH   1  17
TORSDOF 5
ENDMDL
MODEL 7
REMARK VINA RESULT:      -7.6      4.164      7.789
REMARK  5 active torsions:
REMARK  status: ('A' for Active; 'I' for Inactive)
REMARK    1  A    between atoms: C_3  and  S_4 
REMARK    2  A    between atoms: S_4  and  C_5 
REMARK    3  A    between atoms: C_5  and  C_6 
REMARK       I    between atoms: C_6  and  N_7 
REMARK    4  A    between atoms: N_7  and  C_8 
REMARK    5  A    between atoms: C_10  and  C_11 
ROOT
HETATM    1  C   UNL     1      42.459 -14.160   5.931  1.00  0.00     0.231 C 
HETATM    2  N   UNL     1      43.279 -14.346   4.827  1.00  0.00    -0.327 N 
HETATM    3  O   UNL     1      41.445 -14.797   6.203  1.00  0.00    -0.272 OA
HETATM    4  H   UNL     1      43.968 -13.624   4.658  1.00  0.00     0.169 HD
ENDROOT
BRANCH   2   5
HETATM    5  C   UNL     1      43.215 -15.389   3.880  1.00  0.00     0.035 A 
HETATM    6  C   UNL     1      43.483 -16.729   4.179  1.00  0.00     0.042 A 
HETATM    7  C   UNL     1      43.445 -17.722   3.185  1.00  0.00    -0.021 A 
HETATM    8  C   UNL     1      43.135 -17.346   1.872  1.00  0.00     0.012 A 
HETATM    9  C   UNL     1      42.866 -16.012   1.561  1.00  0.00     0.003 A 
HETATM   10  C   UNL     1      42.907 -15.039   2.560  1.00  0.00     0.029 A 
BRANCH   7  11
HETATM   11  C   UNL     1      43.738 -19.113   3.499  1.00  0.00     0.010 A 
HETATM   12  C   UNL     1      43.664 -20.282   2.702  1.00  0.00     0.152 A 
HETATM   13  N   UNL     1      44.018 -21.387   3.364  1.00  0.00    -0.187 NA
HETATM   14  N   UNL     1      44.324 -20.933   4.589  1.00  0.00    -0.289 N 
HETATM   15  H   UNL     1      44.629 -21.600   5.289  1.00  0.00     0.188 HD
HETATM   16  C   UNL     1      44.169 -19.584   4.723  1.00  0.00     0.123 A 
ENDBRANCH   7  11
ENDBRANCH   2   5
BRANCH   1  17
HETATM   17  C   UNL     1      42.976 -13.087   6.872  1.00  0.00     0.182 C 
BRANCH  17  18
HETATM   18  S   UNL     1      42.802 -11.438   6.126  1.00  0.00    -0.120 SA
BRANCH  18  19
HETATM   19  C   UNL     1      43.928 -10.534   7.186  1.00  0.00     0.006 A 
HETATM   20  C   UNL     1      43.519  -9.591   8.150  1.00  0.00    -0.045 A 
HETATM   21  C   UNL     1      42.082  -9.206   8.376  1.00  0.00     0.049 C 
HETATM   22  C   UNL     1      44.494  -8.995   8.972  1.00  0.00     0.008 A 
HETATM   23  C   UNL     1      45.848  -9.290   8.814  1.00  0.00     0.001 A 
HETATM   24  C   UNL     1      46.250 -10.188   7.831  1.00  0.00     0.001 A 
HETATM   25  C   UNL     1      45.296 -10.805   7.023  1.00  0.00     0.019 A 
ENDBRANCH  18  19
ENDBRANCH  17  18
ENDBRANCH   1  17
TORSDOF 5
ENDMDL
MODEL 8
REMARK VINA RESULT:      -7.6      3.113      5.258
REMARK  5 active torsions:
REMARK  status: ('A' for Active; 'I' for Inactive)
REMARK    1  A    between atoms: C_3  and  S_4 
REMARK    2  A    between atoms: S_4  and  C_5 
REMARK    3  A    between atoms: C_5  and  C_6 
REMARK       I    between atoms: C_6  and  N_7 
REMARK    4  A    between atoms: N_7  and  C_8 
REMARK    5  A    between atoms: C_10  and  C_11 
ROOT
HETATM    1  C   UNL     1      41.332 -15.061   3.039  1.00  0.00     0.231 C 
HETATM    2  N   UNL     1      41.593 -14.835   4.384  1.00  0.00    -0.327 N 
HETATM    3  O   UNL     1      41.020 -14.216   2.205  1.00  0.00    -0.272 OA
HETATM    4  H   UNL     1      41.660 -15.660   4.968  1.00  0.00     0.169 HD
ENDROOT
BRANCH   2   5
HETATM    5  C   UNL     1      41.708 -13.590   5.036  1.00  0.00     0.035 A 
HETATM    6  C   UNL     1      42.888 -13.129   5.628  1.00  0.00     0.042 A 
HETATM    7  C   UNL     1      42.935 -11.896   6.302  1.00  0.00    -0.021 A 
HETATM    8  C   UNL     1      41.766 -11.128   6.378  1.00  0.00     0.012 A 
HETATM    9  C   UNL     1      40.582 -11.579   5.792  1.00  0.00     0.003 A 
HETATM   10  C   UNL     1      40.554 -12.805   5.126  1.00  0.00     0.029 A 
BRANCH   7  11
HETATM   11  C   UNL     1      44.162 -11.426   6.928  1.00  0.00     0.010 A 
HETATM   12  C   UNL     1      45.487 -11.345   6.433  1.00  0.00     0.152 A 
HETATM   13  N   UNL     1      46.349 -10.854   7.328  1.00  0.00    -0.187 NA
HETATM   14  N   UNL     1      45.581 -10.616   8.402  1.00  0.00    -0.289 N 
HETATM   15  H   UNL     1      46.019 -10.229   9.232  1.00  0.00     0.188 HD
HETATM   16  C   UNL     1      44.270 -10.944   8.217  1.00  0.00     0.123 A 
ENDBRANCH   7  11
ENDBRANCH   2   5
BRANCH   1  17
HETATM   17  C   UNL     1      41.537 -16.510   2.636  1.00  0.00     0.182 C 
BRANCH  17  18
HETATM   18  S   UNL     1      43.246 -16.788   2.080  1.00  0.00    -0.120 SA
BRANCH  18  19
HETATM   19  C   UNL     1      43.591 -18.293   2.988  1.00  0.00     0.006 A 
HETATM   20  C   UNL     1      44.006 -18.325   4.334  1.00  0.00    -0.045 A 
HETATM   21  C   UNL     1      44.240 -17.088   5.159  1.00  0.00     0.049 C 
HETATM   22  C   UNL     1      44.180 -19.573   4.961  1.00  0.00     0.008 A 
HETATM   23  C   UNL     1      43.995 -20.763   4.258  1.00  0.00     0.001 A 
HETATM   24  C   UNL     1      43.630 -20.727   2.917  1.00  0.00     0.001 A 
HETATM   25  C   UNL     1      43.431 -19.499   2.287  1.00  0.00     0.019 A 
ENDBRANCH  18  19
ENDBRANCH  17  18
ENDBRANCH   1  17
TORSDOF 5
ENDMDL
MODEL 9
REMARK VINA RESULT:      -7.4      2.814      4.584
REMARK  5 active torsions:
REMARK  status: ('A' for Active; 'I' for Inactive)
REMARK    1  A    between atoms: C_3  and  S_4 
REMARK    2  A    between atoms: S_4  and  C_5 
REMARK    3  A    between atoms: C_5  and  C_6 
REMARK       I    between atoms: C_6  and  N_7 
REMARK    4  A    between atoms: N_7  and  C_8 
REMARK    5  A    between atoms: C_10  and  C_11 
ROOT
HETATM    1  C   UNL     1      40.171 -14.506   2.286  1.00  0.00     0.231 C 
HETATM    2  N   UNL     1      40.728 -14.739   1.036  1.00  0.00    -0.327 N 
HETATM    3  O   UNL     1      39.349 -13.640   2.569  1.00  0.00    -0.272 OA
HETATM    4  H   UNL     1      41.519 -15.369   1.012  1.00  0.00     0.169 HD
ENDROOT
BRANCH   2   5
HETATM    5  C   UNL     1      40.359 -14.144  -0.189  1.00  0.00     0.035 A 
HETATM    6  C   UNL     1      40.744 -12.856  -0.575  1.00  0.00     0.042 A 
HETATM    7  C   UNL     1      40.313 -12.297  -1.791  1.00  0.00    -0.021 A 
HETATM    8  C   UNL     1      39.477 -13.056  -2.618  1.00  0.00     0.012 A 
HETATM    9  C   UNL     1      39.085 -14.342  -2.244  1.00  0.00     0.003 A 
HETATM   10  C   UNL     1      39.524 -14.882  -1.034  1.00  0.00     0.029 A 
BRANCH   7  11
HETATM   11  C   UNL     1      40.705 -10.951  -2.181  1.00  0.00     0.010 A 
HETATM   12  C   UNL     1      40.315 -10.151  -3.283  1.00  0.00     0.152 A 
HETATM   13  N   UNL     1      40.909  -8.955  -3.296  1.00  0.00    -0.187 NA
HETATM   14  N   UNL     1      41.683  -8.980  -2.200  1.00  0.00    -0.289 N 
HETATM   15  H   UNL     1      42.246  -8.163  -1.988  1.00  0.00     0.188 HD
HETATM   16  C   UNL     1      41.602 -10.149  -1.503  1.00  0.00     0.123 A 
ENDBRANCH   7  11
ENDBRANCH   2   5
BRANCH   1  17
HETATM   17  C   UNL     1      40.634 -15.506   3.330  1.00  0.00     0.182 C 
BRANCH  17  18
HETATM   18  S   UNL     1      42.345 -15.160   3.839  1.00  0.00    -0.120 SA
BRANCH  18  19
HETATM   19  C   UNL     1      43.036 -16.799   3.621  1.00  0.00     0.006 A 
HETATM   20  C   UNL     1      43.908 -17.417   4.539  1.00  0.00    -0.045 A 
HETATM   21  C   UNL     1      44.390 -16.753   5.800  1.00  0.00     0.049 C 
HETATM   22  C   UNL     1      44.330 -18.736   4.290  1.00  0.00     0.008 A 
HETATM   23  C   UNL     1      43.937 -19.413   3.136  1.00  0.00     0.001 A 
HETATM   24  C   UNL     1      43.113 -18.782   2.210  1.00  0.00     0.001 A 
HETATM   25  C   UNL     1      42.666 -17.484   2.452  1.00  0.00     0.019 A 
ENDBRANCH  18  19
ENDBRANCH  17  18
ENDBRANCH   1  17
TORSDOF 5
ENDMDL
MODEL 10
REMARK VINA RESULT:      -7.2      2.430      3.359
REMARK  5 active torsions:
REMARK  status: ('A' for Active; 'I' for Inactive)
REMARK    1  A    between atoms: C_3  and  S_4 
REMARK    2  A    between atoms: S_4  and  C_5 
REMARK    3  A    between atoms: C_5  and  C_6 
REMARK       I    between atoms: C_6  and  N_7 
REMARK    4  A    between atoms: N_7  and  C_8 
REMARK    5  A    between atoms: C_10  and  C_11 
ROOT
HETATM    1  C   UNL     1      41.849 -13.209   3.718  1.00  0.00     0.231 C 
HETATM    2  N   UNL     1      42.392 -12.712   2.541  1.00  0.00    -0.327 N 
HETATM    3  O   UNL     1      40.708 -13.022   4.131  1.00  0.00    -0.272 OA
HETATM    4  H   UNL     1      43.395 -12.809   2.438  1.00  0.00     0.169 HD
ENDROOT
BRANCH   2   5
HETATM    5  C   UNL     1      41.717 -12.029   1.509  1.00  0.00     0.035 A 
HETATM    6  C   UNL     1      41.079 -12.668   0.441  1.00  0.00     0.042 A 
HETATM    7  C   UNL     1      40.455 -11.934  -0.583  1.00  0.00    -0.021 A 
HETATM    8  C   UNL     1      40.487 -10.536  -0.522  1.00  0.00     0.012 A 
HETATM    9  C   UNL     1      41.122  -9.886   0.538  1.00  0.00     0.003 A 
HETATM   10  C   UNL     1      41.734 -10.630   1.547  1.00  0.00     0.029 A 
BRANCH   7  11
HETATM   11  C   UNL     1      39.804 -12.604  -1.700  1.00  0.00     0.010 A 
HETATM   12  C   UNL     1      40.260 -13.633  -2.561  1.00  0.00     0.152 A 
HETATM   13  N   UNL     1      39.355 -13.982  -3.480  1.00  0.00    -0.187 NA
HETATM   14  N   UNL     1      38.313 -13.180  -3.212  1.00  0.00    -0.289 N 
HETATM   15  H   UNL     1      37.482 -13.260  -3.789  1.00  0.00     0.188 HD
HETATM   16  C   UNL     1      38.532 -12.337  -2.163  1.00  0.00     0.123 A 
ENDBRANCH   7  11
ENDBRANCH   2   5
BRANCH   1  17
HETATM   17  C   UNL     1      42.809 -14.112   4.472  1.00  0.00     0.182 C 
BRANCH  17  18
HETATM   18  S   UNL     1      41.927 -15.525   5.201  1.00  0.00    -0.120 SA
BRANCH  18  19
HETATM   19  C   UNL     1      42.692 -16.843   4.261  1.00  0.00     0.006 A 
HETATM   20  C   UNL     1      42.353 -17.166   2.931  1.00  0.00    -0.045 A 
HETATM   21  C   UNL     1      41.277 -16.455   2.155  1.00  0.00     0.049 C 
HETATM   22  C   UNL     1      43.074 -18.180   2.274  1.00  0.00     0.008 A 
HETATM   23  C   UNL     1      44.076 -18.892   2.931  1.00  0.00     0.001 A 
HETATM   24  C   UNL     1      44.377 -18.602   4.257  1.00  0.00     0.001 A 
HETATM   25  C   UNL     1      43.688 -17.584   4.917  1.00  0.00     0.019 A 
ENDBRANCH  18  19
ENDBRANCH  17  18
ENDBRANCH   1  17
TORSDOF 5
ENDMDL
