MODEL 1
REMARK VINA RESULT:      -9.2      0.000      0.000
REMARK  7 active torsions:
REMARK  status: ('A' for Active; 'I' for Inactive)
REMARK    1  A    between atoms: C_5  and  C_6 
REMARK    2  A    between atoms: C_6  and  C_7 
REMARK    3  A    between atoms: C_7  and  S_8 
REMARK    4  A    between atoms: S_8  and  C_9 
REMARK    5  A    between atoms: C_15  and  C_16 
REMARK    6  A    between atoms: C_16  and  C_17 
REMARK    7  A    between atoms: C_25  and  N_26 
ROOT
HETATM    1  C   UNL     1      42.233 -11.652   4.797  1.00  0.00     0.116 A 
HETATM    2  N   UNL     1      41.139 -11.077   4.275  1.00  0.00    -0.203 NA
HETATM    3  S   UNL     1      40.642  -9.846   5.311  1.00  0.00     0.020 SA
HETATM    4  C   UNL     1      41.856 -10.105   6.428  1.00  0.00     0.080 A 
HETATM    5  C   UNL     1      42.646 -11.114   6.032  1.00  0.00     0.053 A 
HETATM    6  S   UNL     1      42.302  -9.409   7.867  1.00  0.00    -0.074 SA
HETATM    7  C   UNL     1      43.631 -10.535   8.017  1.00  0.00     0.084 A 
HETATM    8  C   UNL     1      43.704 -11.391   6.917  1.00  0.00     0.062 A 
ENDROOT
BRANCH   1   9
HETATM    9  S   UNL     1      43.001 -12.988   3.951  1.00  0.00    -0.101 SA
BRANCH   9  10
HETATM   10  C   UNL     1      42.150 -14.398   4.711  1.00  0.00     0.164 C 
BRANCH  10  11
HETATM   11  C   UNL     1      43.172 -15.419   5.159  1.00  0.00     0.169 C 
HETATM   12  O   UNL     1      43.875 -15.229   6.151  1.00  0.00    -0.291 OA
BRANCH  11  13
HETATM   13  C   UNL     1      43.349 -16.678   4.372  1.00  0.00     0.011 A 
HETATM   14  C   UNL     1      44.136 -17.744   4.820  1.00  0.00     0.016 A 
HETATM   15  C   UNL     1      44.261 -18.900   4.043  1.00  0.00     0.007 A 
HETATM   16  C   UNL     1      43.598 -19.009   2.815  1.00  0.00    -0.062 A 
HETATM   17  C   UNL     1      43.749 -20.238   1.967  1.00  0.00     0.048 C 
HETATM   18  C   UNL     1      42.830 -17.933   2.359  1.00  0.00     0.007 A 
HETATM   19  C   UNL     1      42.706 -16.777   3.131  1.00  0.00     0.016 A 
ENDBRANCH  11  13
ENDBRANCH  10  11
ENDBRANCH   9  10
ENDBRANCH   1   9
BRANCH   8  20
HETATM   20  N   UNL     1      44.655 -12.331   6.725  1.00  0.00    -0.397 N 
HETATM   21  H   UNL     1      44.544 -13.119   6.092  1.00  0.00     0.156 HD
HETATM   22  H   UNL     1      45.379 -12.496   7.426  1.00  0.00     0.156 HD
ENDBRANCH   8  20
BRANCH   7  23
HETATM   23  C   UNL     1      44.463 -10.416   9.205  1.00  0.00     0.201 C 
HETATM   24  O   UNL     1      45.658 -10.711   9.218  1.00  0.00    -0.286 OA
BRANCH  23  25
HETATM   25  C   UNL     1      43.875  -9.905  10.480  1.00  0.00     0.015 A 
HETATM   26  C   UNL     1      43.863  -8.543  10.803  1.00  0.00     0.016 A 
HETATM   27  C   UNL     1      43.324  -8.114  12.020  1.00  0.00     0.007 A 
HETATM   28  C   UNL     1      42.811  -9.038  12.937  1.00  0.00    -0.062 A 
HETATM   29  C   UNL     1      42.231  -8.586  14.245  1.00  0.00     0.048 C 
HETATM   30  C   UNL     1      42.834 -10.401  12.617  1.00  0.00     0.007 A 
HETATM   31  C   UNL     1      43.368 -10.833  11.400  1.00  0.00     0.016 A 
ENDBRANCH  23  25
ENDBRANCH   7  23
TORSDOF 7
ENDMDL
MODEL 2
REMARK VINA RESULT:      -9.1      2.317      3.516
REMARK  7 active torsions:
REMARK  status: ('A' for Active; 'I' for Inactive)
REMARK    1  A    between atoms: C_5  and  C_6 
REMARK    2  A    between atoms: C_6  and  C_7 
REMARK    3  A    between atoms: C_7  and  S_8 
REMARK    4  A    between atoms: S_8  and  C_9 
REMARK    5  A    between atoms: C_15  and  C_16 
REMARK    6  A    between atoms: C_16  and  C_17 
REMARK    7  A    between atoms: C_25  and  N_26 
ROOT
HETATM    1  C   UNL     1      41.207 -14.788   4.103  1.00  0.00     0.116 A 
HETATM    2  N   UNL     1      40.637 -15.831   4.726  1.00  0.00    -0.203 NA
HETATM    3  S   UNL     1      41.182 -15.859   6.319  1.00  0.00     0.020 SA
HETATM    4  C   UNL     1      42.164 -14.519   6.155  1.00  0.00     0.080 A 
HETATM    5  C   UNL     1      42.089 -14.037   4.906  1.00  0.00     0.053 A 
HETATM    6  S   UNL     1      43.171 -13.666   7.160  1.00  0.00    -0.074 SA
HETATM    7  C   UNL     1      43.579 -12.579   5.854  1.00  0.00     0.084 A 
HETATM    8  C   UNL     1      42.883 -12.897   4.686  1.00  0.00     0.062 A 
ENDROOT
BRANCH   1   9
HETATM    9  S   UNL     1      40.845 -14.481   2.411  1.00  0.00    -0.101 SA
BRANCH   9  10
HETATM   10  C   UNL     1      41.355 -16.056   1.670  1.00  0.00     0.164 C 
BRANCH  10  11
HETATM   11  C   UNL     1      42.826 -16.285   1.943  1.00  0.00     0.169 C 
HETATM   12  O   UNL     1      43.683 -15.506   1.527  1.00  0.00    -0.291 OA
BRANCH  11  13
HETATM   13  C   UNL     1      43.252 -17.492   2.715  1.00  0.00     0.011 A 
HETATM   14  C   UNL     1      43.146 -18.791   2.207  1.00  0.00     0.016 A 
HETATM   15  C   UNL     1      43.567 -19.882   2.973  1.00  0.00     0.007 A 
HETATM   16  C   UNL     1      44.103 -19.691   4.252  1.00  0.00    -0.062 A 
HETATM   17  C   UNL     1      44.533 -20.861   5.088  1.00  0.00     0.048 C 
HETATM   18  C   UNL     1      44.188 -18.394   4.767  1.00  0.00     0.007 A 
HETATM   19  C   UNL     1      43.766 -17.302   4.005  1.00  0.00     0.016 A 
ENDBRANCH  11  13
ENDBRANCH  10  11
ENDBRANCH   9  10
ENDBRANCH   1   9
BRANCH   8  20
HETATM   20  N   UNL     1      42.952 -12.206   3.527  1.00  0.00    -0.397 N 
HETATM   21  H   UNL     1      42.416 -11.360   3.346  1.00  0.00     0.156 HD
HETATM   22  H   UNL     1      43.270 -12.655   2.667  1.00  0.00     0.156 HD
ENDBRANCH   8  20
BRANCH   7  23
HETATM   23  C   UNL     1      44.528 -11.517   6.153  1.00  0.00     0.201 C 
HETATM   24  O   UNL     1      45.412 -11.168   5.369  1.00  0.00    -0.286 OA
BRANCH  23  25
HETATM   25  C   UNL     1      44.448 -10.789   7.454  1.00  0.00     0.015 A 
HETATM   26  C   UNL     1      45.516 -10.756   8.359  1.00  0.00     0.016 A 
HETATM   27  C   UNL     1      45.387 -10.082   9.577  1.00  0.00     0.007 A 
HETATM   28  C   UNL     1      44.184  -9.452   9.917  1.00  0.00    -0.062 A 
HETATM   29  C   UNL     1      44.035  -8.727  11.222  1.00  0.00     0.048 C 
HETATM   30  C   UNL     1      43.113  -9.496   9.017  1.00  0.00     0.007 A 
HETATM   31  C   UNL     1      43.241 -10.164   7.797  1.00  0.00     0.016 A 
ENDBRANCH  23  25
ENDBRANCH   7  23
TORSDOF 7
ENDMDL
MODEL 3
REMARK VINA RESULT:      -8.8      1.367      1.949
REMARK  7 active torsions:
REMARK  status: ('A' for Active; 'I' for Inactive)
REMARK    1  A    between atoms: C_5  and  C_6 
REMARK    2  A    between atoms: C_6  and  C_7 
REMARK    3  A    between atoms: C_7  and  S_8 
REMARK    4  A    between atoms: S_8  and  C_9 
REMARK    5  A    between atoms: C_15  and  C_16 
REMARK    6  A    between atoms: C_16  and  C_17 
REMARK    7  A    between atoms: C_25  and  N_26 
ROOT
HETATM    1  C   UNL     1      42.715 -12.324   6.137  1.00  0.00     0.116 A 
HETATM    2  N   UNL     1      41.584 -12.488   5.433  1.00  0.00    -0.203 NA
HETATM    3  S   UNL     1      40.676 -11.075   5.554  1.00  0.00     0.020 SA
HETATM    4  C   UNL     1      41.771 -10.289   6.539  1.00  0.00     0.080 A 
HETATM    5  C   UNL     1      42.828 -11.077   6.783  1.00  0.00     0.053 A 
HETATM    6  S   UNL     1      41.852  -8.793   7.253  1.00  0.00    -0.074 SA
HETATM    7  C   UNL     1      43.390  -9.204   7.975  1.00  0.00     0.084 A 
HETATM    8  C   UNL     1      43.807 -10.482   7.601  1.00  0.00     0.062 A 
ENDROOT
BRANCH   1   9
HETATM    9  S   UNL     1      43.888 -13.631   6.216  1.00  0.00    -0.101 SA
BRANCH   9  10
HETATM   10  C   UNL     1      42.871 -15.025   5.656  1.00  0.00     0.164 C 
BRANCH  10  11
HETATM   11  C   UNL     1      43.655 -16.310   5.808  1.00  0.00     0.169 C 
HETATM   12  O   UNL     1      44.339 -16.529   6.808  1.00  0.00    -0.291 OA
BRANCH  11  13
HETATM   13  C   UNL     1      43.615 -17.330   4.716  1.00  0.00     0.011 A 
HETATM   14  C   UNL     1      43.060 -17.070   3.459  1.00  0.00     0.016 A 
HETATM   15  C   UNL     1      43.057 -18.062   2.473  1.00  0.00     0.007 A 
HETATM   16  C   UNL     1      43.611 -19.322   2.727  1.00  0.00    -0.062 A 
HETATM   17  C   UNL     1      43.587 -20.397   1.680  1.00  0.00     0.048 C 
HETATM   18  C   UNL     1      44.145 -19.587   3.992  1.00  0.00     0.007 A 
HETATM   19  C   UNL     1      44.148 -18.599   4.979  1.00  0.00     0.016 A 
ENDBRANCH  11  13
ENDBRANCH  10  11
ENDBRANCH   9  10
ENDBRANCH   1   9
BRANCH   8  20
HETATM   20  N   UNL     1      44.977 -11.055   7.958  1.00  0.00    -0.397 N 
HETATM   21  H   UNL     1      45.040 -11.947   8.442  1.00  0.00     0.156 HD
HETATM   22  H   UNL     1      45.824 -10.494   8.067  1.00  0.00     0.156 HD
ENDBRANCH   8  20
BRANCH   7  23
HETATM   23  C   UNL     1      44.016  -8.191   8.812  1.00  0.00     0.201 C 
HETATM   24  O   UNL     1      44.920  -7.457   8.412  1.00  0.00    -0.286 OA
BRANCH  23  25
HETATM   25  C   UNL     1      43.555  -7.997  10.219  1.00  0.00     0.015 A 
HETATM   26  C   UNL     1      43.770  -8.958  11.215  1.00  0.00     0.016 A 
HETATM   27  C   UNL     1      43.299  -8.744  12.513  1.00  0.00     0.007 A 
HETATM   28  C   UNL     1      42.590  -7.579  12.830  1.00  0.00    -0.062 A 
HETATM   29  C   UNL     1      42.080  -7.340  14.221  1.00  0.00     0.048 C 
HETATM   30  C   UNL     1      42.366  -6.624  11.831  1.00  0.00     0.007 A 
HETATM   31  C   UNL     1      42.839  -6.833  10.534  1.00  0.00     0.016 A 
ENDBRANCH  23  25
ENDBRANCH   7  23
TORSDOF 7
ENDMDL
MODEL 4
REMARK VINA RESULT:      -8.4      5.140      8.486
REMARK  7 active torsions:
REMARK  status: ('A' for Active; 'I' for Inactive)
REMARK    1  A    between atoms: C_5  and  C_6 
REMARK    2  A    between atoms: C_6  and  C_7 
REMARK    3  A    between atoms: C_7  and  S_8 
REMARK    4  A    between atoms: S_8  and  C_9 
REMARK    5  A    between atoms: C_15  and  C_16 
REMARK    6  A    between atoms: C_16  and  C_17 
REMARK    7  A    between atoms: C_25  and  N_26 
ROOT
HETATM    1  C   UNL     1      40.197 -13.427   4.988  1.00  0.00     0.116 A 
HETATM    2  N   UNL     1      39.693 -12.845   6.088  1.00  0.00    -0.203 NA
HETATM    3  S   UNL     1      39.109 -11.324   5.663  1.00  0.00     0.020 SA
HETATM    4  C   UNL     1      39.545 -11.452   4.056  1.00  0.00     0.080 A 
HETATM    5  C   UNL     1      40.129 -12.637   3.824  1.00  0.00     0.053 A 
HETATM    6  S   UNL     1      39.412 -10.479   2.718  1.00  0.00    -0.074 SA
HETATM    7  C   UNL     1      40.210 -11.689   1.740  1.00  0.00     0.084 A 
HETATM    8  C   UNL     1      40.518 -12.828   2.486  1.00  0.00     0.062 A 
ENDROOT
BRANCH   1   9
HETATM    9  S   UNL     1      40.896 -15.036   5.098  1.00  0.00    -0.101 SA
BRANCH   9  10
HETATM   10  C   UNL     1      42.660 -14.644   4.943  1.00  0.00     0.164 C 
BRANCH  10  11
HETATM   11  C   UNL     1      43.480 -15.841   5.372  1.00  0.00     0.169 C 
HETATM   12  O   UNL     1      44.106 -15.842   6.431  1.00  0.00    -0.291 OA
BRANCH  11  13
HETATM   13  C   UNL     1      43.548 -17.042   4.485  1.00  0.00     0.011 A 
HETATM   14  C   UNL     1      44.082 -18.264   4.908  1.00  0.00     0.016 A 
HETATM   15  C   UNL     1      44.114 -19.357   4.036  1.00  0.00     0.007 A 
HETATM   16  C   UNL     1      43.611 -19.246   2.735  1.00  0.00    -0.062 A 
HETATM   17  C   UNL     1      43.667 -20.409   1.787  1.00  0.00     0.048 C 
HETATM   18  C   UNL     1      43.098 -18.017   2.306  1.00  0.00     0.007 A 
HETATM   19  C   UNL     1      43.066 -16.924   3.174  1.00  0.00     0.016 A 
ENDBRANCH  11  13
ENDBRANCH  10  11
ENDBRANCH   9  10
ENDBRANCH   1   9
BRANCH   8  20
HETATM   20  N   UNL     1      41.090 -13.948   1.993  1.00  0.00    -0.397 N 
HETATM   21  H   UNL     1      40.972 -14.263   1.033  1.00  0.00     0.156 HD
HETATM   22  H   UNL     1      41.386 -14.703   2.615  1.00  0.00     0.156 HD
ENDBRANCH   8  20
BRANCH   7  23
HETATM   23  C   UNL     1      40.414 -11.370   0.336  1.00  0.00     0.201 C 
HETATM   24  O   UNL     1      41.104 -10.422  -0.043  1.00  0.00    -0.286 OA
BRANCH  23  25
HETATM   25  C   UNL     1      39.784 -12.216  -0.721  1.00  0.00     0.015 A 
HETATM   26  C   UNL     1      38.396 -12.281  -0.897  1.00  0.00     0.016 A 
HETATM   27  C   UNL     1      37.850 -13.107  -1.884  1.00  0.00     0.007 A 
HETATM   28  C   UNL     1      38.678 -13.894  -2.692  1.00  0.00    -0.062 A 
HETATM   29  C   UNL     1      38.101 -14.784  -3.754  1.00  0.00     0.048 C 
HETATM   30  C   UNL     1      40.065 -13.836  -2.508  1.00  0.00     0.007 A 
HETATM   31  C   UNL     1      40.614 -13.009  -1.526  1.00  0.00     0.016 A 
ENDBRANCH  23  25
ENDBRANCH   7  23
TORSDOF 7
ENDMDL
MODEL 5
REMARK VINA RESULT:      -8.3      1.194      9.425
REMARK  7 active torsions:
REMARK  status: ('A' for Active; 'I' for Inactive)
REMARK    1  A    between atoms: C_5  and  C_6 
REMARK    2  A    between atoms: C_6  and  C_7 
REMARK    3  A    between atoms: C_7  and  S_8 
REMARK    4  A    between atoms: S_8  and  C_9 
REMARK    5  A    between atoms: C_15  and  C_16 
REMARK    6  A    between atoms: C_16  and  C_17 
REMARK    7  A    between atoms: C_25  and  N_26 
ROOT
HETATM    1  C   UNL     1      41.651 -11.126   5.025  1.00  0.00     0.116 A 
HETATM    2  N   UNL     1      41.539 -10.379   3.915  1.00  0.00    -0.203 NA
HETATM    3  S   UNL     1      42.113 -11.278   2.612  1.00  0.00     0.020 SA
HETATM    4  C   UNL     1      42.512 -12.615   3.529  1.00  0.00     0.080 A 
HETATM    5  C   UNL     1      42.215 -12.401   4.819  1.00  0.00     0.053 A 
HETATM    6  S   UNL     1      43.160 -14.109   3.213  1.00  0.00    -0.074 SA
HETATM    7  C   UNL     1      43.081 -14.519   4.911  1.00  0.00     0.084 A 
HETATM    8  C   UNL     1      42.513 -13.488   5.661  1.00  0.00     0.062 A 
ENDROOT
BRANCH   1   9
HETATM    9  S   UNL     1      41.137 -10.468   6.572  1.00  0.00    -0.101 SA
BRANCH   9  10
HETATM   10  C   UNL     1      42.603  -9.499   7.025  1.00  0.00     0.164 C 
BRANCH  10  11
HETATM   11  C   UNL     1      43.332 -10.192   8.155  1.00  0.00     0.169 C 
HETATM   12  O   UNL     1      43.950 -11.241   7.970  1.00  0.00    -0.291 OA
BRANCH  11  13
HETATM   13  C   UNL     1      43.289  -9.604   9.528  1.00  0.00     0.011 A 
HETATM   14  C   UNL     1      43.465 -10.372  10.684  1.00  0.00     0.016 A 
HETATM   15  C   UNL     1      43.421  -9.766  11.944  1.00  0.00     0.007 A 
HETATM   16  C   UNL     1      43.206  -8.389  12.066  1.00  0.00    -0.062 A 
HETATM   17  C   UNL     1      43.132  -7.739  13.417  1.00  0.00     0.048 C 
HETATM   18  C   UNL     1      43.008  -7.626  10.910  1.00  0.00     0.007 A 
HETATM   19  C   UNL     1      43.050  -8.229   9.651  1.00  0.00     0.016 A 
ENDBRANCH  11  13
ENDBRANCH  10  11
ENDBRANCH   9  10
ENDBRANCH   1   9
BRANCH   8  20
HETATM   20  N   UNL     1      42.273 -13.533   6.989  1.00  0.00    -0.397 N 
HETATM   21  H   UNL     1      41.477 -13.080   7.431  1.00  0.00     0.156 HD
HETATM   22  H   UNL     1      43.026 -13.728   7.652  1.00  0.00     0.156 HD
ENDBRANCH   8  20
BRANCH   7  23
HETATM   23  C   UNL     1      43.572 -15.834   5.294  1.00  0.00     0.201 C 
HETATM   24  O   UNL     1      44.032 -16.079   6.409  1.00  0.00    -0.286 OA
BRANCH  23  25
HETATM   25  C   UNL     1      43.517 -16.964   4.319  1.00  0.00     0.015 A 
HETATM   26  C   UNL     1      42.623 -16.980   3.241  1.00  0.00     0.016 A 
HETATM   27  C   UNL     1      42.590 -18.071   2.369  1.00  0.00     0.007 A 
HETATM   28  C   UNL     1      43.433 -19.170   2.572  1.00  0.00    -0.062 A 
HETATM   29  C   UNL     1      43.405 -20.346   1.641  1.00  0.00     0.048 C 
HETATM   30  C   UNL     1      44.319 -19.159   3.656  1.00  0.00     0.007 A 
HETATM   31  C   UNL     1      44.357 -18.068   4.527  1.00  0.00     0.016 A 
ENDBRANCH  23  25
ENDBRANCH   7  23
TORSDOF 7
ENDMDL
MODEL 6
REMARK VINA RESULT:      -8.3      1.567      2.114
REMARK  7 active torsions:
REMARK  status: ('A' for Active; 'I' for Inactive)
REMARK    1  A    between atoms: C_5  and  C_6 
REMARK    2  A    between atoms: C_6  and  C_7 
REMARK    3  A    between atoms: C_7  and  S_8 
REMARK    4  A    between atoms: S_8  and  C_9 
REMARK    5  A    between atoms: C_15  and  C_16 
REMARK    6  A    between atoms: C_16  and  C_17 
REMARK    7  A    between atoms: C_25  and  N_26 
ROOT
HETATM    1  C   UNL     1      42.044 -11.731   5.950  1.00  0.00     0.116 A 
HETATM    2  N   UNL     1      40.770 -11.930   5.578  1.00  0.00    -0.203 NA
HETATM    3  S   UNL     1      39.827 -10.701   6.238  1.00  0.00     0.020 SA
HETATM    4  C   UNL     1      41.101  -9.947   7.010  1.00  0.00     0.080 A 
HETATM    5  C   UNL     1      42.244 -10.608   6.778  1.00  0.00     0.053 A 
HETATM    6  S   UNL     1      41.270  -8.598   7.962  1.00  0.00    -0.074 SA
HETATM    7  C   UNL     1      42.984  -8.905   8.119  1.00  0.00     0.084 A 
HETATM    8  C   UNL     1      43.372 -10.029   7.388  1.00  0.00     0.062 A 
ENDROOT
BRANCH   1   9
HETATM    9  S   UNL     1      43.290 -12.853   5.424  1.00  0.00    -0.101 SA
BRANCH   9  10
HETATM   10  C   UNL     1      42.269 -14.186   4.737  1.00  0.00     0.164 C 
BRANCH  10  11
HETATM   11  C   UNL     1      42.944 -14.751   3.507  1.00  0.00     0.169 C 
HETATM   12  O   UNL     1      43.299 -14.024   2.579  1.00  0.00    -0.291 OA
BRANCH  11  13
HETATM   13  C   UNL     1      43.171 -16.225   3.403  1.00  0.00     0.011 A 
HETATM   14  C   UNL     1      42.866 -16.957   2.251  1.00  0.00     0.016 A 
HETATM   15  C   UNL     1      43.105 -18.335   2.210  1.00  0.00     0.007 A 
HETATM   16  C   UNL     1      43.655 -18.997   3.313  1.00  0.00    -0.062 A 
HETATM   17  C   UNL     1      43.889 -20.479   3.282  1.00  0.00     0.048 C 
HETATM   18  C   UNL     1      43.938 -18.267   4.472  1.00  0.00     0.007 A 
HETATM   19  C   UNL     1      43.698 -16.892   4.517  1.00  0.00     0.016 A 
ENDBRANCH  11  13
ENDBRANCH  10  11
ENDBRANCH   9  10
ENDBRANCH   1   9
BRANCH   8  20
HETATM   20  N   UNL     1      44.639 -10.484   7.274  1.00  0.00    -0.397 N 
HETATM   21  H   UNL     1      45.042 -10.805   6.398  1.00  0.00     0.156 HD
HETATM   22  H   UNL     1      45.144 -10.840   8.087  1.00  0.00     0.156 HD
ENDBRANCH   8  20
BRANCH   7  23
HETATM   23  C   UNL     1      43.748  -7.971   8.932  1.00  0.00     0.201 C 
HETATM   24  O   UNL     1      44.675  -7.295   8.484  1.00  0.00    -0.286 OA
BRANCH  23  25
HETATM   25  C   UNL     1      43.411  -7.790  10.376  1.00  0.00     0.015 A 
HETATM   26  C   UNL     1      43.728  -8.751  11.344  1.00  0.00     0.016 A 
HETATM   27  C   UNL     1      43.370  -8.550  12.679  1.00  0.00     0.007 A 
HETATM   28  C   UNL     1      42.673  -7.398  13.063  1.00  0.00    -0.062 A 
HETATM   29  C   UNL     1      42.285  -7.173  14.496  1.00  0.00     0.048 C 
HETATM   30  C   UNL     1      42.347  -6.443  12.094  1.00  0.00     0.007 A 
HETATM   31  C   UNL     1      42.707  -6.639  10.758  1.00  0.00     0.016 A 
ENDBRANCH  23  25
ENDBRANCH   7  23
TORSDOF 7
ENDMDL
MODEL 7
REMARK VINA RESULT:      -8.1      4.817      8.563
REMARK  7 active torsions:
REMARK  status: ('A' for Active; 'I' for Inactive)
REMARK    1  A    between atoms: C_5  and  C_6 
REMARK    2  A    between atoms: C_6  and  C_7 
REMARK    3  A    between atoms: C_7  and  S_8 
REMARK    4  A    between atoms: S_8  and  C_9 
REMARK    5  A    between atoms: C_15  and  C_16 
REMARK    6  A    between atoms: C_16  and  C_17 
REMARK    7  A    between atoms: C_25  and  N_26 
ROOT
HETATM    1  C   UNL     1      41.501 -12.965   4.863  1.00  0.00     0.116 A 
HETATM    2  N   UNL     1      40.887 -12.237   5.809  1.00  0.00    -0.203 NA
HETATM    3  S   UNL     1      39.444 -11.649   5.172  1.00  0.00     0.020 SA
HETATM    4  C   UNL     1      39.662 -12.343   3.669  1.00  0.00     0.080 A 
HETATM    5  C   UNL     1      40.816 -13.024   3.633  1.00  0.00     0.053 A 
HETATM    6  S   UNL     1      38.793 -12.391   2.256  1.00  0.00    -0.074 SA
HETATM    7  C   UNL     1      40.038 -13.363   1.506  1.00  0.00     0.084 A 
HETATM    8  C   UNL     1      41.071 -13.649   2.399  1.00  0.00     0.062 A 
ENDROOT
BRANCH   1   9
HETATM    9  S   UNL     1      43.049 -13.720   5.214  1.00  0.00    -0.101 SA
BRANCH   9  10
HETATM   10  C   UNL     1      42.504 -15.368   5.740  1.00  0.00     0.164 C 
BRANCH  10  11
HETATM   11  C   UNL     1      43.656 -16.341   5.612  1.00  0.00     0.169 C 
HETATM   12  O   UNL     1      44.640 -16.269   6.348  1.00  0.00    -0.291 OA
BRANCH  11  13
HETATM   13  C   UNL     1      43.610 -17.402   4.560  1.00  0.00     0.011 A 
HETATM   14  C   UNL     1      42.977 -17.216   3.327  1.00  0.00     0.016 A 
HETATM   15  C   UNL     1      42.971 -18.244   2.378  1.00  0.00     0.007 A 
HETATM   16  C   UNL     1      43.599 -19.465   2.645  1.00  0.00    -0.062 A 
HETATM   17  C   UNL     1      43.574 -20.580   1.640  1.00  0.00     0.048 C 
HETATM   18  C   UNL     1      44.212 -19.658   3.888  1.00  0.00     0.007 A 
HETATM   19  C   UNL     1      44.218 -18.634   4.838  1.00  0.00     0.016 A 
ENDBRANCH  11  13
ENDBRANCH  10  11
ENDBRANCH   9  10
ENDBRANCH   1   9
BRANCH   8  20
HETATM   20  N   UNL     1      42.145 -14.422   2.124  1.00  0.00    -0.397 N 
HETATM   21  H   UNL     1      42.452 -14.640   1.179  1.00  0.00     0.156 HD
HETATM   22  H   UNL     1      42.502 -15.088   2.811  1.00  0.00     0.156 HD
ENDBRANCH   8  20
BRANCH   7  23
HETATM   23  C   UNL     1      39.825 -13.748   0.119  1.00  0.00     0.201 C 
HETATM   24  O   UNL     1      39.868 -14.917  -0.265  1.00  0.00    -0.286 OA
BRANCH  23  25
HETATM   25  C   UNL     1      39.526 -12.706  -0.908  1.00  0.00     0.015 A 
HETATM   26  C   UNL     1      38.262 -12.576  -1.496  1.00  0.00     0.016 A 
HETATM   27  C   UNL     1      38.036 -11.601  -2.471  1.00  0.00     0.007 A 
HETATM   28  C   UNL     1      39.072 -10.758  -2.888  1.00  0.00    -0.062 A 
HETATM   29  C   UNL     1      38.839  -9.707  -3.935  1.00  0.00     0.048 C 
HETATM   30  C   UNL     1      40.339 -10.894  -2.307  1.00  0.00     0.007 A 
HETATM   31  C   UNL     1      40.566 -11.865  -1.329  1.00  0.00     0.016 A 
ENDBRANCH  23  25
ENDBRANCH   7  23
TORSDOF 7
ENDMDL
MODEL 8
REMARK VINA RESULT:      -8.1      4.638      8.056
REMARK  7 active torsions:
REMARK  status: ('A' for Active; 'I' for Inactive)
REMARK    1  A    between atoms: C_5  and  C_6 
REMARK    2  A    between atoms: C_6  and  C_7 
REMARK    3  A    between atoms: C_7  and  S_8 
REMARK    4  A    between atoms: S_8  and  C_9 
REMARK    5  A    between atoms: C_15  and  C_16 
REMARK    6  A    between atoms: C_16  and  C_17 
REMARK    7  A    between atoms: C_25  and  N_26 
ROOT
HETATM    1  C   UNL     1      40.078 -10.521   3.428  1.00  0.00     0.116 A 
HETATM    2  N   UNL     1      40.751  -9.408   3.759  1.00  0.00    -0.203 NA
HETATM    3  S   UNL     1      41.930  -9.818   4.888  1.00  0.00     0.020 SA
HETATM    4  C   UNL     1      41.523 -11.437   4.933  1.00  0.00     0.080 A 
HETATM    5  C   UNL     1      40.503 -11.685   4.100  1.00  0.00     0.053 A 
HETATM    6  S   UNL     1      42.088 -12.772   5.741  1.00  0.00    -0.074 SA
HETATM    7  C   UNL     1      40.881 -13.771   4.966  1.00  0.00     0.084 A 
HETATM    8  C   UNL     1      40.104 -13.033   4.071  1.00  0.00     0.062 A 
ENDROOT
BRANCH   1   9
HETATM    9  S   UNL     1      38.765 -10.430   2.263  1.00  0.00    -0.101 SA
BRANCH   9  10
HETATM   10  C   UNL     1      39.607  -9.619   0.875  1.00  0.00     0.164 C 
BRANCH  10  11
HETATM   11  C   UNL     1      40.634 -10.563   0.291  1.00  0.00     0.169 C 
HETATM   12  O   UNL     1      41.840 -10.336   0.388  1.00  0.00    -0.291 OA
BRANCH  11  13
HETATM   13  C   UNL     1      40.180 -11.787  -0.436  1.00  0.00     0.011 A 
HETATM   14  C   UNL     1      40.487 -13.081  -0.002  1.00  0.00     0.016 A 
HETATM   15  C   UNL     1      40.029 -14.191  -0.721  1.00  0.00     0.007 A 
HETATM   16  C   UNL     1      39.258 -14.024  -1.876  1.00  0.00    -0.062 A 
HETATM   17  C   UNL     1      38.786 -15.211  -2.664  1.00  0.00     0.048 C 
HETATM   18  C   UNL     1      38.971 -12.729  -2.321  1.00  0.00     0.007 A 
HETATM   19  C   UNL     1      39.428 -11.619  -1.607  1.00  0.00     0.016 A 
ENDBRANCH  11  13
ENDBRANCH  10  11
ENDBRANCH   9  10
ENDBRANCH   1   9
BRANCH   8  20
HETATM   20  N   UNL     1      39.127 -13.541   3.288  1.00  0.00    -0.397 N 
HETATM   21  H   UNL     1      38.433 -14.207   3.618  1.00  0.00     0.156 HD
HETATM   22  H   UNL     1      39.223 -13.552   2.271  1.00  0.00     0.156 HD
ENDBRANCH   8  20
BRANCH   7  23
HETATM   23  C   UNL     1      40.867 -15.182   5.321  1.00  0.00     0.201 C 
HETATM   24  O   UNL     1      40.188 -15.634   6.243  1.00  0.00    -0.286 OA
BRANCH  23  25
HETATM   25  C   UNL     1      41.692 -16.155   4.545  1.00  0.00     0.015 A 
HETATM   26  C   UNL     1      41.452 -16.428   3.193  1.00  0.00     0.016 A 
HETATM   27  C   UNL     1      42.235 -17.366   2.514  1.00  0.00     0.007 A 
HETATM   28  C   UNL     1      43.252 -18.059   3.179  1.00  0.00    -0.062 A 
HETATM   29  C   UNL     1      44.098 -19.068   2.459  1.00  0.00     0.048 C 
HETATM   30  C   UNL     1      43.485 -17.794   4.534  1.00  0.00     0.007 A 
HETATM   31  C   UNL     1      42.707 -16.854   5.214  1.00  0.00     0.016 A 
ENDBRANCH  23  25
ENDBRANCH   7  23
TORSDOF 7
ENDMDL
MODEL 9
REMARK VINA RESULT:      -7.9      2.092      9.352
REMARK  7 active torsions:
REMARK  status: ('A' for Active; 'I' for Inactive)
REMARK    1  A    between atoms: C_5  and  C_6 
REMARK    2  A    between atoms: C_6  and  C_7 
REMARK    3  A    between atoms: C_7  and  S_8 
REMARK    4  A    between atoms: S_8  and  C_9 
REMARK    5  A    between atoms: C_15  and  C_16 
REMARK    6  A    between atoms: C_16  and  C_17 
REMARK    7  A    between atoms: C_25  and  N_26 
ROOT
HETATM    1  C   UNL     1      41.756 -11.715   5.942  1.00  0.00     0.116 A 
HETATM    2  N   UNL     1      40.466 -11.427   5.708  1.00  0.00    -0.203 NA
HETATM    3  S   UNL     1      39.634 -12.872   5.477  1.00  0.00     0.020 SA
HETATM    4  C   UNL     1      40.981 -13.840   5.669  1.00  0.00     0.080 A 
HETATM    5  C   UNL     1      42.065 -13.090   5.911  1.00  0.00     0.053 A 
HETATM    6  S   UNL     1      41.271 -15.474   5.641  1.00  0.00    -0.074 SA
HETATM    7  C   UNL     1      42.970 -15.193   5.944  1.00  0.00     0.084 A 
HETATM    8  C   UNL     1      43.245 -13.833   6.095  1.00  0.00     0.062 A 
ENDROOT
BRANCH   1   9
HETATM    9  S   UNL     1      42.902 -10.412   6.222  1.00  0.00    -0.101 SA
BRANCH   9  10
HETATM   10  C   UNL     1      41.773  -9.069   6.682  1.00  0.00     0.164 C 
BRANCH  10  11
HETATM   11  C   UNL     1      42.248  -8.433   7.970  1.00  0.00     0.169 C 
HETATM   12  O   UNL     1      43.083  -7.528   7.967  1.00  0.00    -0.291 OA
BRANCH  11  13
HETATM   13  C   UNL     1      41.711  -8.924   9.276  1.00  0.00     0.011 A 
HETATM   14  C   UNL     1      42.536  -9.246  10.359  1.00  0.00     0.016 A 
HETATM   15  C   UNL     1      41.976  -9.695  11.559  1.00  0.00     0.007 A 
HETATM   16  C   UNL     1      40.590  -9.823  11.696  1.00  0.00    -0.062 A 
HETATM   17  C   UNL     1      39.986 -10.329  12.974  1.00  0.00     0.048 C 
HETATM   18  C   UNL     1      39.768  -9.522  10.604  1.00  0.00     0.007 A 
HETATM   19  C   UNL     1      40.324  -9.075   9.404  1.00  0.00     0.016 A 
ENDBRANCH  11  13
ENDBRANCH  10  11
ENDBRANCH   9  10
ENDBRANCH   1   9
BRANCH   8  20
HETATM   20  N   UNL     1      44.456 -13.312   6.388  1.00  0.00    -0.397 N 
HETATM   21  H   UNL     1      44.631 -12.314   6.477  1.00  0.00     0.156 HD
HETATM   22  H   UNL     1      45.312 -13.842   6.211  1.00  0.00     0.156 HD
ENDBRANCH   8  20
BRANCH   7  23
HETATM   23  C   UNL     1      43.827 -16.366   6.020  1.00  0.00     0.201 C 
HETATM   24  O   UNL     1      44.623 -16.555   6.941  1.00  0.00    -0.286 OA
BRANCH  23  25
HETATM   25  C   UNL     1      43.756 -17.414   4.958  1.00  0.00     0.015 A 
HETATM   26  C   UNL     1      44.057 -18.757   5.212  1.00  0.00     0.016 A 
HETATM   27  C   UNL     1      44.001 -19.699   4.181  1.00  0.00     0.007 A 
HETATM   28  C   UNL     1      43.663 -19.309   2.880  1.00  0.00    -0.062 A 
HETATM   29  C   UNL     1      43.600 -20.312   1.765  1.00  0.00     0.048 C 
HETATM   30  C   UNL     1      43.373 -17.964   2.624  1.00  0.00     0.007 A 
HETATM   31  C   UNL     1      43.424 -17.021   3.654  1.00  0.00     0.016 A 
ENDBRANCH  23  25
ENDBRANCH   7  23
TORSDOF 7
ENDMDL
MODEL 10
REMARK VINA RESULT:      -7.9      2.039      2.721
REMARK  7 active torsions:
REMARK  status: ('A' for Active; 'I' for Inactive)
REMARK    1  A    between atoms: C_5  and  C_6 
REMARK    2  A    between atoms: C_6  and  C_7 
REMARK    3  A    between atoms: C_7  and  S_8 
REMARK    4  A    between atoms: S_8  and  C_9 
REMARK    5  A    between atoms: C_15  and  C_16 
REMARK    6  A    between atoms: C_16  and  C_17 
REMARK    7  A    between atoms: C_25  and  N_26 
ROOT
HETATM    1  C   UNL     1      43.306 -11.751   6.116  1.00  0.00     0.116 A 
HETATM    2  N   UNL     1      44.595 -12.047   5.883  1.00  0.00    -0.203 NA
HETATM    3  S   UNL     1      45.549 -11.060   6.857  1.00  0.00     0.020 SA
HETATM    4  C   UNL     1      44.259 -10.255   7.547  1.00  0.00     0.080 A 
HETATM    5  C   UNL     1      43.102 -10.722   7.056  1.00  0.00     0.053 A 
HETATM    6  S   UNL     1      44.089  -9.054   8.679  1.00  0.00    -0.074 SA
HETATM    7  C   UNL     1      42.350  -9.115   8.505  1.00  0.00     0.084 A 
HETATM    8  C   UNL     1      41.961 -10.100   7.596  1.00  0.00     0.062 A 
ENDROOT
BRANCH   1   9
HETATM    9  S   UNL     1      42.045 -12.611   5.244  1.00  0.00    -0.101 SA
BRANCH   9  10
HETATM   10  C   UNL     1      42.710 -14.298   5.274  1.00  0.00     0.164 C 
BRANCH  10  11
HETATM   11  C   UNL     1      43.012 -14.743   3.860  1.00  0.00     0.169 C 
HETATM   12  O   UNL     1      43.089 -13.932   2.936  1.00  0.00    -0.291 OA
BRANCH  11  13
HETATM   13  C   UNL     1      43.204 -16.196   3.570  1.00  0.00     0.011 A 
HETATM   14  C   UNL     1      43.833 -17.068   4.465  1.00  0.00     0.016 A 
HETATM   15  C   UNL     1      43.979 -18.422   4.142  1.00  0.00     0.007 A 
HETATM   16  C   UNL     1      43.497 -18.921   2.927  1.00  0.00    -0.062 A 
HETATM   17  C   UNL     1      43.675 -20.367   2.566  1.00  0.00     0.048 C 
HETATM   18  C   UNL     1      42.890 -18.043   2.024  1.00  0.00     0.007 A 
HETATM   19  C   UNL     1      42.744 -16.691   2.342  1.00  0.00     0.016 A 
ENDBRANCH  11  13
ENDBRANCH  10  11
ENDBRANCH   9  10
ENDBRANCH   1   9
BRANCH   8  20
HETATM   20  N   UNL     1      40.684 -10.418   7.292  1.00  0.00    -0.397 N 
HETATM   21  H   UNL     1      40.396 -11.338   6.970  1.00  0.00     0.156 HD
HETATM   22  H   UNL     1      40.006  -9.692   7.048  1.00  0.00     0.156 HD
ENDBRANCH   8  20
BRANCH   7  23
HETATM   23  C   UNL     1      41.574  -8.188   9.315  1.00  0.00     0.201 C 
HETATM   24  O   UNL     1      40.574  -7.607   8.895  1.00  0.00    -0.286 OA
BRANCH  23  25
HETATM   25  C   UNL     1      41.974  -7.917  10.728  1.00  0.00     0.015 A 
HETATM   26  C   UNL     1      42.130  -8.941  11.670  1.00  0.00     0.016 A 
HETATM   27  C   UNL     1      42.482  -8.637  12.989  1.00  0.00     0.007 A 
HETATM   28  C   UNL     1      42.661  -7.309  13.389  1.00  0.00    -0.062 A 
HETATM   29  C   UNL     1      43.039  -6.972  14.802  1.00  0.00     0.048 C 
HETATM   30  C   UNL     1      42.495  -6.284  12.449  1.00  0.00     0.007 A 
HETATM   31  C   UNL     1      42.148  -6.585  11.130  1.00  0.00     0.016 A 
ENDBRANCH  23  25
ENDBRANCH   7  23
TORSDOF 7
ENDMDL
