MODEL 1
REMARK VINA RESULT:      -9.2      0.000      0.000
REMARK  6 active torsions:
REMARK  status: ('A' for Active; 'I' for Inactive)
REMARK    1  A    between atoms: O_2  and  C_3 
REMARK    2  A    between atoms: C_6  and  C_7 
REMARK    3  A    between atoms: C_12  and  C_13 
REMARK       I    between atoms: C_13  and  N_14 
REMARK    4  A    between atoms: N_14  and  C_15 
REMARK    5  A    between atoms: C_15  and  C_16 
REMARK    6  A    between atoms: C_24  and  C_25 
ROOT
HETATM    1  C   UNL     1      42.342 -16.065   1.854  1.00  0.00     0.118 C 
HETATM    2  N   UNL     1      43.129 -14.882   2.208  1.00  0.00    -0.366 N 
HETATM    3  C   UNL     1      42.570 -13.793   2.771  1.00  0.00     0.123 A 
HETATM    4  N   UNL     1      41.226 -13.574   2.687  1.00  0.00    -0.240 N 
HETATM    5  N   UNL     1      40.794 -12.531   3.417  1.00  0.00    -0.165 NA
HETATM    6  C   UNL     1      41.941 -11.992   3.896  1.00  0.00     0.148 A 
HETATM    7  C   UNL     1      43.078 -12.746   3.491  1.00  0.00     0.088 A 
HETATM    8  C   UNL     1      40.324 -14.484   2.014  1.00  0.00     0.221 C 
HETATM    9  C   UNL     1      40.842 -15.916   2.203  1.00  0.00     0.066 C 
HETATM   10  H   UNL     1      44.130 -15.053   2.307  1.00  0.00     0.161 HD
ENDROOT
BRANCH   6  11
HETATM   11  C   UNL     1      41.946 -10.799   4.755  1.00  0.00     0.272 C 
HETATM   12  N   UNL     1      42.043 -11.095   6.091  1.00  0.00    -0.351 N 
HETATM   13  H   UNL     1      42.187 -12.074   6.322  1.00  0.00     0.163 HD
HETATM   14  O   UNL     1      41.886  -9.656   4.311  1.00  0.00    -0.266 OA
BRANCH  12  15
HETATM   15  C   UNL     1      42.155 -10.078   7.098  1.00  0.00     0.161 C 
BRANCH  15  16
HETATM   16  C   UNL     1      43.590  -9.875   7.509  1.00  0.00    -0.041 A 
HETATM   17  C   UNL     1      44.577 -10.802   7.152  1.00  0.00     0.009 A 
HETATM   18  C   UNL     1      45.906 -10.604   7.533  1.00  0.00     0.001 A 
HETATM   19  C   UNL     1      46.260  -9.478   8.272  1.00  0.00     0.000 A 
HETATM   20  C   UNL     1      45.289  -8.545   8.629  1.00  0.00     0.001 A 
HETATM   21  C   UNL     1      43.962  -8.739   8.246  1.00  0.00     0.009 A 
ENDBRANCH  15  16
ENDBRANCH  12  15
ENDBRANCH   6  11
BRANCH   8  22
HETATM   22  C   UNL     1      40.175 -14.102   0.560  1.00  0.00     0.409 C 
HETATM   23  F   UNL     1      39.196 -13.192   0.364  1.00  0.00    -0.169 F 
HETATM   24  F   UNL     1      41.307 -13.620   0.006  1.00  0.00    -0.169 F 
HETATM   25  F   UNL     1      39.829 -15.201  -0.163  1.00  0.00    -0.169 F 
ENDBRANCH   8  22
BRANCH   1  26
HETATM   26  C   UNL     1      42.948 -17.265   2.567  1.00  0.00    -0.035 A 
HETATM   27  C   UNL     1      43.000 -18.522   1.937  1.00  0.00     0.012 A 
HETATM   28  C   UNL     1      43.558 -19.629   2.579  1.00  0.00     0.037 A 
HETATM   29  C   UNL     1      44.067 -19.504   3.870  1.00  0.00     0.068 A 
HETATM   30  C   UNL     1      43.988 -18.269   4.516  1.00  0.00     0.037 A 
HETATM   31  C   UNL     1      43.438 -17.154   3.872  1.00  0.00     0.012 A 
BRANCH  29  32
HETATM   32  O   UNL     1      44.641 -20.506   4.601  1.00  0.00    -0.356 OA
HETATM   33  C   UNL     1      43.928 -20.935   5.756  1.00  0.00     0.210 C 
ENDBRANCH  29  32
ENDBRANCH   1  26
TORSDOF 6
ENDMDL
MODEL 2
REMARK VINA RESULT:      -9.1      4.422      8.755
REMARK  6 active torsions:
REMARK  status: ('A' for Active; 'I' for Inactive)
REMARK    1  A    between atoms: O_2  and  C_3 
REMARK    2  A    between atoms: C_6  and  C_7 
REMARK    3  A    between atoms: C_12  and  C_13 
REMARK       I    between atoms: C_13  and  N_14 
REMARK    4  A    between atoms: N_14  and  C_15 
REMARK    5  A    between atoms: C_15  and  C_16 
REMARK    6  A    between atoms: C_24  and  C_25 
ROOT
HETATM    1  C   UNL     1      39.897 -11.441  -2.321  1.00  0.00     0.118 C 
HETATM    2  N   UNL     1      39.622 -11.515  -0.885  1.00  0.00    -0.366 N 
HETATM    3  C   UNL     1      39.981 -12.580  -0.141  1.00  0.00     0.123 A 
HETATM    4  N   UNL     1      40.255 -13.781  -0.727  1.00  0.00    -0.240 N 
HETATM    5  N   UNL     1      40.738 -14.707   0.119  1.00  0.00    -0.165 NA
HETATM    6  C   UNL     1      40.657 -14.094   1.326  1.00  0.00     0.148 A 
HETATM    7  C   UNL     1      40.163 -12.765   1.202  1.00  0.00     0.088 A 
HETATM    8  C   UNL     1      40.196 -13.987  -2.159  1.00  0.00     0.221 C 
HETATM    9  C   UNL     1      40.632 -12.693  -2.858  1.00  0.00     0.066 C 
HETATM   10  H   UNL     1      39.454 -10.612  -0.439  1.00  0.00     0.161 HD
ENDROOT
BRANCH   6  11
HETATM   11  C   UNL     1      41.077 -14.757   2.569  1.00  0.00     0.272 C 
HETATM   12  N   UNL     1      42.406 -15.101   2.575  1.00  0.00    -0.351 N 
HETATM   13  H   UNL     1      42.952 -14.785   1.779  1.00  0.00     0.163 HD
HETATM   14  O   UNL     1      40.314 -14.963   3.508  1.00  0.00    -0.266 OA
BRANCH  12  15
HETATM   15  C   UNL     1      43.045 -15.676   3.726  1.00  0.00     0.161 C 
BRANCH  15  16
HETATM   16  C   UNL     1      43.320 -17.143   3.519  1.00  0.00    -0.041 A 
HETATM   17  C   UNL     1      42.873 -17.801   2.366  1.00  0.00     0.009 A 
HETATM   18  C   UNL     1      43.136 -19.160   2.180  1.00  0.00     0.001 A 
HETATM   19  C   UNL     1      43.850 -19.871   3.143  1.00  0.00     0.000 A 
HETATM   20  C   UNL     1      44.304 -19.227   4.291  1.00  0.00     0.001 A 
HETATM   21  C   UNL     1      44.046 -17.868   4.477  1.00  0.00     0.009 A 
ENDBRANCH  15  16
ENDBRANCH  12  15
ENDBRANCH   6  11
BRANCH   8  22
HETATM   22  C   UNL     1      38.815 -14.439  -2.572  1.00  0.00     0.409 C 
HETATM   23  F   UNL     1      37.841 -13.853  -1.842  1.00  0.00    -0.169 F 
HETATM   24  F   UNL     1      38.541 -14.227  -3.876  1.00  0.00    -0.169 F 
HETATM   25  F   UNL     1      38.697 -15.778  -2.367  1.00  0.00    -0.169 F 
ENDBRANCH   8  22
BRANCH   1  26
HETATM   26  C   UNL     1      40.710 -10.182  -2.582  1.00  0.00    -0.035 A 
HETATM   27  C   UNL     1      40.620  -9.513  -3.816  1.00  0.00     0.012 A 
HETATM   28  C   UNL     1      41.357  -8.353  -4.065  1.00  0.00     0.037 A 
HETATM   29  C   UNL     1      42.210  -7.845  -3.087  1.00  0.00     0.068 A 
HETATM   30  C   UNL     1      42.332  -8.522  -1.872  1.00  0.00     0.037 A 
HETATM   31  C   UNL     1      41.587  -9.679  -1.615  1.00  0.00     0.012 A 
BRANCH  29  32
HETATM   32  O   UNL     1      42.978  -6.720  -3.206  1.00  0.00    -0.356 OA
HETATM   33  C   UNL     1      42.319  -5.550  -3.674  1.00  0.00     0.210 C 
ENDBRANCH  29  32
ENDBRANCH   1  26
TORSDOF 6
ENDMDL
MODEL 3
REMARK VINA RESULT:      -9.0      1.247      1.285
REMARK  6 active torsions:
REMARK  status: ('A' for Active; 'I' for Inactive)
REMARK    1  A    between atoms: O_2  and  C_3 
REMARK    2  A    between atoms: C_6  and  C_7 
REMARK    3  A    between atoms: C_12  and  C_13 
REMARK       I    between atoms: C_13  and  N_14 
REMARK    4  A    between atoms: N_14  and  C_15 
REMARK    5  A    between atoms: C_15  and  C_16 
REMARK    6  A    between atoms: C_24  and  C_25 
ROOT
HETATM    1  C   UNL     1      42.379 -15.595   2.391  1.00  0.00     0.118 C 
HETATM    2  N   UNL     1      42.932 -14.457   3.129  1.00  0.00    -0.366 N 
HETATM    3  C   UNL     1      42.145 -13.571   3.771  1.00  0.00     0.123 A 
HETATM    4  N   UNL     1      40.823 -13.453   3.457  1.00  0.00    -0.240 N 
HETATM    5  N   UNL     1      40.135 -12.638   4.276  1.00  0.00    -0.165 NA
HETATM    6  C   UNL     1      41.097 -12.124   5.080  1.00  0.00     0.148 A 
HETATM    7  C   UNL     1      42.376 -12.670   4.775  1.00  0.00     0.088 A 
HETATM    8  C   UNL     1      40.182 -14.265   2.445  1.00  0.00     0.221 C 
HETATM    9  C   UNL     1      40.834 -15.654   2.446  1.00  0.00     0.066 C 
HETATM   10  H   UNL     1      43.911 -14.561   3.397  1.00  0.00     0.161 HD
ENDROOT
BRANCH   6  11
HETATM   11  C   UNL     1      40.793 -11.154   6.141  1.00  0.00     0.272 C 
HETATM   12  N   UNL     1      41.909 -10.715   6.808  1.00  0.00    -0.351 N 
HETATM   13  H   UNL     1      42.802 -11.034   6.442  1.00  0.00     0.163 HD
HETATM   14  O   UNL     1      39.655 -10.768   6.388  1.00  0.00    -0.266 OA
BRANCH  12  15
HETATM   15  C   UNL     1      41.850  -9.698   7.820  1.00  0.00     0.161 C 
BRANCH  15  16
HETATM   16  C   UNL     1      43.083  -9.719   8.686  1.00  0.00    -0.041 A 
HETATM   17  C   UNL     1      44.318 -10.130   8.167  1.00  0.00     0.009 A 
HETATM   18  C   UNL     1      45.457 -10.142   8.974  1.00  0.00     0.001 A 
HETATM   19  C   UNL     1      45.372  -9.741  10.306  1.00  0.00     0.000 A 
HETATM   20  C   UNL     1      44.152  -9.325  10.833  1.00  0.00     0.001 A 
HETATM   21  C   UNL     1      43.014  -9.309  10.027  1.00  0.00     0.009 A 
ENDBRANCH  15  16
ENDBRANCH  12  15
ENDBRANCH   6  11
BRANCH   8  22
HETATM   22  C   UNL     1      40.255 -13.586   1.098  1.00  0.00     0.409 C 
HETATM   23  F   UNL     1      39.155 -12.849   0.832  1.00  0.00    -0.169 F 
HETATM   24  F   UNL     1      41.334 -12.789   0.949  1.00  0.00    -0.169 F 
HETATM   25  F   UNL     1      40.333 -14.527   0.119  1.00  0.00    -0.169 F 
ENDBRANCH   8  22
BRANCH   1  26
HETATM   26  C   UNL     1      42.991 -16.867   2.959  1.00  0.00    -0.035 A 
HETATM   27  C   UNL     1      43.042 -18.044   2.190  1.00  0.00     0.012 A 
HETATM   28  C   UNL     1      43.606 -19.216   2.698  1.00  0.00     0.037 A 
HETATM   29  C   UNL     1      44.122 -19.238   3.991  1.00  0.00     0.068 A 
HETATM   30  C   UNL     1      44.045 -18.084   4.775  1.00  0.00     0.037 A 
HETATM   31  C   UNL     1      43.489 -16.905   4.266  1.00  0.00     0.012 A 
BRANCH  29  32
HETATM   32  O   UNL     1      44.702 -20.316   4.600  1.00  0.00    -0.356 OA
HETATM   33  C   UNL     1      43.947 -20.942   5.631  1.00  0.00     0.210 C 
ENDBRANCH  29  32
ENDBRANCH   1  26
TORSDOF 6
ENDMDL
MODEL 4
REMARK VINA RESULT:      -8.9      2.925      3.882
REMARK  6 active torsions:
REMARK  status: ('A' for Active; 'I' for Inactive)
REMARK    1  A    between atoms: O_2  and  C_3 
REMARK    2  A    between atoms: C_6  and  C_7 
REMARK    3  A    between atoms: C_12  and  C_13 
REMARK       I    between atoms: C_13  and  N_14 
REMARK    4  A    between atoms: N_14  and  C_15 
REMARK    5  A    between atoms: C_15  and  C_16 
REMARK    6  A    between atoms: C_24  and  C_25 
ROOT
HETATM    1  C   UNL     1      41.972 -14.404   3.907  1.00  0.00     0.118 C 
HETATM    2  N   UNL     1      43.076 -13.443   3.932  1.00  0.00    -0.366 N 
HETATM    3  C   UNL     1      43.283 -12.619   4.978  1.00  0.00     0.123 A 
HETATM    4  N   UNL     1      42.285 -12.358   5.871  1.00  0.00    -0.240 N 
HETATM    5  N   UNL     1      42.678 -11.639   6.937  1.00  0.00    -0.165 NA
HETATM    6  C   UNL     1      43.965 -11.331   6.646  1.00  0.00     0.148 A 
HETATM    7  C   UNL     1      44.371 -11.911   5.411  1.00  0.00     0.088 A 
HETATM    8  C   UNL     1      40.968 -12.948   5.769  1.00  0.00     0.221 C 
HETATM    9  C   UNL     1      41.107 -14.361   5.190  1.00  0.00     0.066 C 
HETATM   10  H   UNL     1      43.840 -13.658   3.290  1.00  0.00     0.161 HD
ENDROOT
BRANCH   6  11
HETATM   11  C   UNL     1      44.800 -10.527   7.549  1.00  0.00     0.272 C 
HETATM   12  N   UNL     1      44.177 -10.224   8.734  1.00  0.00    -0.351 N 
HETATM   13  H   UNL     1      43.270 -10.655   8.883  1.00  0.00     0.163 HD
HETATM   14  O   UNL     1      45.944 -10.180   7.271  1.00  0.00    -0.266 OA
BRANCH  12  15
HETATM   15  C   UNL     1      44.844  -9.524   9.796  1.00  0.00     0.161 C 
BRANCH  15  16
HETATM   16  C   UNL     1      43.981  -9.455  11.028  1.00  0.00    -0.041 A 
HETATM   17  C   UNL     1      43.497 -10.622  11.633  1.00  0.00     0.009 A 
HETATM   18  C   UNL     1      42.702 -10.550  12.778  1.00  0.00     0.001 A 
HETATM   19  C   UNL     1      42.384  -9.310  13.330  1.00  0.00     0.000 A 
HETATM   20  C   UNL     1      42.863  -8.142  12.742  1.00  0.00     0.001 A 
HETATM   21  C   UNL     1      43.662  -8.213  11.600  1.00  0.00     0.009 A 
ENDBRANCH  15  16
ENDBRANCH  12  15
ENDBRANCH   6  11
BRANCH   8  22
HETATM   22  C   UNL     1      40.056 -12.066   4.949  1.00  0.00     0.409 C 
HETATM   23  F   UNL     1      39.264 -11.287   5.717  1.00  0.00    -0.169 F 
HETATM   24  F   UNL     1      40.710 -11.265   4.081  1.00  0.00    -0.169 F 
HETATM   25  F   UNL     1      39.225 -12.843   4.204  1.00  0.00    -0.169 F 
ENDBRANCH   8  22
BRANCH   1  26
HETATM   26  C   UNL     1      42.558 -15.791   3.695  1.00  0.00    -0.035 A 
HETATM   27  C   UNL     1      43.408 -16.366   4.658  1.00  0.00     0.012 A 
HETATM   28  C   UNL     1      43.948 -17.641   4.477  1.00  0.00     0.037 A 
HETATM   29  C   UNL     1      43.659 -18.364   3.322  1.00  0.00     0.068 A 
HETATM   30  C   UNL     1      42.845 -17.788   2.344  1.00  0.00     0.037 A 
HETATM   31  C   UNL     1      42.293 -16.514   2.526  1.00  0.00     0.012 A 
BRANCH  29  32
HETATM   32  O   UNL     1      44.119 -19.617   3.029  1.00  0.00    -0.356 OA
HETATM   33  C   UNL     1      43.442 -20.313   1.989  1.00  0.00     0.210 C 
ENDBRANCH  29  32
ENDBRANCH   1  26
TORSDOF 6
ENDMDL
MODEL 5
REMARK VINA RESULT:      -8.8      3.869      5.695
REMARK  6 active torsions:
REMARK  status: ('A' for Active; 'I' for Inactive)
REMARK    1  A    between atoms: O_2  and  C_3 
REMARK    2  A    between atoms: C_6  and  C_7 
REMARK    3  A    between atoms: C_12  and  C_13 
REMARK       I    between atoms: C_13  and  N_14 
REMARK    4  A    between atoms: N_14  and  C_15 
REMARK    5  A    between atoms: C_15  and  C_16 
REMARK    6  A    between atoms: C_24  and  C_25 
ROOT
HETATM    1  C   UNL     1      41.476 -15.322   4.309  1.00  0.00     0.118 C 
HETATM    2  N   UNL     1      41.325 -14.089   5.085  1.00  0.00    -0.366 N 
HETATM    3  C   UNL     1      42.342 -13.560   5.792  1.00  0.00     0.123 A 
HETATM    4  N   UNL     1      43.421 -14.318   6.140  1.00  0.00    -0.240 N 
HETATM    5  N   UNL     1      44.418 -13.623   6.714  1.00  0.00    -0.165 NA
HETATM    6  C   UNL     1      43.895 -12.379   6.840  1.00  0.00     0.148 A 
HETATM    7  C   UNL     1      42.583 -12.310   6.292  1.00  0.00     0.088 A 
HETATM    8  C   UNL     1      43.554 -15.711   5.769  1.00  0.00     0.221 C 
HETATM    9  C   UNL     1      42.903 -15.915   4.394  1.00  0.00     0.066 C 
HETATM   10  H   UNL     1      40.539 -13.504   4.800  1.00  0.00     0.161 HD
ENDROOT
BRANCH   6  11
HETATM   11  C   UNL     1      44.649 -11.270   7.442  1.00  0.00     0.272 C 
HETATM   12  N   UNL     1      44.145 -10.869   8.653  1.00  0.00    -0.351 N 
HETATM   13  H   UNL     1      43.383 -11.428   9.027  1.00  0.00     0.163 HD
HETATM   14  O   UNL     1      45.640 -10.772   6.916  1.00  0.00    -0.266 OA
BRANCH  12  15
HETATM   15  C   UNL     1      44.782  -9.863   9.456  1.00  0.00     0.161 C 
BRANCH  15  16
HETATM   16  C   UNL     1      44.017  -9.618  10.730  1.00  0.00    -0.041 A 
HETATM   17  C   UNL     1      43.734  -8.315  11.160  1.00  0.00     0.009 A 
HETATM   18  C   UNL     1      43.020  -8.097  12.339  1.00  0.00     0.001 A 
HETATM   19  C   UNL     1      42.579  -9.179  13.099  1.00  0.00     0.000 A 
HETATM   20  C   UNL     1      42.849 -10.480  12.680  1.00  0.00     0.001 A 
HETATM   21  C   UNL     1      43.559 -10.700  11.500  1.00  0.00     0.009 A 
ENDBRANCH  15  16
ENDBRANCH  12  15
ENDBRANCH   6  11
BRANCH   8  22
HETATM   22  C   UNL     1      42.961 -16.602   6.835  1.00  0.00     0.409 C 
HETATM   23  F   UNL     1      41.996 -15.981   7.547  1.00  0.00    -0.169 F 
HETATM   24  F   UNL     1      42.447 -17.754   6.356  1.00  0.00    -0.169 F 
HETATM   25  F   UNL     1      43.930 -16.952   7.723  1.00  0.00    -0.169 F 
ENDBRANCH   8  22
BRANCH   1  26
HETATM   26  C   UNL     1      41.100 -15.020   2.866  1.00  0.00    -0.035 A 
HETATM   27  C   UNL     1      41.559 -13.850   2.234  1.00  0.00     0.012 A 
HETATM   28  C   UNL     1      41.225 -13.565   0.909  1.00  0.00     0.037 A 
HETATM   29  C   UNL     1      40.415 -14.440   0.190  1.00  0.00     0.068 A 
HETATM   30  C   UNL     1      39.925 -15.588   0.819  1.00  0.00     0.037 A 
HETATM   31  C   UNL     1      40.266 -15.881   2.144  1.00  0.00     0.012 A 
BRANCH  29  32
HETATM   32  O   UNL     1      40.021 -14.278  -1.109  1.00  0.00    -0.356 OA
HETATM   33  C   UNL     1      38.980 -13.337  -1.343  1.00  0.00     0.210 C 
ENDBRANCH  29  32
ENDBRANCH   1  26
TORSDOF 6
ENDMDL
MODEL 6
REMARK VINA RESULT:      -8.7      4.163      6.336
REMARK  6 active torsions:
REMARK  status: ('A' for Active; 'I' for Inactive)
REMARK    1  A    between atoms: O_2  and  C_3 
REMARK    2  A    between atoms: C_6  and  C_7 
REMARK    3  A    between atoms: C_12  and  C_13 
REMARK       I    between atoms: C_13  and  N_14 
REMARK    4  A    between atoms: N_14  and  C_15 
REMARK    5  A    between atoms: C_15  and  C_16 
REMARK    6  A    between atoms: C_24  and  C_25 
ROOT
HETATM    1  C   UNL     1      40.863 -15.351   3.302  1.00  0.00     0.118 C 
HETATM    2  N   UNL     1      40.303 -15.485   1.956  1.00  0.00    -0.366 N 
HETATM    3  C   UNL     1      40.342 -14.477   1.062  1.00  0.00     0.123 A 
HETATM    4  N   UNL     1      40.540 -13.189   1.467  1.00  0.00    -0.240 N 
HETATM    5  N   UNL     1      40.701 -12.316   0.458  1.00  0.00    -0.165 NA
HETATM    6  C   UNL     1      40.479 -13.072  -0.645  1.00  0.00     0.148 A 
HETATM    7  C   UNL     1      40.227 -14.430  -0.301  1.00  0.00     0.088 A 
HETATM    8  C   UNL     1      40.733 -12.825   2.854  1.00  0.00     0.221 C 
HETATM    9  C   UNL     1      41.490 -13.959   3.558  1.00  0.00     0.066 C 
HETATM   10  H   UNL     1      40.189 -16.448   1.638  1.00  0.00     0.161 HD
ENDROOT
BRANCH   6  11
HETATM   11  C   UNL     1      40.541 -12.512  -2.002  1.00  0.00     0.272 C 
HETATM   12  N   UNL     1      40.327 -11.157  -2.037  1.00  0.00    -0.351 N 
HETATM   13  H   UNL     1      40.243 -10.695  -1.136  1.00  0.00     0.163 HD
HETATM   14  O   UNL     1      40.776 -13.192  -2.996  1.00  0.00    -0.266 OA
BRANCH  12  15
HETATM   15  C   UNL     1      40.433 -10.393  -3.249  1.00  0.00     0.161 C 
BRANCH  15  16
HETATM   16  C   UNL     1      41.336  -9.201  -3.065  1.00  0.00    -0.041 A 
HETATM   17  C   UNL     1      41.552  -8.295  -4.111  1.00  0.00     0.009 A 
HETATM   18  C   UNL     1      42.386  -7.191  -3.930  1.00  0.00     0.001 A 
HETATM   19  C   UNL     1      43.009  -6.980  -2.701  1.00  0.00     0.000 A 
HETATM   20  C   UNL     1      42.798  -7.871  -1.651  1.00  0.00     0.001 A 
HETATM   21  C   UNL     1      41.962  -8.973  -1.829  1.00  0.00     0.009 A 
ENDBRANCH  15  16
ENDBRANCH  12  15
ENDBRANCH   6  11
BRANCH   8  22
HETATM   22  C   UNL     1      39.408 -12.511   3.508  1.00  0.00     0.409 C 
HETATM   23  F   UNL     1      39.173 -11.183   3.583  1.00  0.00    -0.169 F 
HETATM   24  F   UNL     1      38.351 -13.085   2.897  1.00  0.00    -0.169 F 
HETATM   25  F   UNL     1      39.413 -12.974   4.786  1.00  0.00    -0.169 F 
ENDBRANCH   8  22
BRANCH   1  26
HETATM   26  C   UNL     1      41.893 -16.453   3.496  1.00  0.00    -0.035 A 
HETATM   27  C   UNL     1      42.268 -17.282   2.423  1.00  0.00     0.012 A 
HETATM   28  C   UNL     1      43.216 -18.293   2.588  1.00  0.00     0.037 A 
HETATM   29  C   UNL     1      43.801 -18.505   3.834  1.00  0.00     0.068 A 
HETATM   30  C   UNL     1      43.410 -17.710   4.914  1.00  0.00     0.037 A 
HETATM   31  C   UNL     1      42.467 -16.689   4.750  1.00  0.00     0.012 A 
BRANCH  29  32
HETATM   32  O   UNL     1      44.741 -19.455   4.123  1.00  0.00    -0.356 OA
HETATM   33  C   UNL     1      44.365 -20.450   5.067  1.00  0.00     0.210 C 
ENDBRANCH  29  32
ENDBRANCH   1  26
TORSDOF 6
ENDMDL
MODEL 7
REMARK VINA RESULT:      -8.5      4.425     10.062
REMARK  6 active torsions:
REMARK  status: ('A' for Active; 'I' for Inactive)
REMARK    1  A    between atoms: O_2  and  C_3 
REMARK    2  A    between atoms: C_6  and  C_7 
REMARK    3  A    between atoms: C_12  and  C_13 
REMARK       I    between atoms: C_13  and  N_14 
REMARK    4  A    between atoms: N_14  and  C_15 
REMARK    5  A    between atoms: C_15  and  C_16 
REMARK    6  A    between atoms: C_24  and  C_25 
ROOT
HETATM    1  C   UNL     1      44.267  -8.716   9.278  1.00  0.00     0.118 C 
HETATM    2  N   UNL     1      43.267  -8.836   8.215  1.00  0.00    -0.366 N 
HETATM    3  C   UNL     1      43.036 -10.000   7.577  1.00  0.00     0.123 A 
HETATM    4  N   UNL     1      43.958 -11.006   7.602  1.00  0.00    -0.240 N 
HETATM    5  N   UNL     1      43.531 -12.154   7.049  1.00  0.00    -0.165 NA
HETATM    6  C   UNL     1      42.317 -11.823   6.546  1.00  0.00     0.148 A 
HETATM    7  C   UNL     1      41.985 -10.470   6.838  1.00  0.00     0.088 A 
HETATM    8  C   UNL     1      45.214 -10.901   8.313  1.00  0.00     0.221 C 
HETATM    9  C   UNL     1      44.995 -10.050   9.571  1.00  0.00     0.066 C 
HETATM   10  H   UNL     1      42.556  -8.103   8.218  1.00  0.00     0.161 HD
ENDROOT
BRANCH   6  11
HETATM   11  C   UNL     1      41.477 -12.792   5.827  1.00  0.00     0.272 C 
HETATM   12  N   UNL     1      41.515 -14.050   6.376  1.00  0.00    -0.351 N 
HETATM   13  H   UNL     1      42.034 -14.143   7.244  1.00  0.00     0.163 HD
HETATM   14  O   UNL     1      40.800 -12.494   4.848  1.00  0.00    -0.266 OA
BRANCH  12  15
HETATM   15  C   UNL     1      40.700 -15.127   5.887  1.00  0.00     0.161 C 
BRANCH  15  16
HETATM   16  C   UNL     1      41.404 -15.891   4.796  1.00  0.00    -0.041 A 
HETATM   17  C   UNL     1      40.869 -15.954   3.503  1.00  0.00     0.009 A 
HETATM   18  C   UNL     1      41.531 -16.660   2.497  1.00  0.00     0.001 A 
HETATM   19  C   UNL     1      42.734 -17.307   2.773  1.00  0.00     0.000 A 
HETATM   20  C   UNL     1      43.279 -17.248   4.053  1.00  0.00     0.001 A 
HETATM   21  C   UNL     1      42.622 -16.539   5.059  1.00  0.00     0.009 A 
ENDBRANCH  15  16
ENDBRANCH  12  15
ENDBRANCH   6  11
BRANCH   8  22
HETATM   22  C   UNL     1      46.288 -10.344   7.409  1.00  0.00     0.409 C 
HETATM   23  F   UNL     1      46.453  -9.012   7.564  1.00  0.00    -0.169 F 
HETATM   24  F   UNL     1      47.492 -10.932   7.569  1.00  0.00    -0.169 F 
HETATM   25  F   UNL     1      45.934 -10.540   6.111  1.00  0.00    -0.169 F 
ENDBRANCH   8  22
BRANCH   1  26
HETATM   26  C   UNL     1      43.571  -8.193  10.524  1.00  0.00    -0.035 A 
HETATM   27  C   UNL     1      42.859  -6.980  10.493  1.00  0.00     0.012 A 
HETATM   28  C   UNL     1      42.211  -6.492  11.629  1.00  0.00     0.037 A 
HETATM   29  C   UNL     1      42.271  -7.203  12.826  1.00  0.00     0.068 A 
HETATM   30  C   UNL     1      43.004  -8.391  12.876  1.00  0.00     0.037 A 
HETATM   31  C   UNL     1      43.646  -8.888  11.736  1.00  0.00     0.012 A 
BRANCH  29  32
HETATM   32  O   UNL     1      41.678  -6.836  14.002  1.00  0.00    -0.356 OA
HETATM   33  C   UNL     1      42.497  -6.881  15.164  1.00  0.00     0.210 C 
ENDBRANCH  29  32
ENDBRANCH   1  26
TORSDOF 6
ENDMDL
MODEL 8
REMARK VINA RESULT:      -8.3      3.811      7.446
REMARK  6 active torsions:
REMARK  status: ('A' for Active; 'I' for Inactive)
REMARK    1  A    between atoms: O_2  and  C_3 
REMARK    2  A    between atoms: C_6  and  C_7 
REMARK    3  A    between atoms: C_12  and  C_13 
REMARK       I    between atoms: C_13  and  N_14 
REMARK    4  A    between atoms: N_14  and  C_15 
REMARK    5  A    between atoms: C_15  and  C_16 
REMARK    6  A    between atoms: C_24  and  C_25 
ROOT
HETATM    1  C   UNL     1      42.177 -15.210   3.528  1.00  0.00     0.118 C 
HETATM    2  N   UNL     1      40.934 -15.433   2.787  1.00  0.00    -0.366 N 
HETATM    3  C   UNL     1      40.679 -14.818   1.616  1.00  0.00     0.123 A 
HETATM    4  N   UNL     1      41.357 -13.689   1.256  1.00  0.00    -0.240 N 
HETATM    5  N   UNL     1      41.102 -13.272   0.004  1.00  0.00    -0.165 NA
HETATM    6  C   UNL     1      40.124 -14.114  -0.409  1.00  0.00     0.148 A 
HETATM    7  C   UNL     1      39.817 -15.083   0.587  1.00  0.00     0.088 A 
HETATM    8  C   UNL     1      42.387 -13.097   2.083  1.00  0.00     0.221 C 
HETATM    9  C   UNL     1      43.131 -14.219   2.818  1.00  0.00     0.066 C 
HETATM   10  H   UNL     1      40.445 -16.296   3.029  1.00  0.00     0.161 HD
ENDROOT
BRANCH   6  11
HETATM   11  C   UNL     1      39.519 -14.014  -1.746  1.00  0.00     0.272 C 
HETATM   12  N   UNL     1      38.165 -13.793  -1.710  1.00  0.00    -0.351 N 
HETATM   13  H   UNL     1      37.762 -13.638  -0.791  1.00  0.00     0.163 HD
HETATM   14  O   UNL     1      40.170 -14.103  -2.783  1.00  0.00    -0.266 OA
BRANCH  12  15
HETATM   15  C   UNL     1      37.391 -13.573  -2.900  1.00  0.00     0.161 C 
BRANCH  15  16
HETATM   16  C   UNL     1      36.902 -12.150  -2.976  1.00  0.00    -0.041 A 
HETATM   17  C   UNL     1      37.736 -11.084  -2.614  1.00  0.00     0.009 A 
HETATM   18  C   UNL     1      37.277  -9.768  -2.692  1.00  0.00     0.001 A 
HETATM   19  C   UNL     1      35.982  -9.506  -3.135  1.00  0.00     0.000 A 
HETATM   20  C   UNL     1      35.145 -10.556  -3.503  1.00  0.00     0.001 A 
HETATM   21  C   UNL     1      35.603 -11.872  -3.430  1.00  0.00     0.009 A 
ENDBRANCH  15  16
ENDBRANCH  12  15
ENDBRANCH   6  11
BRANCH   8  22
HETATM   22  C   UNL     1      41.789 -12.077   3.023  1.00  0.00     0.409 C 
HETATM   23  F   UNL     1      41.865 -10.820   2.535  1.00  0.00    -0.169 F 
HETATM   24  F   UNL     1      40.500 -12.321   3.341  1.00  0.00    -0.169 F 
HETATM   25  F   UNL     1      42.481 -12.079   4.193  1.00  0.00    -0.169 F 
ENDBRANCH   8  22
BRANCH   1  26
HETATM   26  C   UNL     1      42.852 -16.558   3.734  1.00  0.00    -0.035 A 
HETATM   27  C   UNL     1      43.168 -17.378   2.635  1.00  0.00     0.012 A 
HETATM   28  C   UNL     1      43.792 -18.614   2.811  1.00  0.00     0.037 A 
HETATM   29  C   UNL     1      44.103 -19.062   4.092  1.00  0.00     0.068 A 
HETATM   30  C   UNL     1      43.762 -18.271   5.192  1.00  0.00     0.037 A 
HETATM   31  C   UNL     1      43.146 -17.027   5.019  1.00  0.00     0.012 A 
BRANCH  29  32
HETATM   32  O   UNL     1      44.716 -20.246   4.397  1.00  0.00    -0.356 OA
HETATM   33  C   UNL     1      44.173 -20.977   5.491  1.00  0.00     0.210 C 
ENDBRANCH  29  32
ENDBRANCH   1  26
TORSDOF 6
ENDMDL
MODEL 9
REMARK VINA RESULT:      -8.1      4.071      7.338
REMARK  6 active torsions:
REMARK  status: ('A' for Active; 'I' for Inactive)
REMARK    1  A    between atoms: O_2  and  C_3 
REMARK    2  A    between atoms: C_6  and  C_7 
REMARK    3  A    between atoms: C_12  and  C_13 
REMARK       I    between atoms: C_13  and  N_14 
REMARK    4  A    between atoms: N_14  and  C_15 
REMARK    5  A    between atoms: C_15  and  C_16 
REMARK    6  A    between atoms: C_24  and  C_25 
ROOT
HETATM    1  C   UNL     1      40.908 -15.365   3.387  1.00  0.00     0.118 C 
HETATM    2  N   UNL     1      40.324 -15.544   2.056  1.00  0.00    -0.366 N 
HETATM    3  C   UNL     1      40.348 -14.568   1.127  1.00  0.00     0.123 A 
HETATM    4  N   UNL     1      40.555 -13.267   1.484  1.00  0.00    -0.240 N 
HETATM    5  N   UNL     1      40.699 -12.429   0.443  1.00  0.00    -0.165 NA
HETATM    6  C   UNL     1      40.456 -13.223  -0.629  1.00  0.00     0.148 A 
HETATM    7  C   UNL     1      40.208 -14.567  -0.234  1.00  0.00     0.088 A 
HETATM    8  C   UNL     1      40.774 -12.856   2.854  1.00  0.00     0.221 C 
HETATM    9  C   UNL     1      41.541 -13.967   3.583  1.00  0.00     0.066 C 
HETATM   10  H   UNL     1      40.203 -16.517   1.774  1.00  0.00     0.161 HD
ENDROOT
BRANCH   6  11
HETATM   11  C   UNL     1      40.493 -12.710  -2.006  1.00  0.00     0.272 C 
HETATM   12  N   UNL     1      40.336 -11.348  -2.079  1.00  0.00    -0.351 N 
HETATM   13  H   UNL     1      40.303 -10.854  -1.192  1.00  0.00     0.163 HD
HETATM   14  O   UNL     1      40.665 -13.430  -2.984  1.00  0.00    -0.266 OA
BRANCH  12  15
HETATM   15  C   UNL     1      40.431 -10.629  -3.319  1.00  0.00     0.161 C 
BRANCH  15  16
HETATM   16  C   UNL     1      39.103 -10.032  -3.705  1.00  0.00    -0.041 A 
HETATM   17  C   UNL     1      39.020  -9.045  -4.695  1.00  0.00     0.009 A 
HETATM   18  C   UNL     1      37.784  -8.501  -5.050  1.00  0.00     0.001 A 
HETATM   19  C   UNL     1      36.621  -8.941  -4.422  1.00  0.00     0.000 A 
HETATM   20  C   UNL     1      36.689  -9.926  -3.440  1.00  0.00     0.001 A 
HETATM   21  C   UNL     1      37.922 -10.474  -3.086  1.00  0.00     0.009 A 
ENDBRANCH  15  16
ENDBRANCH  12  15
ENDBRANCH   6  11
BRANCH   8  22
HETATM   22  C   UNL     1      39.461 -12.517   3.521  1.00  0.00     0.409 C 
HETATM   23  F   UNL     1      39.381 -13.004   4.778  1.00  0.00    -0.169 F 
HETATM   24  F   UNL     1      39.203 -11.193   3.571  1.00  0.00    -0.169 F 
HETATM   25  F   UNL     1      38.440 -13.082   2.823  1.00  0.00    -0.169 F 
ENDBRANCH   8  22
BRANCH   1  26
HETATM   26  C   UNL     1      41.940 -16.462   3.600  1.00  0.00    -0.035 A 
HETATM   27  C   UNL     1      42.372 -17.260   2.524  1.00  0.00     0.012 A 
HETATM   28  C   UNL     1      43.323 -18.266   2.706  1.00  0.00     0.037 A 
HETATM   29  C   UNL     1      43.854 -18.503   3.972  1.00  0.00     0.068 A 
HETATM   30  C   UNL     1      43.405 -17.740   5.053  1.00  0.00     0.037 A 
HETATM   31  C   UNL     1      42.460 -16.724   4.872  1.00  0.00     0.012 A 
BRANCH  29  32
HETATM   32  O   UNL     1      44.790 -19.451   4.280  1.00  0.00    -0.356 OA
HETATM   33  C   UNL     1      44.351 -20.533   5.094  1.00  0.00     0.210 C 
ENDBRANCH  29  32
ENDBRANCH   1  26
TORSDOF 6
ENDMDL
MODEL 10
REMARK VINA RESULT:      -8.0      2.017      2.973
REMARK  6 active torsions:
REMARK  status: ('A' for Active; 'I' for Inactive)
REMARK    1  A    between atoms: O_2  and  C_3 
REMARK    2  A    between atoms: C_6  and  C_7 
REMARK    3  A    between atoms: C_12  and  C_13 
REMARK       I    between atoms: C_13  and  N_14 
REMARK    4  A    between atoms: N_14  and  C_15 
REMARK    5  A    between atoms: C_15  and  C_16 
REMARK    6  A    between atoms: C_24  and  C_25 
ROOT
HETATM    1  C   UNL     1      42.131 -15.343   2.743  1.00  0.00     0.118 C 
HETATM    2  N   UNL     1      43.056 -14.254   3.065  1.00  0.00    -0.366 N 
HETATM    3  C   UNL     1      42.703 -13.228   3.863  1.00  0.00     0.123 A 
HETATM    4  N   UNL     1      41.389 -12.940   4.093  1.00  0.00    -0.240 N 
HETATM    5  N   UNL     1      41.190 -11.988   5.020  1.00  0.00    -0.165 NA
HETATM    6  C   UNL     1      42.447 -11.570   5.309  1.00  0.00     0.148 A 
HETATM    7  C   UNL     1      43.420 -12.311   4.582  1.00  0.00     0.088 A 
HETATM    8  C   UNL     1      40.306 -13.711   3.520  1.00  0.00     0.221 C 
HETATM    9  C   UNL     1      40.749 -15.177   3.418  1.00  0.00     0.066 C 
HETATM   10  H   UNL     1      44.042 -14.481   2.928  1.00  0.00     0.161 HD
ENDROOT
BRANCH   6  11
HETATM   11  C   UNL     1      42.711 -10.505   6.287  1.00  0.00     0.272 C 
HETATM   12  N   UNL     1      41.642  -9.665   6.472  1.00  0.00    -0.351 N 
HETATM   13  H   UNL     1      40.784  -9.922   5.993  1.00  0.00     0.163 HD
HETATM   14  O   UNL     1      43.777 -10.395   6.885  1.00  0.00    -0.266 OA
BRANCH  12  15
HETATM   15  C   UNL     1      41.652  -8.611   7.448  1.00  0.00     0.161 C 
BRANCH  15  16
HETATM   16  C   UNL     1      40.981  -9.044   8.724  1.00  0.00    -0.041 A 
HETATM   17  C   UNL     1      41.655  -8.975   9.950  1.00  0.00     0.009 A 
HETATM   18  C   UNL     1      41.023  -9.374  11.130  1.00  0.00     0.001 A 
HETATM   19  C   UNL     1      39.712  -9.844  11.095  1.00  0.00     0.000 A 
HETATM   20  C   UNL     1      39.029  -9.914   9.883  1.00  0.00     0.001 A 
HETATM   21  C   UNL     1      39.656  -9.511   8.704  1.00  0.00     0.009 A 
ENDBRANCH  15  16
ENDBRANCH  12  15
ENDBRANCH   6  11
BRANCH   8  22
HETATM   22  C   UNL     1      39.891 -13.131   2.189  1.00  0.00     0.409 C 
HETATM   23  F   UNL     1      39.659 -14.084   1.261  1.00  0.00    -0.169 F 
HETATM   24  F   UNL     1      38.796 -12.344   2.257  1.00  0.00    -0.169 F 
HETATM   25  F   UNL     1      40.893 -12.353   1.701  1.00  0.00    -0.169 F 
ENDBRANCH   8  22
BRANCH   1  26
HETATM   26  C   UNL     1      42.783 -16.653   3.159  1.00  0.00    -0.035 A 
HETATM   27  C   UNL     1      43.306 -16.816   4.454  1.00  0.00     0.012 A 
HETATM   28  C   UNL     1      43.901 -18.016   4.849  1.00  0.00     0.037 A 
HETATM   29  C   UNL     1      43.996 -19.076   3.950  1.00  0.00     0.068 A 
HETATM   30  C   UNL     1      43.511 -18.912   2.651  1.00  0.00     0.037 A 
HETATM   31  C   UNL     1      42.905 -17.714   2.255  1.00  0.00     0.012 A 
BRANCH  29  32
HETATM   32  O   UNL     1      44.549 -20.298   4.214  1.00  0.00    -0.356 OA
HETATM   33  C   UNL     1      44.155 -20.921   5.431  1.00  0.00     0.210 C 
ENDBRANCH  29  32
ENDBRANCH   1  26
TORSDOF 6
ENDMDL
