MODEL 1
REMARK VINA RESULT:      -9.4      0.000      0.000
REMARK  5 active torsions:
REMARK  status: ('A' for Active; 'I' for Inactive)
REMARK    1  A    between atoms: C_3  and  C_4 
REMARK    2  A    between atoms: C_6  and  N_7 
REMARK       I    between atoms: N_7  and  C_8 
REMARK    3  A    between atoms: C_8  and  C_9 
REMARK    4  A    between atoms: C_14  and  O_15 
REMARK    5  A    between atoms: O_15  and  C_16 
ROOT
HETATM    1  N   UNL     1      44.412 -13.042   6.469  1.00  0.00    -0.322 N 
HETATM    2  C   UNL     1      43.754 -14.187   6.885  1.00  0.00     0.272 C 
HETATM    3  O   UNL     1      43.291 -14.355   8.011  1.00  0.00    -0.266 OA
HETATM    4  H   UNL     1      44.841 -13.079   5.554  1.00  0.00     0.169 HD
ENDROOT
BRANCH   2   5
HETATM    5  C   UNL     1      43.673 -15.236   5.887  1.00  0.00     0.102 A 
HETATM    6  N   UNL     1      43.019 -15.032   4.688  1.00  0.00    -0.351 N 
HETATM    7  H   UNL     1      42.570 -14.161   4.435  1.00  0.00     0.166 HD
HETATM    8  C   UNL     1      43.066 -16.153   3.896  1.00  0.00     0.045 A 
HETATM    9  C   UNL     1      43.782 -17.119   4.596  1.00  0.00     0.026 A 
HETATM   10  C   UNL     1      42.540 -16.378   2.620  1.00  0.00     0.030 A 
HETATM   11  C   UNL     1      43.988 -18.387   4.008  1.00  0.00     0.087 A 
HETATM   12  C   UNL     1      44.160 -16.532   5.841  1.00  0.00     0.052 A 
HETATM   13  C   UNL     1      43.492 -18.615   2.715  1.00  0.00     0.038 A 
HETATM   14  C   UNL     1      42.773 -17.627   2.040  1.00  0.00     0.005 A 
BRANCH  11  15
HETATM   15  O   UNL     1      44.711 -19.310   4.717  1.00  0.00    -0.289 OA
BRANCH  15  16
HETATM   16  C   UNL     1      43.927 -20.345   5.291  1.00  0.00     0.505 C 
HETATM   17  F   UNL     1      44.747 -21.365   5.650  1.00  0.00    -0.184 F 
HETATM   18  F   UNL     1      43.394 -19.852   6.437  1.00  0.00    -0.184 F 
ENDBRANCH  15  16
ENDBRANCH  11  15
ENDBRANCH   2   5
BRANCH   1  19
HETATM   19  C   UNL     1      44.641 -11.869   7.218  1.00  0.00     0.035 A 
HETATM   20  C   UNL     1      43.729 -11.356   8.144  1.00  0.00     0.044 A 
HETATM   21  C   UNL     1      44.027 -10.219   8.900  1.00  0.00     0.010 A 
HETATM   22  C   UNL     1      45.238  -9.552   8.685  1.00  0.00     0.015 A 
HETATM   23  C   UNL     1      46.141 -10.036   7.738  1.00  0.00     0.003 A 
HETATM   24  C   UNL     1      45.845 -11.190   7.010  1.00  0.00     0.029 A 
BRANCH  21  25
HETATM   25  C   UNL     1      43.053  -9.691   9.931  1.00  0.00     0.117 A 
HETATM   26  N   UNL     1      42.390  -8.508  10.010  1.00  0.00    -0.346 N 
HETATM   27  C   UNL     1      42.353  -7.446   9.002  1.00  0.00     0.157 C 
HETATM   28  C   UNL     1      41.655  -8.454  11.192  1.00  0.00     0.109 A 
HETATM   29  C   UNL     1      41.822  -9.647  11.820  1.00  0.00     0.107 A 
HETATM   30  N   UNL     1      42.655 -10.381  11.019  1.00  0.00    -0.350 N 
HETATM   31  H   UNL     1      42.993 -11.311  11.242  1.00  0.00     0.166 HD
ENDBRANCH  21  25
ENDBRANCH   1  19
TORSDOF 5
ENDMDL
MODEL 2
REMARK VINA RESULT:      -9.1      2.461      3.046
REMARK  5 active torsions:
REMARK  status: ('A' for Active; 'I' for Inactive)
REMARK    1  A    between atoms: C_3  and  C_4 
REMARK    2  A    between atoms: C_6  and  N_7 
REMARK       I    between atoms: N_7  and  C_8 
REMARK    3  A    between atoms: C_8  and  C_9 
REMARK    4  A    between atoms: C_14  and  O_15 
REMARK    5  A    between atoms: O_15  and  C_16 
ROOT
HETATM    1  N   UNL     1      44.249 -12.758   6.369  1.00  0.00    -0.322 N 
HETATM    2  C   UNL     1      43.656 -13.960   6.715  1.00  0.00     0.272 C 
HETATM    3  O   UNL     1      43.369 -14.290   7.863  1.00  0.00    -0.266 OA
HETATM    4  H   UNL     1      44.534 -12.661   5.403  1.00  0.00     0.169 HD
ENDROOT
BRANCH   2   5
HETATM    5  C   UNL     1      43.418 -14.860   5.603  1.00  0.00     0.102 A 
HETATM    6  N   UNL     1      43.941 -16.137   5.593  1.00  0.00    -0.351 N 
HETATM    7  H   UNL     1      44.506 -16.518   6.341  1.00  0.00     0.166 HD
HETATM    8  C   UNL     1      43.591 -16.812   4.449  1.00  0.00     0.045 A 
HETATM    9  C   UNL     1      42.805 -15.950   3.690  1.00  0.00     0.026 A 
HETATM   10  C   UNL     1      43.902 -18.112   4.038  1.00  0.00     0.030 A 
HETATM   11  C   UNL     1      42.299 -16.392   2.447  1.00  0.00     0.087 A 
HETATM   12  C   UNL     1      42.701 -14.731   4.425  1.00  0.00     0.052 A 
HETATM   13  C   UNL     1      42.577 -17.705   2.038  1.00  0.00     0.038 A 
HETATM   14  C   UNL     1      43.373 -18.544   2.819  1.00  0.00     0.005 A 
BRANCH  11  15
HETATM   15  O   UNL     1      41.514 -15.525   1.732  1.00  0.00    -0.289 OA
BRANCH  15  16
HETATM   16  C   UNL     1      40.200 -15.999   1.486  1.00  0.00     0.505 C 
HETATM   17  F   UNL     1      39.399 -15.618   2.512  1.00  0.00    -0.184 F 
HETATM   18  F   UNL     1      39.745 -15.359   0.379  1.00  0.00    -0.184 F 
ENDBRANCH  15  16
ENDBRANCH  11  15
ENDBRANCH   2   5
BRANCH   1  19
HETATM   19  C   UNL     1      44.597 -11.697   7.231  1.00  0.00     0.035 A 
HETATM   20  C   UNL     1      43.761 -11.222   8.244  1.00  0.00     0.044 A 
HETATM   21  C   UNL     1      44.173 -10.204   9.107  1.00  0.00     0.010 A 
HETATM   22  C   UNL     1      45.427  -9.612   8.916  1.00  0.00     0.015 A 
HETATM   23  C   UNL     1      46.257 -10.055   7.885  1.00  0.00     0.003 A 
HETATM   24  C   UNL     1      45.845 -11.094   7.048  1.00  0.00     0.029 A 
BRANCH  21  25
HETATM   25  C   UNL     1      43.280  -9.721  10.229  1.00  0.00     0.117 A 
HETATM   26  N   UNL     1      42.808  -8.482  10.525  1.00  0.00    -0.346 N 
HETATM   27  C   UNL     1      42.950  -7.267   9.721  1.00  0.00     0.157 C 
HETATM   28  C   UNL     1      42.074  -8.525  11.707  1.00  0.00     0.109 A 
HETATM   29  C   UNL     1      42.045  -9.821  12.112  1.00  0.00     0.107 A 
HETATM   30  N   UNL     1      42.765 -10.522  11.183  1.00  0.00    -0.350 N 
HETATM   31  H   UNL     1      42.950 -11.518  11.233  1.00  0.00     0.166 HD
ENDBRANCH  21  25
ENDBRANCH   1  19
TORSDOF 5
ENDMDL
MODEL 3
REMARK VINA RESULT:      -9.1      5.784      8.843
REMARK  5 active torsions:
REMARK  status: ('A' for Active; 'I' for Inactive)
REMARK    1  A    between atoms: C_3  and  C_4 
REMARK    2  A    between atoms: C_6  and  N_7 
REMARK       I    between atoms: N_7  and  C_8 
REMARK    3  A    between atoms: C_8  and  C_9 
REMARK    4  A    between atoms: C_14  and  O_15 
REMARK    5  A    between atoms: O_15  and  C_16 
ROOT
HETATM    1  N   UNL     1      40.780 -14.809   0.220  1.00  0.00    -0.322 N 
HETATM    2  C   UNL     1      40.487 -14.746   1.572  1.00  0.00     0.272 C 
HETATM    3  O   UNL     1      39.629 -14.018   2.066  1.00  0.00    -0.266 OA
HETATM    4  H   UNL     1      41.584 -15.365  -0.039  1.00  0.00     0.169 HD
ENDROOT
BRANCH   2   5
HETATM    5  C   UNL     1      41.311 -15.594   2.410  1.00  0.00     0.102 A 
HETATM    6  N   UNL     1      41.308 -15.461   3.784  1.00  0.00    -0.351 N 
HETATM    7  H   UNL     1      40.744 -14.784   4.281  1.00  0.00     0.166 HD
HETATM    8  C   UNL     1      42.158 -16.363   4.376  1.00  0.00     0.045 A 
HETATM    9  C   UNL     1      42.729 -17.118   3.356  1.00  0.00     0.026 A 
HETATM   10  C   UNL     1      42.453 -16.571   5.726  1.00  0.00     0.030 A 
HETATM   11  C   UNL     1      43.654 -18.134   3.683  1.00  0.00     0.087 A 
HETATM   12  C   UNL     1      42.190 -16.628   2.128  1.00  0.00     0.052 A 
HETATM   13  C   UNL     1      43.935 -18.374   5.037  1.00  0.00     0.038 A 
HETATM   14  C   UNL     1      43.350 -17.597   6.038  1.00  0.00     0.005 A 
BRANCH  11  15
HETATM   15  O   UNL     1      44.186 -18.869   2.656  1.00  0.00    -0.289 OA
BRANCH  15  16
HETATM   16  C   UNL     1      43.599 -20.151   2.496  1.00  0.00     0.505 C 
HETATM   17  F   UNL     1      42.374 -20.003   1.932  1.00  0.00    -0.184 F 
HETATM   18  F   UNL     1      44.360 -20.829   1.599  1.00  0.00    -0.184 F 
ENDBRANCH  15  16
ENDBRANCH  11  15
ENDBRANCH   2   5
BRANCH   1  19
HETATM   19  C   UNL     1      40.150 -14.102  -0.825  1.00  0.00     0.035 A 
HETATM   20  C   UNL     1      40.422 -12.764  -1.123  1.00  0.00     0.044 A 
HETATM   21  C   UNL     1      39.809 -12.123  -2.203  1.00  0.00     0.010 A 
HETATM   22  C   UNL     1      38.865 -12.819  -2.966  1.00  0.00     0.015 A 
HETATM   23  C   UNL     1      38.560 -14.145  -2.656  1.00  0.00     0.003 A 
HETATM   24  C   UNL     1      39.201 -14.784  -1.592  1.00  0.00     0.029 A 
BRANCH  21  25
HETATM   25  C   UNL     1      40.138 -10.686  -2.546  1.00  0.00     0.117 A 
HETATM   26  N   UNL     1      39.764  -9.520  -1.961  1.00  0.00    -0.346 N 
HETATM   27  C   UNL     1      39.015  -9.358  -0.712  1.00  0.00     0.157 C 
HETATM   28  C   UNL     1      40.265  -8.442  -2.686  1.00  0.00     0.109 A 
HETATM   29  C   UNL     1      41.009  -8.956  -3.700  1.00  0.00     0.107 A 
HETATM   30  N   UNL     1      40.929 -10.316  -3.573  1.00  0.00    -0.350 N 
HETATM   31  H   UNL     1      41.358 -10.978  -4.211  1.00  0.00     0.166 HD
ENDBRANCH  21  25
ENDBRANCH   1  19
TORSDOF 5
ENDMDL
MODEL 4
REMARK VINA RESULT:      -8.6      1.673      2.211
REMARK  5 active torsions:
REMARK  status: ('A' for Active; 'I' for Inactive)
REMARK    1  A    between atoms: C_3  and  C_4 
REMARK    2  A    between atoms: C_6  and  N_7 
REMARK       I    between atoms: N_7  and  C_8 
REMARK    3  A    between atoms: C_8  and  C_9 
REMARK    4  A    between atoms: C_14  and  O_15 
REMARK    5  A    between atoms: O_15  and  C_16 
ROOT
HETATM    1  N   UNL     1      44.368 -12.052   6.608  1.00  0.00    -0.322 N 
HETATM    2  C   UNL     1      43.499 -11.961   5.534  1.00  0.00     0.272 C 
HETATM    3  O   UNL     1      42.901 -10.939   5.206  1.00  0.00    -0.266 OA
HETATM    4  H   UNL     1      44.705 -12.979   6.834  1.00  0.00     0.169 HD
ENDROOT
BRANCH   2   5
HETATM    5  C   UNL     1      43.298 -13.202   4.811  1.00  0.00     0.102 A 
HETATM    6  N   UNL     1      43.253 -13.226   3.432  1.00  0.00    -0.351 N 
HETATM    7  H   UNL     1      43.359 -12.403   2.852  1.00  0.00     0.166 HD
HETATM    8  C   UNL     1      43.055 -14.500   2.959  1.00  0.00     0.045 A 
HETATM    9  C   UNL     1      42.977 -15.339   4.067  1.00  0.00     0.026 A 
HETATM   10  C   UNL     1      42.950 -14.969   1.647  1.00  0.00     0.030 A 
HETATM   11  C   UNL     1      42.775 -16.724   3.872  1.00  0.00     0.087 A 
HETATM   12  C   UNL     1      43.132 -14.514   5.222  1.00  0.00     0.052 A 
HETATM   13  C   UNL     1      42.699 -17.211   2.558  1.00  0.00     0.038 A 
HETATM   14  C   UNL     1      42.776 -16.344   1.467  1.00  0.00     0.005 A 
BRANCH  11  15
HETATM   15  O   UNL     1      42.719 -17.524   4.983  1.00  0.00    -0.289 OA
BRANCH  15  16
HETATM   16  C   UNL     1      43.835 -18.388   5.132  1.00  0.00     0.505 C 
HETATM   17  F   UNL     1      44.930 -17.640   5.415  1.00  0.00    -0.184 F 
HETATM   18  F   UNL     1      43.598 -19.159   6.224  1.00  0.00    -0.184 F 
ENDBRANCH  15  16
ENDBRANCH  11  15
ENDBRANCH   2   5
BRANCH   1  19
HETATM   19  C   UNL     1      44.752 -11.018   7.487  1.00  0.00     0.035 A 
HETATM   20  C   UNL     1      43.961 -10.579   8.552  1.00  0.00     0.044 A 
HETATM   21  C   UNL     1      44.410  -9.586   9.427  1.00  0.00     0.010 A 
HETATM   22  C   UNL     1      45.651  -8.983   9.198  1.00  0.00     0.015 A 
HETATM   23  C   UNL     1      46.435  -9.390   8.117  1.00  0.00     0.003 A 
HETATM   24  C   UNL     1      45.988 -10.404   7.267  1.00  0.00     0.029 A 
BRANCH  21  25
HETATM   25  C   UNL     1      43.567  -9.143  10.603  1.00  0.00     0.117 A 
HETATM   26  N   UNL     1      43.153  -9.814  11.709  1.00  0.00    -0.346 N 
HETATM   27  C   UNL     1      43.545 -11.163  12.123  1.00  0.00     0.157 C 
HETATM   28  C   UNL     1      42.330  -8.997  12.479  1.00  0.00     0.109 A 
HETATM   29  C   UNL     1      42.284  -7.785  11.866  1.00  0.00     0.107 A 
HETATM   30  N   UNL     1      43.062  -7.901  10.746  1.00  0.00    -0.350 N 
HETATM   31  H   UNL     1      43.196  -7.164  10.062  1.00  0.00     0.166 HD
ENDBRANCH  21  25
ENDBRANCH   1  19
TORSDOF 5
ENDMDL
MODEL 5
REMARK VINA RESULT:      -8.4      2.166      2.635
REMARK  5 active torsions:
REMARK  status: ('A' for Active; 'I' for Inactive)
REMARK    1  A    between atoms: C_3  and  C_4 
REMARK    2  A    between atoms: C_6  and  N_7 
REMARK       I    between atoms: N_7  and  C_8 
REMARK    3  A    between atoms: C_8  and  C_9 
REMARK    4  A    between atoms: C_14  and  O_15 
REMARK    5  A    between atoms: O_15  and  C_16 
ROOT
HETATM    1  N   UNL     1      43.685 -11.890   6.335  1.00  0.00    -0.322 N 
HETATM    2  C   UNL     1      43.340 -13.213   6.555  1.00  0.00     0.272 C 
HETATM    3  O   UNL     1      43.601 -13.840   7.579  1.00  0.00    -0.266 OA
HETATM    4  H   UNL     1      43.509 -11.529   5.406  1.00  0.00     0.169 HD
ENDROOT
BRANCH   2   5
HETATM    5  C   UNL     1      42.656 -13.852   5.448  1.00  0.00     0.102 A 
HETATM    6  N   UNL     1      41.737 -13.163   4.682  1.00  0.00    -0.351 N 
HETATM    7  H   UNL     1      41.492 -12.194   4.836  1.00  0.00     0.166 HD
HETATM    8  C   UNL     1      41.215 -13.959   3.691  1.00  0.00     0.045 A 
HETATM    9  C   UNL     1      41.819 -15.207   3.808  1.00  0.00     0.026 A 
HETATM   10  C   UNL     1      40.269 -13.666   2.705  1.00  0.00     0.030 A 
HETATM   11  C   UNL     1      41.465 -16.233   2.904  1.00  0.00     0.087 A 
HETATM   12  C   UNL     1      42.722 -15.128   4.911  1.00  0.00     0.052 A 
HETATM   13  C   UNL     1      40.540 -15.943   1.890  1.00  0.00     0.038 A 
HETATM   14  C   UNL     1      39.947 -14.682   1.801  1.00  0.00     0.005 A 
BRANCH  11  15
HETATM   15  O   UNL     1      42.090 -17.445   3.036  1.00  0.00    -0.289 OA
BRANCH  15  16
HETATM   16  C   UNL     1      43.205 -17.620   2.176  1.00  0.00     0.505 C 
HETATM   17  F   UNL     1      43.563 -16.412   1.676  1.00  0.00    -0.184 F 
HETATM   18  F   UNL     1      44.240 -18.044   2.946  1.00  0.00    -0.184 F 
ENDBRANCH  15  16
ENDBRANCH  11  15
ENDBRANCH   2   5
BRANCH   1  19
HETATM   19  C   UNL     1      44.352 -11.022   7.224  1.00  0.00     0.035 A 
HETATM   20  C   UNL     1      43.724 -10.393   8.302  1.00  0.00     0.044 A 
HETATM   21  C   UNL     1      44.441  -9.583   9.187  1.00  0.00     0.010 A 
HETATM   22  C   UNL     1      45.802  -9.354   8.955  1.00  0.00     0.015 A 
HETATM   23  C   UNL     1      46.432  -9.950   7.861  1.00  0.00     0.003 A 
HETATM   24  C   UNL     1      45.711 -10.781   7.001  1.00  0.00     0.029 A 
BRANCH  21  25
HETATM   25  C   UNL     1      43.765  -8.937  10.376  1.00  0.00     0.117 A 
HETATM   26  N   UNL     1      43.226  -7.700  10.535  1.00  0.00    -0.346 N 
HETATM   27  C   UNL     1      43.043  -6.677   9.504  1.00  0.00     0.157 C 
HETATM   28  C   UNL     1      42.780  -7.542  11.845  1.00  0.00     0.109 A 
HETATM   29  C   UNL     1      42.994  -8.721  12.484  1.00  0.00     0.107 A 
HETATM   30  N   UNL     1      43.571  -9.550  11.561  1.00  0.00    -0.350 N 
HETATM   31  H   UNL     1      43.880 -10.497  11.754  1.00  0.00     0.166 HD
ENDBRANCH  21  25
ENDBRANCH   1  19
TORSDOF 5
ENDMDL
MODEL 6
REMARK VINA RESULT:      -8.3      4.610      5.260
REMARK  5 active torsions:
REMARK  status: ('A' for Active; 'I' for Inactive)
REMARK    1  A    between atoms: C_3  and  C_4 
REMARK    2  A    between atoms: C_6  and  N_7 
REMARK       I    between atoms: N_7  and  C_8 
REMARK    3  A    between atoms: C_8  and  C_9 
REMARK    4  A    between atoms: C_14  and  O_15 
REMARK    5  A    between atoms: O_15  and  C_16 
ROOT
HETATM    1  N   UNL     1      43.491 -12.081   5.418  1.00  0.00    -0.322 N 
HETATM    2  C   UNL     1      42.827 -11.424   4.395  1.00  0.00     0.272 C 
HETATM    3  O   UNL     1      42.748 -10.203   4.287  1.00  0.00    -0.266 OA
HETATM    4  H   UNL     1      43.384 -13.086   5.448  1.00  0.00     0.169 HD
ENDROOT
BRANCH   2   5
HETATM    5  C   UNL     1      42.173 -12.297   3.440  1.00  0.00     0.102 A 
HETATM    6  N   UNL     1      41.710 -13.543   3.811  1.00  0.00    -0.351 N 
HETATM    7  H   UNL     1      41.792 -13.916   4.747  1.00  0.00     0.166 HD
HETATM    8  C   UNL     1      41.126 -14.195   2.752  1.00  0.00     0.045 A 
HETATM    9  C   UNL     1      41.202 -13.343   1.655  1.00  0.00     0.026 A 
HETATM   10  C   UNL     1      40.535 -15.460   2.688  1.00  0.00     0.030 A 
HETATM   11  C   UNL     1      40.669 -13.764   0.415  1.00  0.00     0.087 A 
HETATM   12  C   UNL     1      41.858 -12.155   2.098  1.00  0.00     0.052 A 
HETATM   13  C   UNL     1      40.045 -15.019   0.346  1.00  0.00     0.038 A 
HETATM   14  C   UNL     1      39.989 -15.854   1.463  1.00  0.00     0.005 A 
BRANCH  11  15
HETATM   15  O   UNL     1      40.745 -12.895  -0.641  1.00  0.00    -0.289 OA
BRANCH  15  16
HETATM   16  C   UNL     1      39.487 -12.551  -1.201  1.00  0.00     0.505 C 
HETATM   17  F   UNL     1      38.740 -11.935  -0.250  1.00  0.00    -0.184 F 
HETATM   18  F   UNL     1      39.720 -11.629  -2.169  1.00  0.00    -0.184 F 
ENDBRANCH  15  16
ENDBRANCH  11  15
ENDBRANCH   2   5
BRANCH   1  19
HETATM   19  C   UNL     1      44.211 -11.499   6.481  1.00  0.00     0.035 A 
HETATM   20  C   UNL     1      43.616 -11.069   7.670  1.00  0.00     0.044 A 
HETATM   21  C   UNL     1      44.381 -10.547   8.716  1.00  0.00     0.010 A 
HETATM   22  C   UNL     1      45.762 -10.402   8.548  1.00  0.00     0.015 A 
HETATM   23  C   UNL     1      46.363 -10.796   7.351  1.00  0.00     0.003 A 
HETATM   24  C   UNL     1      45.592 -11.344   6.324  1.00  0.00     0.029 A 
BRANCH  21  25
HETATM   25  C   UNL     1      43.736 -10.120  10.017  1.00  0.00     0.117 A 
HETATM   26  N   UNL     1      43.364  -8.895  10.471  1.00  0.00    -0.346 N 
HETATM   27  C   UNL     1      43.379  -7.635   9.725  1.00  0.00     0.157 C 
HETATM   28  C   UNL     1      42.874  -8.999  11.770  1.00  0.00     0.109 A 
HETATM   29  C   UNL     1      42.889 -10.317  12.098  1.00  0.00     0.107 A 
HETATM   30  N   UNL     1      43.396 -10.971  11.007  1.00  0.00    -0.350 N 
HETATM   31  H   UNL     1      43.561 -11.971  10.963  1.00  0.00     0.166 HD
ENDBRANCH  21  25
ENDBRANCH   1  19
TORSDOF 5
ENDMDL
MODEL 7
REMARK VINA RESULT:      -8.3      5.761      8.879
REMARK  5 active torsions:
REMARK  status: ('A' for Active; 'I' for Inactive)
REMARK    1  A    between atoms: C_3  and  C_4 
REMARK    2  A    between atoms: C_6  and  N_7 
REMARK       I    between atoms: N_7  and  C_8 
REMARK    3  A    between atoms: C_8  and  C_9 
REMARK    4  A    between atoms: C_14  and  O_15 
REMARK    5  A    between atoms: O_15  and  C_16 
ROOT
HETATM    1  N   UNL     1      40.841 -14.633   0.179  1.00  0.00    -0.322 N 
HETATM    2  C   UNL     1      40.546 -14.674   1.531  1.00  0.00     0.272 C 
HETATM    3  O   UNL     1      39.622 -14.063   2.063  1.00  0.00    -0.266 OA
HETATM    4  H   UNL     1      41.694 -15.093  -0.108  1.00  0.00     0.169 HD
ENDROOT
BRANCH   2   5
HETATM    5  C   UNL     1      41.451 -15.485   2.323  1.00  0.00     0.102 A 
HETATM    6  N   UNL     1      41.963 -16.670   1.833  1.00  0.00    -0.351 N 
HETATM    7  H   UNL     1      41.751 -17.036   0.914  1.00  0.00     0.166 HD
HETATM    8  C   UNL     1      42.795 -17.271   2.747  1.00  0.00     0.045 A 
HETATM    9  C   UNL     1      42.834 -16.447   3.868  1.00  0.00     0.026 A 
HETATM   10  C   UNL     1      43.515 -18.465   2.660  1.00  0.00     0.030 A 
HETATM   11  C   UNL     1      43.624 -16.827   4.976  1.00  0.00     0.087 A 
HETATM   12  C   UNL     1      41.989 -15.331   3.590  1.00  0.00     0.052 A 
HETATM   13  C   UNL     1      44.377 -18.008   4.889  1.00  0.00     0.038 A 
HETATM   14  C   UNL     1      44.313 -18.816   3.753  1.00  0.00     0.005 A 
BRANCH  11  15
HETATM   15  O   UNL     1      43.653 -15.986   6.057  1.00  0.00    -0.289 OA
BRANCH  15  16
HETATM   16  C   UNL     1      43.078 -16.533   7.233  1.00  0.00     0.505 C 
HETATM   17  F   UNL     1      44.062 -16.751   8.141  1.00  0.00    -0.184 F 
HETATM   18  F   UNL     1      42.267 -15.581   7.761  1.00  0.00    -0.184 F 
ENDBRANCH  15  16
ENDBRANCH  11  15
ENDBRANCH   2   5
BRANCH   1  19
HETATM   19  C   UNL     1      40.142 -13.932  -0.826  1.00  0.00     0.035 A 
HETATM   20  C   UNL     1      40.352 -12.580  -1.110  1.00  0.00     0.044 A 
HETATM   21  C   UNL     1      39.673 -11.944  -2.152  1.00  0.00     0.010 A 
HETATM   22  C   UNL     1      38.725 -12.662  -2.889  1.00  0.00     0.015 A 
HETATM   23  C   UNL     1      38.482 -14.004  -2.592  1.00  0.00     0.003 A 
HETATM   24  C   UNL     1      39.189 -14.636  -1.567  1.00  0.00     0.029 A 
BRANCH  21  25
HETATM   25  C   UNL     1      39.933 -10.490  -2.482  1.00  0.00     0.117 A 
HETATM   26  N   UNL     1      39.243  -9.364  -2.163  1.00  0.00    -0.346 N 
HETATM   27  C   UNL     1      38.087  -9.259  -1.271  1.00  0.00     0.157 C 
HETATM   28  C   UNL     1      39.842  -8.257  -2.759  1.00  0.00     0.109 A 
HETATM   29  C   UNL     1      40.951  -8.702  -3.404  1.00  0.00     0.107 A 
HETATM   30  N   UNL     1      40.989 -10.055  -3.198  1.00  0.00    -0.350 N 
HETATM   31  H   UNL     1      41.690 -10.675  -3.589  1.00  0.00     0.166 HD
ENDBRANCH  21  25
ENDBRANCH   1  19
TORSDOF 5
ENDMDL
MODEL 8
REMARK VINA RESULT:      -8.1      3.986      9.490
REMARK  5 active torsions:
REMARK  status: ('A' for Active; 'I' for Inactive)
REMARK    1  A    between atoms: C_3  and  C_4 
REMARK    2  A    between atoms: C_6  and  N_7 
REMARK       I    between atoms: N_7  and  C_8 
REMARK    3  A    between atoms: C_8  and  C_9 
REMARK    4  A    between atoms: C_14  and  O_15 
REMARK    5  A    between atoms: O_15  and  C_16 
ROOT
HETATM    1  N   UNL     1      43.157 -12.675   7.199  1.00  0.00    -0.322 N 
HETATM    2  C   UNL     1      44.090 -11.654   7.144  1.00  0.00     0.272 C 
HETATM    3  O   UNL     1      45.099 -11.668   6.442  1.00  0.00    -0.266 OA
HETATM    4  H   UNL     1      42.434 -12.584   7.900  1.00  0.00     0.169 HD
ENDROOT
BRANCH   2   5
HETATM    5  C   UNL     1      43.817 -10.536   8.026  1.00  0.00     0.102 A 
HETATM    6  N   UNL     1      43.369  -9.328   7.530  1.00  0.00    -0.351 N 
HETATM    7  H   UNL     1      43.203  -9.151   6.548  1.00  0.00     0.166 HD
HETATM    8  C   UNL     1      43.175  -8.414   8.538  1.00  0.00     0.045 A 
HETATM    9  C   UNL     1      43.499  -9.050   9.733  1.00  0.00     0.026 A 
HETATM   10  C   UNL     1      42.733  -7.090   8.481  1.00  0.00     0.030 A 
HETATM   11  C   UNL     1      43.389  -8.335  10.947  1.00  0.00     0.087 A 
HETATM   12  C   UNL     1      43.898 -10.379   9.400  1.00  0.00     0.052 A 
HETATM   13  C   UNL     1      42.916  -7.015  10.906  1.00  0.00     0.038 A 
HETATM   14  C   UNL     1      42.604  -6.403   9.691  1.00  0.00     0.005 A 
BRANCH  11  15
HETATM   15  O   UNL     1      43.700  -8.994  12.107  1.00  0.00    -0.289 OA
BRANCH  15  16
HETATM   16  C   UNL     1      42.613  -9.704  12.680  1.00  0.00     0.505 C 
HETATM   17  F   UNL     1      42.911 -11.027  12.686  1.00  0.00    -0.184 F 
HETATM   18  F   UNL     1      42.526  -9.320  13.979  1.00  0.00    -0.184 F 
ENDBRANCH  15  16
ENDBRANCH  11  15
ENDBRANCH   2   5
BRANCH   1  19
HETATM   19  C   UNL     1      43.161 -13.877   6.461  1.00  0.00     0.035 A 
HETATM   20  C   UNL     1      42.350 -14.098   5.345  1.00  0.00     0.044 A 
HETATM   21  C   UNL     1      42.430 -15.287   4.615  1.00  0.00     0.010 A 
HETATM   22  C   UNL     1      43.299 -16.296   5.044  1.00  0.00     0.015 A 
HETATM   23  C   UNL     1      44.089 -16.099   6.178  1.00  0.00     0.003 A 
HETATM   24  C   UNL     1      44.022 -14.895   6.881  1.00  0.00     0.029 A 
BRANCH  21  25
HETATM   25  C   UNL     1      41.579 -15.506   3.383  1.00  0.00     0.117 A 
HETATM   26  N   UNL     1      41.920 -15.673   2.079  1.00  0.00    -0.346 N 
HETATM   27  C   UNL     1      43.271 -15.816   1.530  1.00  0.00     0.157 C 
HETATM   28  C   UNL     1      40.773 -15.769   1.297  1.00  0.00     0.109 A 
HETATM   29  C   UNL     1      39.709 -15.720   2.140  1.00  0.00     0.107 A 
HETATM   30  N   UNL     1      40.233 -15.583   3.397  1.00  0.00    -0.350 N 
HETATM   31  H   UNL     1      39.679 -15.484   4.242  1.00  0.00     0.166 HD
ENDBRANCH  21  25
ENDBRANCH   1  19
TORSDOF 5
ENDMDL
MODEL 9
REMARK VINA RESULT:      -8.0     16.961     19.159
REMARK  5 active torsions:
REMARK  status: ('A' for Active; 'I' for Inactive)
REMARK    1  A    between atoms: C_3  and  C_4 
REMARK    2  A    between atoms: C_6  and  N_7 
REMARK       I    between atoms: N_7  and  C_8 
REMARK    3  A    between atoms: C_8  and  C_9 
REMARK    4  A    between atoms: C_14  and  O_15 
REMARK    5  A    between atoms: O_15  and  C_16 
ROOT
HETATM    1  N   UNL     1      42.678 -30.735   2.290  1.00  0.00    -0.322 N 
HETATM    2  C   UNL     1      42.590 -29.621   1.473  1.00  0.00     0.272 C 
HETATM    3  O   UNL     1      41.651 -28.828   1.474  1.00  0.00    -0.266 OA
HETATM    4  H   UNL     1      43.449 -31.364   2.108  1.00  0.00     0.169 HD
ENDROOT
BRANCH   2   5
HETATM    5  C   UNL     1      43.697 -29.456   0.552  1.00  0.00     0.102 A 
HETATM    6  N   UNL     1      44.856 -28.812   0.936  1.00  0.00    -0.351 N 
HETATM    7  H   UNL     1      45.005 -28.428   1.860  1.00  0.00     0.166 HD
HETATM    8  C   UNL     1      45.769 -28.771  -0.090  1.00  0.00     0.045 A 
HETATM    9  C   UNL     1      45.190 -29.416  -1.179  1.00  0.00     0.026 A 
HETATM   10  C   UNL     1      47.054 -28.222  -0.131  1.00  0.00     0.030 A 
HETATM   11  C   UNL     1      45.918 -29.523  -2.385  1.00  0.00     0.087 A 
HETATM   12  C   UNL     1      43.893 -29.844  -0.764  1.00  0.00     0.052 A 
HETATM   13  C   UNL     1      47.221 -29.005  -2.429  1.00  0.00     0.038 A 
HETATM   14  C   UNL     1      47.772 -28.358  -1.322  1.00  0.00     0.005 A 
BRANCH  11  15
HETATM   15  O   UNL     1      45.326 -30.179  -3.432  1.00  0.00    -0.289 OA
BRANCH  15  16
HETATM   16  C   UNL     1      44.627 -29.330  -4.329  1.00  0.00     0.505 C 
HETATM   17  F   UNL     1      43.313 -29.331  -3.995  1.00  0.00    -0.184 F 
HETATM   18  F   UNL     1      45.080 -28.068  -4.118  1.00  0.00    -0.184 F 
ENDBRANCH  15  16
ENDBRANCH  11  15
ENDBRANCH   2   5
BRANCH   1  19
HETATM   19  C   UNL     1      41.756 -31.148   3.274  1.00  0.00     0.035 A 
HETATM   20  C   UNL     1      40.655 -31.965   3.004  1.00  0.00     0.044 A 
HETATM   21  C   UNL     1      39.800 -32.390   4.024  1.00  0.00     0.010 A 
HETATM   22  C   UNL     1      40.021 -31.945   5.332  1.00  0.00     0.015 A 
HETATM   23  C   UNL     1      41.098 -31.102   5.608  1.00  0.00     0.003 A 
HETATM   24  C   UNL     1      41.963 -30.707   4.584  1.00  0.00     0.029 A 
BRANCH  21  25
HETATM   25  C   UNL     1      38.632 -33.307   3.732  1.00  0.00     0.117 A 
HETATM   26  N   UNL     1      38.584 -34.642   3.486  1.00  0.00    -0.346 N 
HETATM   27  C   UNL     1      39.691 -35.597   3.570  1.00  0.00     0.157 C 
HETATM   28  C   UNL     1      37.276 -35.025   3.201  1.00  0.00     0.109 A 
HETATM   29  C   UNL     1      36.499 -33.918   3.333  1.00  0.00     0.107 A 
HETATM   30  N   UNL     1      37.347 -32.901   3.677  1.00  0.00    -0.350 N 
HETATM   31  H   UNL     1      37.062 -31.937   3.813  1.00  0.00     0.166 HD
ENDBRANCH  21  25
ENDBRANCH   1  19
TORSDOF 5
ENDMDL
MODEL 10
REMARK VINA RESULT:      -8.0      2.098      3.195
REMARK  5 active torsions:
REMARK  status: ('A' for Active; 'I' for Inactive)
REMARK    1  A    between atoms: C_3  and  C_4 
REMARK    2  A    between atoms: C_6  and  N_7 
REMARK       I    between atoms: N_7  and  C_8 
REMARK    3  A    between atoms: C_8  and  C_9 
REMARK    4  A    between atoms: C_14  and  O_15 
REMARK    5  A    between atoms: O_15  and  C_16 
ROOT
HETATM    1  N   UNL     1      42.871 -10.573   7.821  1.00  0.00    -0.322 N 
HETATM    2  C   UNL     1      43.880 -11.504   7.638  1.00  0.00     0.272 C 
HETATM    3  O   UNL     1      44.970 -11.472   8.205  1.00  0.00    -0.266 OA
HETATM    4  H   UNL     1      42.070 -10.654   7.209  1.00  0.00     0.169 HD
ENDROOT
BRANCH   2   5
HETATM    5  C   UNL     1      43.577 -12.542   6.672  1.00  0.00     0.102 A 
HETATM    6  N   UNL     1      43.462 -12.255   5.327  1.00  0.00    -0.351 N 
HETATM    7  H   UNL     1      43.582 -11.328   4.939  1.00  0.00     0.166 HD
HETATM    8  C   UNL     1      43.174 -13.382   4.597  1.00  0.00     0.045 A 
HETATM    9  C   UNL     1      43.106 -14.444   5.494  1.00  0.00     0.026 A 
HETATM   10  C   UNL     1      42.978 -13.540   3.222  1.00  0.00     0.030 A 
HETATM   11  C   UNL     1      42.822 -15.740   5.010  1.00  0.00     0.087 A 
HETATM   12  C   UNL     1      43.363 -13.906   6.791  1.00  0.00     0.052 A 
HETATM   13  C   UNL     1      42.655 -15.917   3.628  1.00  0.00     0.038 A 
HETATM   14  C   UNL     1      42.723 -14.832   2.754  1.00  0.00     0.005 A 
BRANCH  11  15
HETATM   15  O   UNL     1      42.779 -16.766   5.917  1.00  0.00    -0.289 OA
BRANCH  15  16
HETATM   16  C   UNL     1      43.932 -17.593   5.913  1.00  0.00     0.505 C 
HETATM   17  F   UNL     1      43.787 -18.540   4.953  1.00  0.00    -0.184 F 
HETATM   18  F   UNL     1      44.979 -16.815   5.536  1.00  0.00    -0.184 F 
ENDBRANCH  15  16
ENDBRANCH  11  15
ENDBRANCH   2   5
BRANCH   1  19
HETATM   19  C   UNL     1      42.882  -9.461   8.688  1.00  0.00     0.035 A 
HETATM   20  C   UNL     1      42.380  -9.496   9.992  1.00  0.00     0.044 A 
HETATM   21  C   UNL     1      42.463  -8.382  10.831  1.00  0.00     0.010 A 
HETATM   22  C   UNL     1      43.009  -7.192  10.337  1.00  0.00     0.015 A 
HETATM   23  C   UNL     1      43.482  -7.135   9.025  1.00  0.00     0.003 A 
HETATM   24  C   UNL     1      43.421  -8.265   8.206  1.00  0.00     0.029 A 
BRANCH  21  25
HETATM   25  C   UNL     1      41.954  -8.438  12.255  1.00  0.00     0.117 A 
HETATM   26  N   UNL     1      40.700  -8.315  12.762  1.00  0.00    -0.346 N 
HETATM   27  C   UNL     1      39.448  -8.218  12.009  1.00  0.00     0.157 C 
HETATM   28  C   UNL     1      40.744  -8.367  14.153  1.00  0.00     0.109 A 
HETATM   29  C   UNL     1      42.038  -8.586  14.504  1.00  0.00     0.107 A 
HETATM   30  N   UNL     1      42.740  -8.646  13.331  1.00  0.00    -0.350 N 
HETATM   31  H   UNL     1      43.746  -8.768  13.270  1.00  0.00     0.166 HD
ENDBRANCH  21  25
ENDBRANCH   1  19
TORSDOF 5
ENDMDL
