MODEL 1
REMARK VINA RESULT:      -8.7      0.000      0.000
REMARK  5 active torsions:
REMARK  status: ('A' for Active; 'I' for Inactive)
REMARK    1  A    between atoms: C_2  and  N_3 
REMARK    2  A    between atoms: C_2  and  C_16 
REMARK    3  A    between atoms: N_3  and  C_6 
REMARK    4  A    between atoms: C_6  and  C_7 
REMARK    5  A    between atoms: C_19  and  C_20 
ROOT
HETATM    1  C   UNL     1      41.631 -12.622   3.203  1.00  0.00     0.049 C 
HETATM    2  C   UNL     1      42.635 -13.425   2.382  1.00  0.00     0.260 C 
ENDROOT
BRANCH   2   3
HETATM    3  N   UNL     1      42.073 -13.664   1.001  1.00  0.00    -0.060 N 
HETATM    4  H   UNL     1      42.260 -12.815   0.442  1.00  0.00     0.278 HD
HETATM    5  H   UNL     1      42.622 -14.392   0.525  1.00  0.00     0.278 HD
BRANCH   3   6
HETATM    6  C   UNL     1      40.619 -13.950   0.892  1.00  0.00     0.274 C 
BRANCH   6   7
HETATM    7  C   UNL     1      40.140 -13.868  -0.522  1.00  0.00     0.004 A 
HETATM    8  C   UNL     1      40.413 -12.757  -1.307  1.00  0.00     0.113 A 
HETATM    9  C   UNL     1      39.967 -12.644  -2.602  1.00  0.00     0.105 A 
HETATM   10  O   UNL     1      41.154 -11.681  -0.917  1.00  0.00    -0.322 OA
HETATM   11  O   UNL     1      40.350 -11.479  -3.183  1.00  0.00    -0.323 OA
HETATM   12  C   UNL     1      39.222 -13.636  -3.199  1.00  0.00     0.040 A 
HETATM   13  C   UNL     1      41.046 -10.839  -2.099  1.00  0.00     0.352 A 
HETATM   14  C   UNL     1      38.926 -14.770  -2.441  1.00  0.00     0.003 A 
HETATM   15  C   UNL     1      39.377 -14.887  -1.112  1.00  0.00     0.012 A 
ENDBRANCH   6   7
ENDBRANCH   3   6
ENDBRANCH   2   3
BRANCH   2  16
HETATM   16  C   UNL     1      42.937 -14.725   3.048  1.00  0.00     0.203 A 
HETATM   17  O   UNL     1      43.108 -14.718   4.394  1.00  0.00    -0.194 OA
HETATM   18  N   UNL     1      43.351 -16.034   4.763  1.00  0.00    -0.106 NA
HETATM   19  C   UNL     1      43.314 -16.717   3.605  1.00  0.00     0.189 A 
HETATM   20  N   UNL     1      43.069 -15.914   2.502  1.00  0.00    -0.202 NA
BRANCH  19  21
HETATM   21  C   UNL     1      43.500 -18.160   3.501  1.00  0.00     0.017 A 
HETATM   22  C   UNL     1      44.004 -18.886   4.587  1.00  0.00     0.057 A 
HETATM   23  C   UNL     1      44.186 -20.261   4.480  1.00  0.00     0.117 A 
HETATM   24  F   UNL     1      44.666 -20.940   5.530  1.00  0.00    -0.206 F 
HETATM   25  C   UNL     1      43.879 -20.939   3.308  1.00  0.00     0.042 A 
HETATM   26  C   UNL     1      43.378 -20.230   2.219  1.00  0.00     0.004 A 
HETATM   27  C   UNL     1      43.189 -18.847   2.316  1.00  0.00     0.016 A 
ENDBRANCH  19  21
ENDBRANCH   2  16
TORSDOF 5
ENDMDL
MODEL 2
REMARK VINA RESULT:      -8.6      1.593      1.688
REMARK  5 active torsions:
REMARK  status: ('A' for Active; 'I' for Inactive)
REMARK    1  A    between atoms: C_2  and  N_3 
REMARK    2  A    between atoms: C_2  and  C_16 
REMARK    3  A    between atoms: N_3  and  C_6 
REMARK    4  A    between atoms: C_6  and  C_7 
REMARK    5  A    between atoms: C_19  and  C_20 
ROOT
HETATM    1  C   UNL     1      39.894 -13.468   3.497  1.00  0.00     0.049 C 
HETATM    2  C   UNL     1      40.753 -13.940   2.327  1.00  0.00     0.260 C 
ENDROOT
BRANCH   2   3
HETATM    3  N   UNL     1      39.859 -14.479   1.237  1.00  0.00    -0.060 N 
HETATM    4  H   UNL     1      39.627 -15.455   1.485  1.00  0.00     0.278 HD
HETATM    5  H   UNL     1      38.949 -14.000   1.267  1.00  0.00     0.278 HD
BRANCH   3   6
HETATM    6  C   UNL     1      40.397 -14.495  -0.148  1.00  0.00     0.274 C 
BRANCH   6   7
HETATM    7  C   UNL     1      39.366 -14.085  -1.151  1.00  0.00     0.004 A 
HETATM    8  C   UNL     1      38.646 -12.910  -0.997  1.00  0.00     0.113 A 
HETATM    9  C   UNL     1      37.677 -12.520  -1.890  1.00  0.00     0.105 A 
HETATM   10  O   UNL     1      38.815 -12.008   0.011  1.00  0.00    -0.322 OA
HETATM   11  O   UNL     1      37.101 -11.339  -1.549  1.00  0.00    -0.323 OA
HETATM   12  C   UNL     1      37.368 -13.277  -2.998  1.00  0.00     0.040 A 
HETATM   13  C   UNL     1      37.774 -11.045  -0.312  1.00  0.00     0.352 A 
HETATM   14  C   UNL     1      38.071 -14.468  -3.187  1.00  0.00     0.003 A 
HETATM   15  C   UNL     1      39.061 -14.873  -2.271  1.00  0.00     0.012 A 
ENDBRANCH   6   7
ENDBRANCH   3   6
ENDBRANCH   2   3
BRANCH   2  16
HETATM   16  C   UNL     1      41.713 -14.992   2.774  1.00  0.00     0.203 A 
HETATM   17  O   UNL     1      42.747 -14.606   3.563  1.00  0.00    -0.194 OA
HETATM   18  N   UNL     1      43.467 -15.758   3.851  1.00  0.00    -0.106 NA
HETATM   19  C   UNL     1      42.808 -16.733   3.203  1.00  0.00     0.189 A 
HETATM   20  N   UNL     1      41.704 -16.278   2.500  1.00  0.00    -0.202 NA
BRANCH  19  21
HETATM   21  C   UNL     1      43.195 -18.140   3.231  1.00  0.00     0.017 A 
HETATM   22  C   UNL     1      43.770 -18.689   4.384  1.00  0.00     0.057 A 
HETATM   23  C   UNL     1      44.143 -20.030   4.404  1.00  0.00     0.117 A 
HETATM   24  F   UNL     1      44.688 -20.540   5.515  1.00  0.00    -0.206 F 
HETATM   25  C   UNL     1      43.960 -20.845   3.294  1.00  0.00     0.042 A 
HETATM   26  C   UNL     1      43.391 -20.311   2.140  1.00  0.00     0.004 A 
HETATM   27  C   UNL     1      43.010 -18.965   2.110  1.00  0.00     0.016 A 
ENDBRANCH  19  21
ENDBRANCH   2  16
TORSDOF 5
ENDMDL
MODEL 3
REMARK VINA RESULT:      -8.6      4.491      6.701
REMARK  5 active torsions:
REMARK  status: ('A' for Active; 'I' for Inactive)
REMARK    1  A    between atoms: C_2  and  N_3 
REMARK    2  A    between atoms: C_2  and  C_16 
REMARK    3  A    between atoms: N_3  and  C_6 
REMARK    4  A    between atoms: C_6  and  C_7 
REMARK    5  A    between atoms: C_19  and  C_20 
ROOT
HETATM    1  C   UNL     1      41.341 -13.870   6.161  1.00  0.00     0.049 C 
HETATM    2  C   UNL     1      42.670 -13.711   5.429  1.00  0.00     0.260 C 
ENDROOT
BRANCH   2   3
HETATM    3  N   UNL     1      42.642 -12.439   4.616  1.00  0.00    -0.060 N 
HETATM    4  H   UNL     1      42.427 -12.704   3.640  1.00  0.00     0.278 HD
HETATM    5  H   UNL     1      41.834 -11.868   4.894  1.00  0.00     0.278 HD
BRANCH   3   6
HETATM    6  C   UNL     1      43.878 -11.616   4.584  1.00  0.00     0.274 C 
BRANCH   6   7
HETATM    7  C   UNL     1      44.289 -11.175   5.953  1.00  0.00     0.004 A 
HETATM    8  C   UNL     1      43.405 -10.501   6.782  1.00  0.00     0.113 A 
HETATM    9  C   UNL     1      43.761 -10.064   8.036  1.00  0.00     0.105 A 
HETATM   10  O   UNL     1      42.106 -10.214   6.483  1.00  0.00    -0.322 OA
HETATM   11  O   UNL     1      42.744  -9.432   8.674  1.00  0.00    -0.323 OA
HETATM   12  C   UNL     1      45.023 -10.277   8.544  1.00  0.00     0.040 A 
HETATM   13  C   UNL     1      41.715  -9.468   7.669  1.00  0.00     0.352 A 
HETATM   14  C   UNL     1      45.942 -10.952   7.739  1.00  0.00     0.003 A 
HETATM   15  C   UNL     1      45.582 -11.397   6.452  1.00  0.00     0.012 A 
ENDBRANCH   6   7
ENDBRANCH   3   6
ENDBRANCH   2   3
BRANCH   2  16
HETATM   16  C   UNL     1      42.923 -14.884   4.542  1.00  0.00     0.203 A 
HETATM   17  O   UNL     1      43.088 -14.647   3.217  1.00  0.00    -0.194 OA
HETATM   18  N   UNL     1      43.328 -15.881   2.628  1.00  0.00    -0.106 NA
HETATM   19  C   UNL     1      43.276 -16.753   3.649  1.00  0.00     0.189 A 
HETATM   20  N   UNL     1      43.006 -16.155   4.870  1.00  0.00    -0.202 NA
BRANCH  19  21
HETATM   21  C   UNL     1      43.489 -18.190   3.509  1.00  0.00     0.017 A 
HETATM   22  C   UNL     1      43.970 -18.939   4.590  1.00  0.00     0.057 A 
HETATM   23  C   UNL     1      44.177 -20.308   4.450  1.00  0.00     0.117 A 
HETATM   24  F   UNL     1      44.635 -21.010   5.494  1.00  0.00    -0.206 F 
HETATM   25  C   UNL     1      43.918 -20.957   3.249  1.00  0.00     0.042 A 
HETATM   26  C   UNL     1      43.440 -20.223   2.166  1.00  0.00     0.004 A 
HETATM   27  C   UNL     1      43.226 -18.847   2.296  1.00  0.00     0.016 A 
ENDBRANCH  19  21
ENDBRANCH   2  16
TORSDOF 5
ENDMDL
MODEL 4
REMARK VINA RESULT:      -8.4      3.453      8.201
REMARK  5 active torsions:
REMARK  status: ('A' for Active; 'I' for Inactive)
REMARK    1  A    between atoms: C_2  and  N_3 
REMARK    2  A    between atoms: C_2  and  C_16 
REMARK    3  A    between atoms: N_3  and  C_6 
REMARK    4  A    between atoms: C_6  and  C_7 
REMARK    5  A    between atoms: C_19  and  C_20 
ROOT
HETATM    1  C   UNL     1      42.865 -13.780   4.201  1.00  0.00     0.049 C 
HETATM    2  C   UNL     1      41.695 -14.758   4.264  1.00  0.00     0.260 C 
ENDROOT
BRANCH   2   3
HETATM    3  N   UNL     1      42.191 -16.097   4.754  1.00  0.00    -0.060 N 
HETATM    4  H   UNL     1      42.495 -15.972   5.734  1.00  0.00     0.278 HD
HETATM    5  H   UNL     1      41.402 -16.752   4.828  1.00  0.00     0.278 HD
BRANCH   3   6
HETATM    6  C   UNL     1      43.322 -16.721   4.021  1.00  0.00     0.274 C 
BRANCH   6   7
HETATM    7  C   UNL     1      43.548 -18.137   4.446  1.00  0.00     0.004 A 
HETATM    8  C   UNL     1      43.664 -19.154   3.511  1.00  0.00     0.113 A 
HETATM    9  C   UNL     1      43.849 -20.468   3.873  1.00  0.00     0.105 A 
HETATM   10  O   UNL     1      43.635 -18.988   2.158  1.00  0.00    -0.322 OA
HETATM   11  O   UNL     1      43.939 -21.294   2.800  1.00  0.00    -0.323 OA
HETATM   12  C   UNL     1      43.936 -20.848   5.193  1.00  0.00     0.040 A 
HETATM   13  C   UNL     1      43.739 -20.370   1.715  1.00  0.00     0.352 A 
HETATM   14  C   UNL     1      43.822 -19.852   6.165  1.00  0.00     0.003 A 
HETATM   15  C   UNL     1      43.627 -18.507   5.798  1.00  0.00     0.012 A 
ENDBRANCH   6   7
ENDBRANCH   3   6
ENDBRANCH   2   3
BRANCH   2  16
HETATM   16  C   UNL     1      41.061 -14.903   2.922  1.00  0.00     0.203 A 
HETATM   17  O   UNL     1      40.248 -15.971   2.722  1.00  0.00    -0.194 OA
HETATM   18  N   UNL     1      39.776 -15.862   1.421  1.00  0.00    -0.106 NA
HETATM   19  C   UNL     1      40.354 -14.744   0.949  1.00  0.00     0.189 A 
HETATM   20  N   UNL     1      41.184 -14.124   1.869  1.00  0.00    -0.202 NA
BRANCH  19  21
HETATM   21  C   UNL     1      40.135 -14.214  -0.393  1.00  0.00     0.017 A 
HETATM   22  C   UNL     1      40.684 -12.980  -0.761  1.00  0.00     0.057 A 
HETATM   23  C   UNL     1      40.467 -12.476  -2.040  1.00  0.00     0.117 A 
HETATM   24  F   UNL     1      41.002 -11.296  -2.376  1.00  0.00    -0.206 F 
HETATM   25  C   UNL     1      39.708 -13.174  -2.970  1.00  0.00     0.042 A 
HETATM   26  C   UNL     1      39.154 -14.402  -2.617  1.00  0.00     0.004 A 
HETATM   27  C   UNL     1      39.368 -14.920  -1.335  1.00  0.00     0.016 A 
ENDBRANCH  19  21
ENDBRANCH   2  16
TORSDOF 5
ENDMDL
MODEL 5
REMARK VINA RESULT:      -8.4      3.057      5.659
REMARK  5 active torsions:
REMARK  status: ('A' for Active; 'I' for Inactive)
REMARK    1  A    between atoms: C_2  and  N_3 
REMARK    2  A    between atoms: C_2  and  C_16 
REMARK    3  A    between atoms: N_3  and  C_6 
REMARK    4  A    between atoms: C_6  and  C_7 
REMARK    5  A    between atoms: C_19  and  C_20 
ROOT
HETATM    1  C   UNL     1      40.542 -12.372   1.916  1.00  0.00     0.049 C 
HETATM    2  C   UNL     1      40.077 -13.749   2.383  1.00  0.00     0.260 C 
ENDROOT
BRANCH   2   3
HETATM    3  N   UNL     1      39.456 -13.628   3.753  1.00  0.00    -0.060 N 
HETATM    4  H   UNL     1      38.490 -13.286   3.623  1.00  0.00     0.278 HD
HETATM    5  H   UNL     1      39.329 -14.564   4.159  1.00  0.00     0.278 HD
BRANCH   3   6
HETATM    6  C   UNL     1      40.114 -12.720   4.728  1.00  0.00     0.274 C 
BRANCH   6   7
HETATM    7  C   UNL     1      41.113 -13.442   5.576  1.00  0.00     0.004 A 
HETATM    8  C   UNL     1      42.372 -12.910   5.809  1.00  0.00     0.113 A 
HETATM    9  C   UNL     1      43.317 -13.561   6.565  1.00  0.00     0.105 A 
HETATM   10  O   UNL     1      42.812 -11.702   5.355  1.00  0.00    -0.322 OA
HETATM   11  O   UNL     1      44.475 -12.860   6.665  1.00  0.00    -0.323 OA
HETATM   12  C   UNL     1      43.064 -14.786   7.141  1.00  0.00     0.040 A 
HETATM   13  C   UNL     1      44.181 -11.713   5.848  1.00  0.00     0.352 A 
HETATM   14  C   UNL     1      41.807 -15.356   6.928  1.00  0.00     0.003 A 
HETATM   15  C   UNL     1      40.838 -14.694   6.150  1.00  0.00     0.012 A 
ENDBRANCH   6   7
ENDBRANCH   3   6
ENDBRANCH   2   3
BRANCH   2  16
HETATM   16  C   UNL     1      41.224 -14.703   2.418  1.00  0.00     0.203 A 
HETATM   17  O   UNL     1      42.403 -14.291   1.889  1.00  0.00    -0.194 OA
HETATM   18  N   UNL     1      43.296 -15.339   2.065  1.00  0.00    -0.106 NA
HETATM   19  C   UNL     1      42.574 -16.293   2.677  1.00  0.00     0.189 A 
HETATM   20  N   UNL     1      41.255 -15.927   2.900  1.00  0.00    -0.202 NA
BRANCH  19  21
HETATM   21  C   UNL     1      43.108 -17.589   3.083  1.00  0.00     0.017 A 
HETATM   22  C   UNL     1      43.131 -18.656   2.176  1.00  0.00     0.057 A 
HETATM   23  C   UNL     1      43.636 -19.892   2.571  1.00  0.00     0.117 A 
HETATM   24  F   UNL     1      43.652 -20.901   1.691  1.00  0.00    -0.206 F 
HETATM   25  C   UNL     1      44.121 -20.095   3.856  1.00  0.00     0.042 A 
HETATM   26  C   UNL     1      44.103 -19.043   4.767  1.00  0.00     0.004 A 
HETATM   27  C   UNL     1      43.600 -17.795   4.382  1.00  0.00     0.016 A 
ENDBRANCH  19  21
ENDBRANCH   2  16
TORSDOF 5
ENDMDL
MODEL 6
REMARK VINA RESULT:      -8.3      2.107      3.086
REMARK  5 active torsions:
REMARK  status: ('A' for Active; 'I' for Inactive)
REMARK    1  A    between atoms: C_2  and  N_3 
REMARK    2  A    between atoms: C_2  and  C_16 
REMARK    3  A    between atoms: N_3  and  C_6 
REMARK    4  A    between atoms: C_6  and  C_7 
REMARK    5  A    between atoms: C_19  and  C_20 
ROOT
HETATM    1  C   UNL     1      39.431 -12.364   3.742  1.00  0.00     0.049 C 
HETATM    2  C   UNL     1      39.832 -12.778   2.329  1.00  0.00     0.260 C 
ENDROOT
BRANCH   2   3
HETATM    3  N   UNL     1      38.620 -12.722   1.430  1.00  0.00    -0.060 N 
HETATM    4  H   UNL     1      38.634 -13.572   0.842  1.00  0.00     0.278 HD
HETATM    5  H   UNL     1      37.766 -12.832   1.993  1.00  0.00     0.278 HD
BRANCH   3   6
HETATM    6  C   UNL     1      38.497 -11.558   0.515  1.00  0.00     0.274 C 
BRANCH   6   7
HETATM    7  C   UNL     1      39.444 -11.653  -0.638  1.00  0.00     0.004 A 
HETATM    8  C   UNL     1      39.433 -12.752  -1.484  1.00  0.00     0.113 A 
HETATM    9  C   UNL     1      40.306 -12.877  -2.538  1.00  0.00     0.105 A 
HETATM   10  O   UNL     1      38.569 -13.803  -1.399  1.00  0.00    -0.322 OA
HETATM   11  O   UNL     1      40.118 -14.027  -3.234  1.00  0.00    -0.323 OA
HETATM   12  C   UNL     1      41.245 -11.910  -2.818  1.00  0.00     0.040 A 
HETATM   13  C   UNL     1      39.063 -14.645  -2.478  1.00  0.00     0.352 A 
HETATM   14  C   UNL     1      41.289 -10.788  -1.987  1.00  0.00     0.003 A 
HETATM   15  C   UNL     1      40.399 -10.659  -0.904  1.00  0.00     0.012 A 
ENDBRANCH   6   7
ENDBRANCH   3   6
ENDBRANCH   2   3
BRANCH   2  16
HETATM   16  C   UNL     1      40.409 -14.154   2.330  1.00  0.00     0.203 A 
HETATM   17  O   UNL     1      39.862 -15.067   1.487  1.00  0.00    -0.194 OA
HETATM   18  N   UNL     1      40.582 -16.240   1.665  1.00  0.00    -0.106 NA
HETATM   19  C   UNL     1      41.493 -15.934   2.605  1.00  0.00     0.189 A 
HETATM   20  N   UNL     1      41.398 -14.627   3.057  1.00  0.00    -0.202 NA
BRANCH  19  21
HETATM   21  C   UNL     1      42.495 -16.867   3.107  1.00  0.00     0.017 A 
HETATM   22  C   UNL     1      42.850 -17.993   2.353  1.00  0.00     0.057 A 
HETATM   23  C   UNL     1      43.803 -18.883   2.839  1.00  0.00     0.117 A 
HETATM   24  F   UNL     1      44.132 -19.952   2.104  1.00  0.00    -0.206 F 
HETATM   25  C   UNL     1      44.416 -18.682   4.070  1.00  0.00     0.042 A 
HETATM   26  C   UNL     1      44.071 -17.567   4.830  1.00  0.00     0.004 A 
HETATM   27  C   UNL     1      43.117 -16.664   4.350  1.00  0.00     0.016 A 
ENDBRANCH  19  21
ENDBRANCH   2  16
TORSDOF 5
ENDMDL
MODEL 7
REMARK VINA RESULT:      -8.3      2.249      3.378
REMARK  5 active torsions:
REMARK  status: ('A' for Active; 'I' for Inactive)
REMARK    1  A    between atoms: C_2  and  N_3 
REMARK    2  A    between atoms: C_2  and  C_16 
REMARK    3  A    between atoms: N_3  and  C_6 
REMARK    4  A    between atoms: C_6  and  C_7 
REMARK    5  A    between atoms: C_19  and  C_20 
ROOT
HETATM    1  C   UNL     1      40.512 -14.287   6.202  1.00  0.00     0.049 C 
HETATM    2  C   UNL     1      41.819 -13.833   5.558  1.00  0.00     0.260 C 
ENDROOT
BRANCH   2   3
HETATM    3  N   UNL     1      41.555 -12.626   4.691  1.00  0.00    -0.060 N 
HETATM    4  H   UNL     1      41.714 -11.788   5.275  1.00  0.00     0.278 HD
HETATM    5  H   UNL     1      42.280 -12.556   3.965  1.00  0.00     0.278 HD
BRANCH   3   6
HETATM    6  C   UNL     1      40.201 -12.492   4.093  1.00  0.00     0.274 C 
BRANCH   6   7
HETATM    7  C   UNL     1      40.241 -12.568   2.600  1.00  0.00     0.004 A 
HETATM    8  C   UNL     1      40.093 -13.778   1.941  1.00  0.00     0.113 A 
HETATM    9  C   UNL     1      40.148 -13.882   0.571  1.00  0.00     0.105 A 
HETATM   10  O   UNL     1      39.857 -14.979   2.542  1.00  0.00    -0.322 OA
HETATM   11  O   UNL     1      39.975 -15.157   0.139  1.00  0.00    -0.323 OA
HETATM   12  C   UNL     1      40.350 -12.779  -0.229  1.00  0.00     0.040 A 
HETATM   13  C   UNL     1      39.856 -15.863   1.386  1.00  0.00     0.352 A 
HETATM   14  C   UNL     1      40.506 -11.542   0.398  1.00  0.00     0.003 A 
HETATM   15  C   UNL     1      40.455 -11.433   1.801  1.00  0.00     0.012 A 
ENDBRANCH   6   7
ENDBRANCH   3   6
ENDBRANCH   2   3
BRANCH   2  16
HETATM   16  C   UNL     1      42.410 -14.934   4.742  1.00  0.00     0.203 A 
HETATM   17  O   UNL     1      43.005 -14.599   3.570  1.00  0.00    -0.194 OA
HETATM   18  N   UNL     1      43.484 -15.783   3.025  1.00  0.00    -0.106 NA
HETATM   19  C   UNL     1      43.127 -16.727   3.912  1.00  0.00     0.189 A 
HETATM   20  N   UNL     1      42.432 -16.223   5.001  1.00  0.00    -0.202 NA
BRANCH  19  21
HETATM   21  C   UNL     1      43.438 -18.145   3.767  1.00  0.00     0.017 A 
HETATM   22  C   UNL     1      43.294 -18.774   2.524  1.00  0.00     0.057 A 
HETATM   23  C   UNL     1      43.586 -20.128   2.393  1.00  0.00     0.117 A 
HETATM   24  F   UNL     1      43.445 -20.713   1.197  1.00  0.00    -0.206 F 
HETATM   25  C   UNL     1      44.021 -20.880   3.477  1.00  0.00     0.042 A 
HETATM   26  C   UNL     1      44.168 -20.267   4.718  1.00  0.00     0.004 A 
HETATM   27  C   UNL     1      43.879 -18.906   4.862  1.00  0.00     0.016 A 
ENDBRANCH  19  21
ENDBRANCH   2  16
TORSDOF 5
ENDMDL
MODEL 8
REMARK VINA RESULT:      -8.2      1.897      2.467
REMARK  5 active torsions:
REMARK  status: ('A' for Active; 'I' for Inactive)
REMARK    1  A    between atoms: C_2  and  N_3 
REMARK    2  A    between atoms: C_2  and  C_16 
REMARK    3  A    between atoms: N_3  and  C_6 
REMARK    4  A    between atoms: C_6  and  C_7 
REMARK    5  A    between atoms: C_19  and  C_20 
ROOT
HETATM    1  C   UNL     1      43.009 -12.340   5.963  1.00  0.00     0.049 C 
HETATM    2  C   UNL     1      42.405 -13.240   4.889  1.00  0.00     0.260 C 
ENDROOT
BRANCH   2   3
HETATM    3  N   UNL     1      40.904 -13.270   5.049  1.00  0.00    -0.060 N 
HETATM    4  H   UNL     1      40.622 -14.262   5.120  1.00  0.00     0.278 HD
HETATM    5  H   UNL     1      40.646 -12.880   5.966  1.00  0.00     0.278 HD
BRANCH   3   6
HETATM    6  C   UNL     1      40.085 -12.657   3.972  1.00  0.00     0.274 C 
BRANCH   6   7
HETATM    7  C   UNL     1      40.161 -13.441   2.701  1.00  0.00     0.004 A 
HETATM    8  C   UNL     1      40.483 -12.828   1.500  1.00  0.00     0.113 A 
HETATM    9  C   UNL     1      40.538 -13.518   0.312  1.00  0.00     0.105 A 
HETATM   10  O   UNL     1      40.799 -11.510   1.348  1.00  0.00    -0.322 OA
HETATM   11  O   UNL     1      40.874 -12.724  -0.735  1.00  0.00    -0.323 OA
HETATM   12  C   UNL     1      40.280 -14.869   0.250  1.00  0.00     0.040 A 
HETATM   13  C   UNL     1      40.977 -11.440  -0.094  1.00  0.00     0.352 A 
HETATM   14  C   UNL     1      39.951 -15.523   1.438  1.00  0.00     0.003 A 
HETATM   15  C   UNL     1      39.888 -14.818   2.655  1.00  0.00     0.012 A 
ENDBRANCH   6   7
ENDBRANCH   3   6
ENDBRANCH   2   3
BRANCH   2  16
HETATM   16  C   UNL     1      42.961 -14.621   4.989  1.00  0.00     0.203 A 
HETATM   17  O   UNL     1      43.729 -14.913   6.069  1.00  0.00    -0.194 OA
HETATM   18  N   UNL     1      44.097 -16.245   5.935  1.00  0.00    -0.106 NA
HETATM   19  C   UNL     1      43.526 -16.634   4.782  1.00  0.00     0.189 A 
HETATM   20  N   UNL     1      42.814 -15.625   4.153  1.00  0.00    -0.202 NA
BRANCH  19  21
HETATM   21  C   UNL     1      43.627 -17.983   4.235  1.00  0.00     0.017 A 
HETATM   22  C   UNL     1      44.026 -19.047   5.053  1.00  0.00     0.057 A 
HETATM   23  C   UNL     1      44.126 -20.331   4.524  1.00  0.00     0.117 A 
HETATM   24  F   UNL     1      44.507 -21.337   5.321  1.00  0.00    -0.206 F 
HETATM   25  C   UNL     1      43.838 -20.585   3.189  1.00  0.00     0.042 A 
HETATM   26  C   UNL     1      43.441 -19.535   2.365  1.00  0.00     0.004 A 
HETATM   27  C   UNL     1      43.334 -18.241   2.885  1.00  0.00     0.016 A 
ENDBRANCH  19  21
ENDBRANCH   2  16
TORSDOF 5
ENDMDL
MODEL 9
REMARK VINA RESULT:      -7.9      4.894      7.340
REMARK  5 active torsions:
REMARK  status: ('A' for Active; 'I' for Inactive)
REMARK    1  A    between atoms: C_2  and  N_3 
REMARK    2  A    between atoms: C_2  and  C_16 
REMARK    3  A    between atoms: N_3  and  C_6 
REMARK    4  A    between atoms: C_6  and  C_7 
REMARK    5  A    between atoms: C_19  and  C_20 
ROOT
HETATM    1  C   UNL     1      42.930 -12.413   4.555  1.00  0.00     0.049 C 
HETATM    2  C   UNL     1      42.347 -13.075   5.800  1.00  0.00     0.260 C 
ENDROOT
BRANCH   2   3
HETATM    3  N   UNL     1      43.116 -12.616   7.015  1.00  0.00    -0.060 N 
HETATM    4  H   UNL     1      42.529 -11.921   7.506  1.00  0.00     0.278 HD
HETATM    5  H   UNL     1      43.190 -13.388   7.690  1.00  0.00     0.278 HD
BRANCH   3   6
HETATM    6  C   UNL     1      44.444 -11.988   6.791  1.00  0.00     0.274 C 
BRANCH   6   7
HETATM    7  C   UNL     1      44.585 -10.701   7.540  1.00  0.00     0.004 A 
HETATM    8  C   UNL     1      43.573  -9.754   7.532  1.00  0.00     0.113 A 
HETATM    9  C   UNL     1      43.683  -8.553   8.192  1.00  0.00     0.105 A 
HETATM   10  O   UNL     1      42.368  -9.893   6.909  1.00  0.00    -0.322 OA
HETATM   11  O   UNL     1      42.577  -7.780   8.053  1.00  0.00    -0.323 OA
HETATM   12  C   UNL     1      44.812  -8.224   8.909  1.00  0.00     0.040 A 
HETATM   13  C   UNL     1      41.769  -8.597   7.188  1.00  0.00     0.352 A 
HETATM   14  C   UNL     1      45.854  -9.152   8.941  1.00  0.00     0.003 A 
HETATM   15  C   UNL     1      45.746 -10.381   8.261  1.00  0.00     0.012 A 
ENDBRANCH   6   7
ENDBRANCH   3   6
ENDBRANCH   2   3
BRANCH   2  16
HETATM   16  C   UNL     1      42.410 -14.561   5.682  1.00  0.00     0.203 A 
HETATM   17  O   UNL     1      41.785 -15.296   6.636  1.00  0.00    -0.194 OA
HETATM   18  N   UNL     1      41.972 -16.626   6.287  1.00  0.00    -0.106 NA
HETATM   19  C   UNL     1      42.701 -16.576   5.159  1.00  0.00     0.189 A 
HETATM   20  N   UNL     1      43.007 -15.284   4.760  1.00  0.00    -0.202 NA
BRANCH  19  21
HETATM   21  C   UNL     1      43.130 -17.752   4.410  1.00  0.00     0.017 A 
HETATM   22  C   UNL     1      43.781 -18.806   5.064  1.00  0.00     0.057 A 
HETATM   23  C   UNL     1      44.193 -19.922   4.343  1.00  0.00     0.117 A 
HETATM   24  F   UNL     1      44.811 -20.922   4.985  1.00  0.00    -0.206 F 
HETATM   25  C   UNL     1      43.975 -20.018   2.975  1.00  0.00     0.042 A 
HETATM   26  C   UNL     1      43.330 -18.977   2.312  1.00  0.00     0.004 A 
HETATM   27  C   UNL     1      42.909 -17.850   3.026  1.00  0.00     0.016 A 
ENDBRANCH  19  21
ENDBRANCH   2  16
TORSDOF 5
ENDMDL
MODEL 10
REMARK VINA RESULT:      -7.8      6.100      9.164
REMARK  5 active torsions:
REMARK  status: ('A' for Active; 'I' for Inactive)
REMARK    1  A    between atoms: C_2  and  N_3 
REMARK    2  A    between atoms: C_2  and  C_16 
REMARK    3  A    between atoms: N_3  and  C_6 
REMARK    4  A    between atoms: C_6  and  C_7 
REMARK    5  A    between atoms: C_19  and  C_20 
ROOT
HETATM    1  C   UNL     1      42.786 -10.869   4.674  1.00  0.00     0.049 C 
HETATM    2  C   UNL     1      43.885 -11.729   5.292  1.00  0.00     0.260 C 
ENDROOT
BRANCH   2   3
HETATM    3  N   UNL     1      43.448 -13.174   5.290  1.00  0.00    -0.060 N 
HETATM    4  H   UNL     1      44.283 -13.747   5.082  1.00  0.00     0.278 HD
HETATM    5  H   UNL     1      43.191 -13.459   6.244  1.00  0.00     0.278 HD
BRANCH   3   6
HETATM    6  C   UNL     1      42.392 -13.571   4.323  1.00  0.00     0.274 C 
BRANCH   6   7
HETATM    7  C   UNL     1      42.745 -14.832   3.600  1.00  0.00     0.004 A 
HETATM    8  C   UNL     1      43.013 -16.003   4.293  1.00  0.00     0.113 A 
HETATM    9  C   UNL     1      43.362 -17.170   3.657  1.00  0.00     0.105 A 
HETATM   10  O   UNL     1      42.945 -16.150   5.647  1.00  0.00    -0.322 OA
HETATM   11  O   UNL     1      43.577 -18.191   4.526  1.00  0.00    -0.323 OA
HETATM   12  C   UNL     1      43.461 -17.245   2.285  1.00  0.00     0.040 A 
HETATM   13  C   UNL     1      43.377 -17.532   5.789  1.00  0.00     0.352 A 
HETATM   14  C   UNL     1      43.199 -16.086   1.552  1.00  0.00     0.003 A 
HETATM   15  C   UNL     1      42.847 -14.887   2.201  1.00  0.00     0.012 A 
ENDBRANCH   6   7
ENDBRANCH   3   6
ENDBRANCH   2   3
BRANCH   2  16
HETATM   16  C   UNL     1      44.178 -11.281   6.685  1.00  0.00     0.203 A 
HETATM   17  O   UNL     1      45.421 -11.521   7.174  1.00  0.00    -0.194 OA
HETATM   18  N   UNL     1      45.441 -10.996   8.459  1.00  0.00    -0.106 NA
HETATM   19  C   UNL     1      44.207 -10.494   8.633  1.00  0.00     0.189 A 
HETATM   20  N   UNL     1      43.380 -10.674   7.535  1.00  0.00    -0.202 NA
BRANCH  19  21
HETATM   21  C   UNL     1      43.763  -9.817   9.847  1.00  0.00     0.017 A 
HETATM   22  C   UNL     1      43.534  -8.435   9.839  1.00  0.00     0.057 A 
HETATM   23  C   UNL     1      43.117  -7.793  11.001  1.00  0.00     0.117 A 
HETATM   24  F   UNL     1      42.900  -6.473  10.975  1.00  0.00    -0.206 F 
HETATM   25  C   UNL     1      42.923  -8.497  12.183  1.00  0.00     0.042 A 
HETATM   26  C   UNL     1      43.148  -9.871  12.205  1.00  0.00     0.004 A 
HETATM   27  C   UNL     1      43.565 -10.528  11.043  1.00  0.00     0.016 A 
ENDBRANCH  19  21
ENDBRANCH   2  16
TORSDOF 5
ENDMDL
