MODEL 1
REMARK VINA RESULT:      -7.7      0.000      0.000
REMARK  6 active torsions:
REMARK  status: ('A' for Active; 'I' for Inactive)
REMARK    1  A    between atoms: C_2  and  C_3 
REMARK    2  A    between atoms: C_3  and  N_4 
REMARK    3  A    between atoms: C_3  and  C_15 
REMARK       I    between atoms: N_4  and  C_5 
REMARK    4  A    between atoms: C_5  and  C_6 
REMARK    5  A    between atoms: C_6  and  C_7 
REMARK    6  A    between atoms: C_16  and  O_17 
ROOT
HETATM    1  C   UNL     1      41.955 -14.929   4.625  1.00  0.00     0.128 C 
ENDROOT
BRANCH   1   2
HETATM    2  C   UNL     1      41.199 -15.138   5.992  1.00  0.00    -0.026 C 
HETATM    3  C   UNL     1      40.275 -13.924   6.251  1.00  0.00     0.016 C 
HETATM    4  C   UNL     1      42.149 -15.280   7.196  1.00  0.00     0.016 C 
HETATM    5  C   UNL     1      40.299 -16.391   5.938  1.00  0.00     0.016 C 
ENDBRANCH   1   2
BRANCH   1   6
HETATM    6  N   UNL     1      42.965 -13.865   4.732  1.00  0.00    -0.351 N 
HETATM    7  C   UNL     1      42.828 -12.645   4.109  1.00  0.00     0.222 C 
HETATM    8  O   UNL     1      41.821 -12.293   3.502  1.00  0.00    -0.273 OA
HETATM    9  H   UNL     1      43.837 -14.088   5.188  1.00  0.00     0.163 HD
BRANCH   7  10
HETATM   10  C   UNL     1      44.028 -11.726   4.259  1.00  0.00     0.142 C 
BRANCH  10  11
HETATM   11  C   UNL     1      44.338 -11.337   5.683  1.00  0.00    -0.032 A 
HETATM   12  C   UNL     1      43.359 -10.847   6.546  1.00  0.00     0.126 A 
HETATM   13  N   UNL     1      43.600 -10.436   7.813  1.00  0.00    -0.248 NA
HETATM   14  C   UNL     1      44.877 -10.499   8.233  1.00  0.00     0.125 A 
HETATM   15 CL   UNL     1      45.135  -9.953   9.838  1.00  0.00    -0.063 Cl
HETATM   16  C   UNL     1      45.931 -10.951   7.460  1.00  0.00     0.045 A 
HETATM   17  C   UNL     1      45.653 -11.374   6.162  1.00  0.00     0.012 A 
ENDBRANCH  10  11
ENDBRANCH   7  10
ENDBRANCH   1   6
BRANCH   1  18
HETATM   18  C   UNL     1      42.585 -16.194   4.030  1.00  0.00    -0.001 A 
HETATM   19  C   UNL     1      42.120 -16.728   2.805  1.00  0.00     0.076 A 
HETATM   20  C   UNL     1      42.715 -17.880   2.273  1.00  0.00     0.037 A 
HETATM   21  C   UNL     1      43.756 -18.518   2.947  1.00  0.00     0.003 A 
HETATM   22  C   UNL     1      44.214 -18.012   4.157  1.00  0.00     0.001 A 
HETATM   23  C   UNL     1      43.635 -16.862   4.692  1.00  0.00     0.012 A 
BRANCH  19  24
HETATM   24  O   UNL     1      41.087 -16.057   2.206  1.00  0.00    -0.355 OA
HETATM   25  C   UNL     1      41.403 -15.153   1.156  1.00  0.00     0.210 C 
ENDBRANCH  19  24
ENDBRANCH   1  18
TORSDOF 6
ENDMDL
MODEL 2
REMARK VINA RESULT:      -7.4      1.412      2.248
REMARK  6 active torsions:
REMARK  status: ('A' for Active; 'I' for Inactive)
REMARK    1  A    between atoms: C_2  and  C_3 
REMARK    2  A    between atoms: C_3  and  N_4 
REMARK    3  A    between atoms: C_3  and  C_15 
REMARK       I    between atoms: N_4  and  C_5 
REMARK    4  A    between atoms: C_5  and  C_6 
REMARK    5  A    between atoms: C_6  and  C_7 
REMARK    6  A    between atoms: C_16  and  O_17 
ROOT
HETATM    1  C   UNL     1      42.282 -14.918   3.394  1.00  0.00     0.128 C 
ENDROOT
BRANCH   1   2
HETATM    2  C   UNL     1      40.859 -14.835   4.064  1.00  0.00    -0.026 C 
HETATM    3  C   UNL     1      39.832 -14.343   3.017  1.00  0.00     0.016 C 
HETATM    4  C   UNL     1      40.811 -13.874   5.268  1.00  0.00     0.016 C 
HETATM    5  C   UNL     1      40.393 -16.227   4.541  1.00  0.00     0.016 C 
ENDBRANCH   1   2
BRANCH   1   6
HETATM    6  N   UNL     1      43.152 -13.824   3.852  1.00  0.00    -0.351 N 
HETATM    7  C   UNL     1      43.208 -12.603   3.216  1.00  0.00     0.222 C 
HETATM    8  O   UNL     1      42.475 -12.278   2.288  1.00  0.00    -0.273 OA
HETATM    9  H   UNL     1      43.809 -14.023   4.590  1.00  0.00     0.163 HD
BRANCH   7  10
HETATM   10  C   UNL     1      44.245 -11.649   3.784  1.00  0.00     0.142 C 
BRANCH  10  11
HETATM   11  C   UNL     1      44.114 -11.399   5.266  1.00  0.00    -0.032 A 
HETATM   12  C   UNL     1      42.967 -10.834   5.823  1.00  0.00     0.126 A 
HETATM   13  N   UNL     1      42.826 -10.542   7.137  1.00  0.00    -0.248 NA
HETATM   14  C   UNL     1      43.879 -10.810   7.929  1.00  0.00     0.125 A 
HETATM   15 CL   UNL     1      43.658 -10.409   9.582  1.00  0.00    -0.063 Cl
HETATM   16  C   UNL     1      45.071 -11.354   7.485  1.00  0.00     0.045 A 
HETATM   17  C   UNL     1      45.188 -11.649   6.128  1.00  0.00     0.012 A 
ENDBRANCH  10  11
ENDBRANCH   7  10
ENDBRANCH   1   6
BRANCH   1  18
HETATM   18  C   UNL     1      43.001 -16.263   3.553  1.00  0.00    -0.001 A 
HETATM   19  C   UNL     1      43.687 -16.582   4.748  1.00  0.00     0.076 A 
HETATM   20  C   UNL     1      44.329 -17.820   4.877  1.00  0.00     0.037 A 
HETATM   21  C   UNL     1      44.312 -18.742   3.830  1.00  0.00     0.003 A 
HETATM   22  C   UNL     1      43.653 -18.438   2.646  1.00  0.00     0.001 A 
HETATM   23  C   UNL     1      43.003 -17.211   2.510  1.00  0.00     0.012 A 
BRANCH  19  24
HETATM   24  O   UNL     1      43.673 -15.624   5.728  1.00  0.00    -0.355 OA
HETATM   25  C   UNL     1      43.501 -16.052   7.071  1.00  0.00     0.210 C 
ENDBRANCH  19  24
ENDBRANCH   1  18
TORSDOF 6
ENDMDL
MODEL 3
REMARK VINA RESULT:      -7.2      1.894      2.896
REMARK  6 active torsions:
REMARK  status: ('A' for Active; 'I' for Inactive)
REMARK    1  A    between atoms: C_2  and  C_3 
REMARK    2  A    between atoms: C_3  and  N_4 
REMARK    3  A    between atoms: C_3  and  C_15 
REMARK       I    between atoms: N_4  and  C_5 
REMARK    4  A    between atoms: C_5  and  C_6 
REMARK    5  A    between atoms: C_6  and  C_7 
REMARK    6  A    between atoms: C_16  and  O_17 
ROOT
HETATM    1  C   UNL     1      42.458 -13.153   3.768  1.00  0.00     0.128 C 
ENDROOT
BRANCH   1   2
HETATM    2  C   UNL     1      40.930 -12.775   3.832  1.00  0.00    -0.026 C 
HETATM    3  C   UNL     1      40.519 -12.566   5.309  1.00  0.00     0.016 C 
HETATM    4  C   UNL     1      40.011 -13.855   3.229  1.00  0.00     0.016 C 
HETATM    5  C   UNL     1      40.659 -11.447   3.093  1.00  0.00     0.016 C 
ENDBRANCH   1   2
BRANCH   1   6
HETATM    6  N   UNL     1      43.122 -12.904   5.056  1.00  0.00    -0.351 N 
HETATM    7  C   UNL     1      44.163 -12.013   5.195  1.00  0.00     0.222 C 
HETATM    8  O   UNL     1      44.559 -11.274   4.299  1.00  0.00    -0.273 OA
HETATM    9  H   UNL     1      42.876 -13.495   5.835  1.00  0.00     0.163 HD
BRANCH   7  10
HETATM   10  C   UNL     1      44.778 -11.980   6.584  1.00  0.00     0.142 C 
BRANCH  10  11
HETATM   11  C   UNL     1      44.553 -10.690   7.332  1.00  0.00    -0.032 A 
HETATM   12  C   UNL     1      43.291 -10.106   7.439  1.00  0.00     0.126 A 
HETATM   13  N   UNL     1      43.050  -8.924   8.053  1.00  0.00    -0.248 NA
HETATM   14  C   UNL     1      44.117  -8.286   8.568  1.00  0.00     0.125 A 
HETATM   15 CL   UNL     1      43.764  -6.786   9.321  1.00  0.00    -0.063 Cl
HETATM   16  C   UNL     1      45.414  -8.761   8.507  1.00  0.00     0.045 A 
HETATM   17  C   UNL     1      45.633  -9.982   7.874  1.00  0.00     0.012 A 
ENDBRANCH  10  11
ENDBRANCH   7  10
ENDBRANCH   1   6
BRANCH   1  18
HETATM   18  C   UNL     1      42.757 -14.578   3.288  1.00  0.00    -0.001 A 
HETATM   19  C   UNL     1      42.711 -15.671   4.185  1.00  0.00     0.076 A 
HETATM   20  C   UNL     1      42.979 -16.966   3.724  1.00  0.00     0.037 A 
HETATM   21  C   UNL     1      43.305 -17.192   2.388  1.00  0.00     0.003 A 
HETATM   22  C   UNL     1      43.367 -16.127   1.498  1.00  0.00     0.001 A 
HETATM   23  C   UNL     1      43.095 -14.834   1.943  1.00  0.00     0.012 A 
BRANCH  19  24
HETATM   24  O   UNL     1      42.396 -15.373   5.485  1.00  0.00    -0.355 OA
HETATM   25  C   UNL     1      41.352 -16.113   6.101  1.00  0.00     0.210 C 
ENDBRANCH  19  24
ENDBRANCH   1  18
TORSDOF 6
ENDMDL
MODEL 4
REMARK VINA RESULT:      -7.1      4.588      6.946
REMARK  6 active torsions:
REMARK  status: ('A' for Active; 'I' for Inactive)
REMARK    1  A    between atoms: C_2  and  C_3 
REMARK    2  A    between atoms: C_3  and  N_4 
REMARK    3  A    between atoms: C_3  and  C_15 
REMARK       I    between atoms: N_4  and  C_5 
REMARK    4  A    between atoms: C_5  and  C_6 
REMARK    5  A    between atoms: C_6  and  C_7 
REMARK    6  A    between atoms: C_16  and  O_17 
ROOT
HETATM    1  C   UNL     1      41.539 -13.171   3.614  1.00  0.00     0.128 C 
ENDROOT
BRANCH   1   2
HETATM    2  C   UNL     1      42.562 -12.329   4.466  1.00  0.00    -0.026 C 
HETATM    3  C   UNL     1      41.791 -11.258   5.274  1.00  0.00     0.016 C 
HETATM    4  C   UNL     1      43.620 -11.610   3.607  1.00  0.00     0.016 C 
HETATM    5  C   UNL     1      43.298 -13.225   5.485  1.00  0.00     0.016 C 
ENDBRANCH   1   2
BRANCH   1   6
HETATM    6  N   UNL     1      40.980 -12.373   2.512  1.00  0.00    -0.351 N 
HETATM    7  C   UNL     1      39.649 -12.418   2.162  1.00  0.00     0.222 C 
HETATM    8  O   UNL     1      38.794 -13.034   2.791  1.00  0.00    -0.273 OA
HETATM    9  H   UNL     1      41.624 -11.864   1.926  1.00  0.00     0.163 HD
BRANCH   7  10
HETATM   10  C   UNL     1      39.297 -11.599   0.932  1.00  0.00     0.142 C 
BRANCH  10  11
HETATM   11  C   UNL     1      39.047 -12.419  -0.309  1.00  0.00    -0.032 A 
HETATM   12  C   UNL     1      37.957 -12.184  -1.146  1.00  0.00     0.126 A 
HETATM   13  N   UNL     1      37.664 -12.928  -2.238  1.00  0.00    -0.248 NA
HETATM   14  C   UNL     1      38.483 -13.962  -2.499  1.00  0.00     0.125 A 
HETATM   15 CL   UNL     1      38.061 -14.883  -3.883  1.00  0.00    -0.063 Cl
HETATM   16  C   UNL     1      39.582 -14.300  -1.731  1.00  0.00     0.045 A 
HETATM   17  C   UNL     1      39.864 -13.514  -0.615  1.00  0.00     0.012 A 
ENDBRANCH  10  11
ENDBRANCH   7  10
ENDBRANCH   1   6
BRANCH   1  18
HETATM   18  C   UNL     1      42.077 -14.503   3.079  1.00  0.00    -0.001 A 
HETATM   19  C   UNL     1      41.630 -15.734   3.615  1.00  0.00     0.076 A 
HETATM   20  C   UNL     1      42.128 -16.940   3.105  1.00  0.00     0.037 A 
HETATM   21  C   UNL     1      43.073 -16.943   2.080  1.00  0.00     0.003 A 
HETATM   22  C   UNL     1      43.531 -15.742   1.553  1.00  0.00     0.001 A 
HETATM   23  C   UNL     1      43.037 -14.535   2.047  1.00  0.00     0.012 A 
BRANCH  19  24
HETATM   24  O   UNL     1      40.711 -15.654   4.628  1.00  0.00    -0.355 OA
HETATM   25  C   UNL     1      41.023 -16.296   5.857  1.00  0.00     0.210 C 
ENDBRANCH  19  24
ENDBRANCH   1  18
TORSDOF 6
ENDMDL
MODEL 5
REMARK VINA RESULT:      -7.1      4.049      6.440
REMARK  6 active torsions:
REMARK  status: ('A' for Active; 'I' for Inactive)
REMARK    1  A    between atoms: C_2  and  C_3 
REMARK    2  A    between atoms: C_3  and  N_4 
REMARK    3  A    between atoms: C_3  and  C_15 
REMARK       I    between atoms: N_4  and  C_5 
REMARK    4  A    between atoms: C_5  and  C_6 
REMARK    5  A    between atoms: C_6  and  C_7 
REMARK    6  A    between atoms: C_16  and  O_17 
ROOT
HETATM    1  C   UNL     1      40.964 -12.539   2.797  1.00  0.00     0.128 C 
ENDROOT
BRANCH   1   2
HETATM    2  C   UNL     1      39.800 -11.699   3.446  1.00  0.00    -0.026 C 
HETATM    3  C   UNL     1      39.428 -12.319   4.814  1.00  0.00     0.016 C 
HETATM    4  C   UNL     1      38.526 -11.655   2.580  1.00  0.00     0.016 C 
HETATM    5  C   UNL     1      40.250 -10.247   3.713  1.00  0.00     0.016 C 
ENDBRANCH   1   2
BRANCH   1   6
HETATM    6  N   UNL     1      41.437 -13.589   3.711  1.00  0.00    -0.351 N 
HETATM    7  C   UNL     1      42.741 -14.030   3.725  1.00  0.00     0.222 C 
HETATM    8  O   UNL     1      43.644 -13.525   3.064  1.00  0.00    -0.273 OA
HETATM    9  H   UNL     1      40.749 -14.077   4.264  1.00  0.00     0.163 HD
BRANCH   7  10
HETATM   10  C   UNL     1      43.000 -15.192   4.669  1.00  0.00     0.142 C 
BRANCH  10  11
HETATM   11  C   UNL     1      43.152 -16.527   3.983  1.00  0.00    -0.032 A 
HETATM   12  C   UNL     1      44.009 -17.515   4.467  1.00  0.00     0.126 A 
HETATM   13  N   UNL     1      44.218 -18.704   3.856  1.00  0.00    -0.248 NA
HETATM   14  C   UNL     1      43.558 -18.912   2.702  1.00  0.00     0.125 A 
HETATM   15 CL   UNL     1      43.868 -20.426   1.958  1.00  0.00    -0.063 Cl
HETATM   16  C   UNL     1      42.697 -17.999   2.121  1.00  0.00     0.045 A 
HETATM   17  C   UNL     1      42.496 -16.785   2.773  1.00  0.00     0.012 A 
ENDBRANCH  10  11
ENDBRANCH   7  10
ENDBRANCH   1   6
BRANCH   1  18
HETATM   18  C   UNL     1      40.645 -13.141   1.423  1.00  0.00    -0.001 A 
HETATM   19  C   UNL     1      40.853 -12.397   0.238  1.00  0.00     0.076 A 
HETATM   20  C   UNL     1      40.563 -12.969  -1.007  1.00  0.00     0.037 A 
HETATM   21  C   UNL     1      40.056 -14.265  -1.094  1.00  0.00     0.003 A 
HETATM   22  C   UNL     1      39.834 -15.003   0.062  1.00  0.00     0.001 A 
HETATM   23  C   UNL     1      40.126 -14.447   1.307  1.00  0.00     0.012 A 
BRANCH  19  24
HETATM   24  O   UNL     1      41.341 -11.126   0.400  1.00  0.00    -0.355 OA
HETATM   25  C   UNL     1      40.590 -10.054  -0.153  1.00  0.00     0.210 C 
ENDBRANCH  19  24
ENDBRANCH   1  18
TORSDOF 6
ENDMDL
MODEL 6
REMARK VINA RESULT:      -6.9      3.527      6.555
REMARK  6 active torsions:
REMARK  status: ('A' for Active; 'I' for Inactive)
REMARK    1  A    between atoms: C_2  and  C_3 
REMARK    2  A    between atoms: C_3  and  N_4 
REMARK    3  A    between atoms: C_3  and  C_15 
REMARK       I    between atoms: N_4  and  C_5 
REMARK    4  A    between atoms: C_5  and  C_6 
REMARK    5  A    between atoms: C_6  and  C_7 
REMARK    6  A    between atoms: C_16  and  O_17 
ROOT
HETATM    1  C   UNL     1      41.645 -13.700   4.089  1.00  0.00     0.128 C 
ENDROOT
BRANCH   1   2
HETATM    2  C   UNL     1      41.233 -13.957   5.588  1.00  0.00    -0.026 C 
HETATM    3  C   UNL     1      42.483 -13.817   6.489  1.00  0.00     0.016 C 
HETATM    4  C   UNL     1      40.630 -15.355   5.820  1.00  0.00     0.016 C 
HETATM    5  C   UNL     1      40.208 -12.906   6.066  1.00  0.00     0.016 C 
ENDBRANCH   1   2
BRANCH   1   6
HETATM    6  N   UNL     1      41.862 -14.965   3.372  1.00  0.00    -0.351 N 
HETATM    7  C   UNL     1      42.841 -15.119   2.416  1.00  0.00     0.222 C 
HETATM    8  O   UNL     1      43.681 -14.265   2.150  1.00  0.00    -0.273 OA
HETATM    9  H   UNL     1      41.193 -15.706   3.511  1.00  0.00     0.163 HD
BRANCH   7  10
HETATM   10  C   UNL     1      42.832 -16.470   1.721  1.00  0.00     0.142 C 
BRANCH  10  11
HETATM   11  C   UNL     1      43.220 -17.627   2.608  1.00  0.00    -0.032 A 
HETATM   12  C   UNL     1      43.708 -17.438   3.900  1.00  0.00     0.126 A 
HETATM   13  N   UNL     1      44.119 -18.441   4.711  1.00  0.00    -0.248 NA
HETATM   14  C   UNL     1      44.057 -19.686   4.206  1.00  0.00     0.125 A 
HETATM   15 CL   UNL     1      44.602 -20.921   5.264  1.00  0.00    -0.063 Cl
HETATM   16  C   UNL     1      43.606 -19.991   2.934  1.00  0.00     0.045 A 
HETATM   17  C   UNL     1      43.185 -18.939   2.123  1.00  0.00     0.012 A 
ENDBRANCH  10  11
ENDBRANCH   7  10
ENDBRANCH   1   6
BRANCH   1  18
HETATM   18  C   UNL     1      40.688 -12.803   3.295  1.00  0.00    -0.001 A 
HETATM   19  C   UNL     1      41.019 -11.457   3.014  1.00  0.00     0.076 A 
HETATM   20  C   UNL     1      40.135 -10.657   2.280  1.00  0.00     0.037 A 
HETATM   21  C   UNL     1      38.918 -11.170   1.830  1.00  0.00     0.003 A 
HETATM   22  C   UNL     1      38.573 -12.486   2.109  1.00  0.00     0.001 A 
HETATM   23  C   UNL     1      39.450 -13.294   2.833  1.00  0.00     0.012 A 
BRANCH  19  24
HETATM   24  O   UNL     1      42.224 -11.017   3.498  1.00  0.00    -0.355 OA
HETATM   25  C   UNL     1      42.206 -10.061   4.549  1.00  0.00     0.210 C 
ENDBRANCH  19  24
ENDBRANCH   1  18
TORSDOF 6
ENDMDL
MODEL 7
REMARK VINA RESULT:      -6.8      3.968      6.367
REMARK  6 active torsions:
REMARK  status: ('A' for Active; 'I' for Inactive)
REMARK    1  A    between atoms: C_2  and  C_3 
REMARK    2  A    between atoms: C_3  and  N_4 
REMARK    3  A    between atoms: C_3  and  C_15 
REMARK       I    between atoms: N_4  and  C_5 
REMARK    4  A    between atoms: C_5  and  C_6 
REMARK    5  A    between atoms: C_6  and  C_7 
REMARK    6  A    between atoms: C_16  and  O_17 
ROOT
HETATM    1  C   UNL     1      40.462 -11.717   0.992  1.00  0.00     0.128 C 
ENDROOT
BRANCH   1   2
HETATM    2  C   UNL     1      39.114 -11.198   1.622  1.00  0.00    -0.026 C 
HETATM    3  C   UNL     1      39.281  -9.713   2.026  1.00  0.00     0.016 C 
HETATM    4  C   UNL     1      38.685 -11.988   2.873  1.00  0.00     0.016 C 
HETATM    5  C   UNL     1      37.965 -11.263   0.593  1.00  0.00     0.016 C 
ENDBRANCH   1   2
BRANCH   1   6
HETATM    6  N   UNL     1      41.266 -12.448   1.982  1.00  0.00    -0.351 N 
HETATM    7  C   UNL     1      42.362 -11.894   2.605  1.00  0.00     0.222 C 
HETATM    8  O   UNL     1      42.705 -10.723   2.477  1.00  0.00    -0.273 OA
HETATM    9  H   UNL     1      41.067 -13.427   2.120  1.00  0.00     0.163 HD
BRANCH   7  10
HETATM   10  C   UNL     1      43.115 -12.850   3.515  1.00  0.00     0.142 C 
BRANCH  10  11
HETATM   11  C   UNL     1      43.004 -14.301   3.119  1.00  0.00    -0.032 A 
HETATM   12  C   UNL     1      42.527 -15.274   3.997  1.00  0.00     0.126 A 
HETATM   13  N   UNL     1      42.460 -16.594   3.705  1.00  0.00    -0.248 NA
HETATM   14  C   UNL     1      42.905 -16.964   2.490  1.00  0.00     0.125 A 
HETATM   15 CL   UNL     1      42.815 -18.647   2.172  1.00  0.00    -0.063 Cl
HETATM   16  C   UNL     1      43.414 -16.090   1.546  1.00  0.00     0.045 A 
HETATM   17  C   UNL     1      43.466 -14.736   1.871  1.00  0.00     0.012 A 
ENDBRANCH  10  11
ENDBRANCH   7  10
ENDBRANCH   1   6
BRANCH   1  18
HETATM   18  C   UNL     1      40.305 -12.556  -0.282  1.00  0.00    -0.001 A 
HETATM   19  C   UNL     1      40.006 -13.936  -0.209  1.00  0.00     0.076 A 
HETATM   20  C   UNL     1      39.858 -14.683  -1.386  1.00  0.00     0.037 A 
HETATM   21  C   UNL     1      40.017 -14.081  -2.634  1.00  0.00     0.003 A 
HETATM   22  C   UNL     1      40.324 -12.729  -2.721  1.00  0.00     0.001 A 
HETATM   23  C   UNL     1      40.465 -11.975  -1.557  1.00  0.00     0.012 A 
BRANCH  19  24
HETATM   24  O   UNL     1      39.877 -14.462   1.049  1.00  0.00    -0.355 OA
HETATM   25  C   UNL     1      39.759 -15.873   1.169  1.00  0.00     0.210 C 
ENDBRANCH  19  24
ENDBRANCH   1  18
TORSDOF 6
ENDMDL
MODEL 8
REMARK VINA RESULT:      -6.5      3.896      6.195
REMARK  6 active torsions:
REMARK  status: ('A' for Active; 'I' for Inactive)
REMARK    1  A    between atoms: C_2  and  C_3 
REMARK    2  A    between atoms: C_3  and  N_4 
REMARK    3  A    between atoms: C_3  and  C_15 
REMARK       I    between atoms: N_4  and  C_5 
REMARK    4  A    between atoms: C_5  and  C_6 
REMARK    5  A    between atoms: C_6  and  C_7 
REMARK    6  A    between atoms: C_16  and  O_17 
ROOT
HETATM    1  C   UNL     1      42.090 -12.910   4.846  1.00  0.00     0.128 C 
ENDROOT
BRANCH   1   2
HETATM    2  C   UNL     1      43.281 -11.973   5.276  1.00  0.00    -0.026 C 
HETATM    3  C   UNL     1      44.104 -11.590   4.022  1.00  0.00     0.016 C 
HETATM    4  C   UNL     1      44.235 -12.631   6.291  1.00  0.00     0.016 C 
HETATM    5  C   UNL     1      42.754 -10.659   5.892  1.00  0.00     0.016 C 
ENDBRANCH   1   2
BRANCH   1   6
HETATM    6  N   UNL     1      41.239 -12.262   3.837  1.00  0.00    -0.351 N 
HETATM    7  C   UNL     1      39.864 -12.272   3.907  1.00  0.00     0.222 C 
HETATM    8  O   UNL     1      39.227 -12.722   4.854  1.00  0.00    -0.273 OA
HETATM    9  H   UNL     1      41.685 -11.897   3.010  1.00  0.00     0.163 HD
BRANCH   7  10
HETATM   10  C   UNL     1      39.171 -11.637   2.712  1.00  0.00     0.142 C 
BRANCH  10  11
HETATM   11  C   UNL     1      39.503 -12.279   1.389  1.00  0.00    -0.032 A 
HETATM   12  C   UNL     1      39.448 -11.572   0.188  1.00  0.00     0.126 A 
HETATM   13  N   UNL     1      39.685 -12.120  -1.027  1.00  0.00    -0.248 NA
HETATM   14  C   UNL     1      39.971 -13.434  -1.049  1.00  0.00     0.125 A 
HETATM   15 CL   UNL     1      40.247 -14.085  -2.611  1.00  0.00    -0.063 Cl
HETATM   16  C   UNL     1      40.036 -14.237   0.075  1.00  0.00     0.045 A 
HETATM   17  C   UNL     1      39.794 -13.647   1.314  1.00  0.00     0.012 A 
ENDBRANCH  10  11
ENDBRANCH   7  10
ENDBRANCH   1   6
BRANCH   1  18
HETATM   18  C   UNL     1      42.500 -14.308   4.369  1.00  0.00    -0.001 A 
HETATM   19  C   UNL     1      42.428 -15.422   5.238  1.00  0.00     0.076 A 
HETATM   20  C   UNL     1      42.800 -16.692   4.780  1.00  0.00     0.037 A 
HETATM   21  C   UNL     1      43.254 -16.872   3.473  1.00  0.00     0.003 A 
HETATM   22  C   UNL     1      43.342 -15.785   2.612  1.00  0.00     0.001 A 
HETATM   23  C   UNL     1      42.967 -14.517   3.055  1.00  0.00     0.012 A 
BRANCH  19  24
HETATM   24  O   UNL     1      41.986 -15.169   6.510  1.00  0.00    -0.355 OA
HETATM   25  C   UNL     1      42.694 -15.765   7.589  1.00  0.00     0.210 C 
ENDBRANCH  19  24
ENDBRANCH   1  18
TORSDOF 6
ENDMDL
MODEL 9
REMARK VINA RESULT:      -6.4      5.380      9.503
REMARK  6 active torsions:
REMARK  status: ('A' for Active; 'I' for Inactive)
REMARK    1  A    between atoms: C_2  and  C_3 
REMARK    2  A    between atoms: C_3  and  N_4 
REMARK    3  A    between atoms: C_3  and  C_15 
REMARK       I    between atoms: N_4  and  C_5 
REMARK    4  A    between atoms: C_5  and  C_6 
REMARK    5  A    between atoms: C_6  and  C_7 
REMARK    6  A    between atoms: C_16  and  O_17 
ROOT
HETATM    1  C   UNL     1      41.593  -9.334  11.361  1.00  0.00     0.128 C 
ENDROOT
BRANCH   1   2
HETATM    2  C   UNL     1      40.299  -8.875  10.588  1.00  0.00    -0.026 C 
HETATM    3  C   UNL     1      40.707  -8.308   9.207  1.00  0.00     0.016 C 
HETATM    4  C   UNL     1      39.500  -7.789  11.333  1.00  0.00     0.016 C 
HETATM    5  C   UNL     1      39.359 -10.071  10.328  1.00  0.00     0.016 C 
ENDBRANCH   1   2
BRANCH   1   6
HETATM    6  N   UNL     1      42.776  -9.299  10.488  1.00  0.00    -0.351 N 
HETATM    7  C   UNL     1      43.773 -10.246  10.548  1.00  0.00     0.222 C 
HETATM    8  O   UNL     1      43.722 -11.253  11.248  1.00  0.00    -0.273 OA
HETATM    9  H   UNL     1      42.907  -8.485   9.906  1.00  0.00     0.163 HD
BRANCH   7  10
HETATM   10  C   UNL     1      44.956  -9.970   9.636  1.00  0.00     0.142 C 
BRANCH  10  11
HETATM   11  C   UNL     1      44.750 -10.400   8.205  1.00  0.00    -0.032 A 
HETATM   12  C   UNL     1      43.489 -10.412   7.610  1.00  0.00     0.126 A 
HETATM   13  N   UNL     1      43.248 -10.840   6.348  1.00  0.00    -0.248 NA
HETATM   14  C   UNL     1      44.308 -11.293   5.655  1.00  0.00     0.125 A 
HETATM   15 CL   UNL     1      43.951 -11.838   4.069  1.00  0.00    -0.063 Cl
HETATM   16  C   UNL     1      45.600 -11.343   6.148  1.00  0.00     0.045 A 
HETATM   17  C   UNL     1      45.820 -10.891   7.447  1.00  0.00     0.012 A 
ENDBRANCH  10  11
ENDBRANCH   7  10
ENDBRANCH   1   6
BRANCH   1  18
HETATM   18  C   UNL     1      41.877  -8.577  12.663  1.00  0.00    -0.001 A 
HETATM   19  C   UNL     1      42.500  -7.307  12.643  1.00  0.00     0.076 A 
HETATM   20  C   UNL     1      42.742  -6.628  13.844  1.00  0.00     0.037 A 
HETATM   21  C   UNL     1      42.387  -7.197  15.067  1.00  0.00     0.003 A 
HETATM   22  C   UNL     1      41.786  -8.448  15.103  1.00  0.00     0.001 A 
HETATM   23  C   UNL     1      41.533  -9.131  13.913  1.00  0.00     0.012 A 
BRANCH  19  24
HETATM   24  O   UNL     1      42.833  -6.816  11.408  1.00  0.00    -0.355 OA
HETATM   25  C   UNL     1      42.391  -5.508  11.074  1.00  0.00     0.210 C 
ENDBRANCH  19  24
ENDBRANCH   1  18
TORSDOF 6
ENDMDL
MODEL 10
REMARK VINA RESULT:      -6.3     16.012     17.846
REMARK  6 active torsions:
REMARK  status: ('A' for Active; 'I' for Inactive)
REMARK    1  A    between atoms: C_2  and  C_3 
REMARK    2  A    between atoms: C_3  and  N_4 
REMARK    3  A    between atoms: C_3  and  C_15 
REMARK       I    between atoms: N_4  and  C_5 
REMARK    4  A    between atoms: C_5  and  C_6 
REMARK    5  A    between atoms: C_6  and  C_7 
REMARK    6  A    between atoms: C_16  and  O_17 
ROOT
HETATM    1  C   UNL     1      45.985 -29.719  -0.108  1.00  0.00     0.128 C 
ENDROOT
BRANCH   1   2
HETATM    2  C   UNL     1      47.389 -29.211   0.392  1.00  0.00    -0.026 C 
HETATM    3  C   UNL     1      48.041 -30.304   1.272  1.00  0.00     0.016 C 
HETATM    4  C   UNL     1      47.306 -27.916   1.223  1.00  0.00     0.016 C 
HETATM    5  C   UNL     1      48.340 -28.958  -0.798  1.00  0.00     0.016 C 
ENDBRANCH   1   2
BRANCH   1   6
HETATM    6  N   UNL     1      44.901 -29.220   0.751  1.00  0.00    -0.351 N 
HETATM    7  C   UNL     1      44.249 -30.017   1.664  1.00  0.00     0.222 C 
HETATM    8  O   UNL     1      44.573 -31.172   1.922  1.00  0.00    -0.273 OA
HETATM    9  H   UNL     1      44.553 -28.289   0.577  1.00  0.00     0.163 HD
BRANCH   7  10
HETATM   10  C   UNL     1      43.091 -29.337   2.376  1.00  0.00     0.142 C 
BRANCH  10  11
HETATM   11  C   UNL     1      41.950 -30.260   2.725  1.00  0.00    -0.032 A 
HETATM   12  C   UNL     1      41.586 -30.521   4.045  1.00  0.00     0.126 A 
HETATM   13  N   UNL     1      40.605 -31.382   4.407  1.00  0.00    -0.248 NA
HETATM   14  C   UNL     1      39.971 -32.023   3.409  1.00  0.00     0.125 A 
HETATM   15 CL   UNL     1      38.749 -33.114   3.917  1.00  0.00    -0.063 Cl
HETATM   16  C   UNL     1      40.257 -31.855   2.067  1.00  0.00     0.045 A 
HETATM   17  C   UNL     1      41.268 -30.960   1.723  1.00  0.00     0.012 A 
ENDBRANCH  10  11
ENDBRANCH   7  10
ENDBRANCH   1   6
BRANCH   1  18
HETATM   18  C   UNL     1      45.670 -29.422  -1.579  1.00  0.00    -0.001 A 
HETATM   19  C   UNL     1      45.780 -30.432  -2.563  1.00  0.00     0.076 A 
HETATM   20  C   UNL     1      45.479 -30.141  -3.900  1.00  0.00     0.037 A 
HETATM   21  C   UNL     1      45.085 -28.858  -4.278  1.00  0.00     0.003 A 
HETATM   22  C   UNL     1      44.985 -27.852  -3.324  1.00  0.00     0.001 A 
HETATM   23  C   UNL     1      45.274 -28.132  -1.989  1.00  0.00     0.012 A 
BRANCH  19  24
HETATM   24  O   UNL     1      46.185 -31.664  -2.123  1.00  0.00    -0.355 OA
HETATM   25  C   UNL     1      47.465 -32.126  -2.532  1.00  0.00     0.210 C 
ENDBRANCH  19  24
ENDBRANCH   1  18
TORSDOF 6
ENDMDL
