MODEL 1
REMARK VINA RESULT:      -7.7      0.000      0.000
REMARK  5 active torsions:
REMARK  status: ('A' for Active; 'I' for Inactive)
REMARK    1  A    between atoms: C_2  and  C_3 
REMARK       I    between atoms: C_3  and  N_4 
REMARK    2  A    between atoms: N_4  and  C_5 
REMARK    3  A    between atoms: C_5  and  C_6 
REMARK    4  A    between atoms: C_5  and  C_17 
REMARK    5  A    between atoms: C_7  and  O_8 
ROOT
HETATM    1  C   UNL     1      42.898 -13.229   3.326  1.00  0.00     0.154 C 
ENDROOT
BRANCH   1   2
HETATM    2  N   UNL     1      43.168 -12.769   4.678  1.00  0.00    -0.348 N 
HETATM    3  C   UNL     1      44.097 -11.811   4.974  1.00  0.00     0.218 C 
HETATM    4  O   UNL     1      44.736 -11.205   4.116  1.00  0.00    -0.274 OA
HETATM    5  H   UNL     1      42.725 -13.314   5.406  1.00  0.00     0.163 HD
BRANCH   3   6
HETATM    6  C   UNL     1      44.214 -11.442   6.442  1.00  0.00     0.098 C 
HETATM    7  C   UNL     1      45.631 -11.252   6.950  1.00  0.00     0.014 C 
ENDBRANCH   3   6
ENDBRANCH   1   2
BRANCH   1   8
HETATM    8  C   UNL     1      41.536 -12.702   2.888  1.00  0.00     0.005 A 
HETATM    9  C   UNL     1      41.364 -11.422   2.338  1.00  0.00     0.103 A 
HETATM   10  C   UNL     1      40.121 -10.921   1.955  1.00  0.00     0.100 A 
HETATM   11  C   UNL     1      38.994 -11.749   2.110  1.00  0.00    -0.004 A 
HETATM   12  N   UNL     1      40.046  -9.671   1.446  1.00  0.00    -0.257 NA
HETATM   13  C   UNL     1      39.140 -13.042   2.642  1.00  0.00     0.014 A 
HETATM   14  C   UNL     1      37.750 -11.242   1.713  1.00  0.00     0.015 A 
HETATM   15  C   UNL     1      40.398 -13.509   3.028  1.00  0.00     0.013 A 
HETATM   16  C   UNL     1      37.662  -9.956   1.193  1.00  0.00     0.020 A 
HETATM   17  C   UNL     1      38.826  -9.217   1.082  1.00  0.00     0.117 A 
BRANCH   9  18
HETATM   18  O   UNL     1      42.466 -10.616   2.130  1.00  0.00    -0.358 OA
HETATM   19  H   UNL     1      42.910 -11.030   1.357  1.00  0.00     0.218 HD
ENDBRANCH   9  18
ENDBRANCH   1   8
BRANCH   1  20
HETATM   20  C   UNL     1      43.031 -14.742   3.145  1.00  0.00    -0.031 A 
HETATM   21  C   UNL     1      43.177 -15.268   1.848  1.00  0.00     0.010 A 
HETATM   22  C   UNL     1      43.293 -16.644   1.633  1.00  0.00     0.007 A 
HETATM   23  C   UNL     1      43.263 -17.534   2.710  1.00  0.00    -0.062 A 
HETATM   24  C   UNL     1      43.413 -19.010   2.496  1.00  0.00     0.048 C 
HETATM   25  C   UNL     1      43.131 -17.022   4.004  1.00  0.00     0.007 A 
HETATM   26  C   UNL     1      43.010 -15.645   4.219  1.00  0.00     0.010 A 
ENDBRANCH   1  20
TORSDOF 5
ENDMDL
MODEL 2
REMARK VINA RESULT:      -7.7      2.815      6.688
REMARK  5 active torsions:
REMARK  status: ('A' for Active; 'I' for Inactive)
REMARK    1  A    between atoms: C_2  and  C_3 
REMARK       I    between atoms: C_3  and  N_4 
REMARK    2  A    between atoms: N_4  and  C_5 
REMARK    3  A    between atoms: C_5  and  C_6 
REMARK    4  A    between atoms: C_5  and  C_17 
REMARK    5  A    between atoms: C_7  and  O_8 
ROOT
HETATM    1  C   UNL     1      41.913 -14.717   3.554  1.00  0.00     0.154 C 
ENDROOT
BRANCH   1   2
HETATM    2  N   UNL     1      42.894 -13.726   3.962  1.00  0.00    -0.348 N 
HETATM    3  C   UNL     1      42.819 -13.035   5.139  1.00  0.00     0.218 C 
HETATM    4  O   UNL     1      41.953 -13.242   5.987  1.00  0.00    -0.274 OA
HETATM    5  H   UNL     1      43.561 -13.471   3.245  1.00  0.00     0.163 HD
BRANCH   3   6
HETATM    6  C   UNL     1      43.955 -12.063   5.402  1.00  0.00     0.098 C 
HETATM    7  C   UNL     1      44.591 -12.168   6.777  1.00  0.00     0.014 C 
ENDBRANCH   3   6
ENDBRANCH   1   2
BRANCH   1   8
HETATM    8  C   UNL     1      42.536 -16.104   3.666  1.00  0.00     0.005 A 
HETATM    9  C   UNL     1      42.604 -16.805   4.880  1.00  0.00     0.103 A 
HETATM   10  C   UNL     1      43.191 -18.063   5.000  1.00  0.00     0.100 A 
HETATM   11  C   UNL     1      43.721 -18.662   3.842  1.00  0.00    -0.004 A 
HETATM   12  N   UNL     1      43.223 -18.660   6.213  1.00  0.00    -0.257 NA
HETATM   13  C   UNL     1      43.651 -17.990   2.610  1.00  0.00     0.014 A 
HETATM   14  C   UNL     1      44.300 -19.931   3.968  1.00  0.00     0.015 A 
HETATM   15  C   UNL     1      43.067 -16.724   2.526  1.00  0.00     0.013 A 
HETATM   16  C   UNL     1      44.342 -20.550   5.213  1.00  0.00     0.020 A 
HETATM   17  C   UNL     1      43.798 -19.881   6.293  1.00  0.00     0.117 A 
BRANCH   9  18
HETATM   18  O   UNL     1      42.042 -16.255   6.016  1.00  0.00    -0.358 OA
HETATM   19  H   UNL     1      41.147 -15.975   5.717  1.00  0.00     0.218 HD
ENDBRANCH   9  18
ENDBRANCH   1   8
BRANCH   1  20
HETATM   20  C   UNL     1      41.299 -14.456   2.177  1.00  0.00    -0.031 A 
HETATM   21  C   UNL     1      40.412 -15.403   1.631  1.00  0.00     0.010 A 
HETATM   22  C   UNL     1      39.834 -15.211   0.373  1.00  0.00     0.007 A 
HETATM   23  C   UNL     1      40.129 -14.068  -0.376  1.00  0.00    -0.062 A 
HETATM   24  C   UNL     1      39.496 -13.838  -1.715  1.00  0.00     0.048 C 
HETATM   25  C   UNL     1      40.999 -13.116   0.163  1.00  0.00     0.007 A 
HETATM   26  C   UNL     1      41.582 -13.310   1.420  1.00  0.00     0.010 A 
ENDBRANCH   1  20
TORSDOF 5
ENDMDL
MODEL 3
REMARK VINA RESULT:      -7.5      2.250      6.426
REMARK  5 active torsions:
REMARK  status: ('A' for Active; 'I' for Inactive)
REMARK    1  A    between atoms: C_2  and  C_3 
REMARK       I    between atoms: C_3  and  N_4 
REMARK    2  A    between atoms: N_4  and  C_5 
REMARK    3  A    between atoms: C_5  and  C_6 
REMARK    4  A    between atoms: C_5  and  C_17 
REMARK    5  A    between atoms: C_7  and  O_8 
ROOT
HETATM    1  C   UNL     1      42.512 -13.183   5.157  1.00  0.00     0.154 C 
ENDROOT
BRANCH   1   2
HETATM    2  N   UNL     1      43.771 -12.478   5.331  1.00  0.00    -0.348 N 
HETATM    3  C   UNL     1      44.358 -12.278   6.549  1.00  0.00     0.218 C 
HETATM    4  O   UNL     1      43.908 -12.737   7.597  1.00  0.00    -0.274 OA
HETATM    5  H   UNL     1      44.112 -12.011   4.501  1.00  0.00     0.163 HD
BRANCH   3   6
HETATM    6  C   UNL     1      45.687 -11.545   6.524  1.00  0.00     0.098 C 
HETATM    7  C   UNL     1      45.963 -10.664   7.730  1.00  0.00     0.014 C 
ENDBRANCH   3   6
ENDBRANCH   1   2
BRANCH   1   8
HETATM    8  C   UNL     1      42.784 -14.515   4.467  1.00  0.00     0.005 A 
HETATM    9  C   UNL     1      43.233 -15.648   5.164  1.00  0.00     0.103 A 
HETATM   10  C   UNL     1      43.506 -16.864   4.540  1.00  0.00     0.100 A 
HETATM   11  C   UNL     1      43.301 -16.960   3.151  1.00  0.00    -0.004 A 
HETATM   12  N   UNL     1      43.947 -17.900   5.288  1.00  0.00    -0.257 NA
HETATM   13  C   UNL     1      42.836 -15.846   2.432  1.00  0.00     0.014 A 
HETATM   14  C   UNL     1      43.569 -18.188   2.534  1.00  0.00     0.015 A 
HETATM   15  C   UNL     1      42.584 -14.637   3.085  1.00  0.00     0.013 A 
HETATM   16  C   UNL     1      44.027 -19.259   3.295  1.00  0.00     0.020 A 
HETATM   17  C   UNL     1      44.200 -19.066   4.653  1.00  0.00     0.117 A 
BRANCH   9  18
HETATM   18  O   UNL     1      43.388 -15.587   6.535  1.00  0.00    -0.358 OA
HETATM   19  H   UNL     1      43.777 -14.695   6.682  1.00  0.00     0.218 HD
ENDBRANCH   9  18
ENDBRANCH   1   8
BRANCH   1  20
HETATM   20  C   UNL     1      41.431 -12.363   4.452  1.00  0.00    -0.031 A 
HETATM   21  C   UNL     1      41.795 -11.182   3.778  1.00  0.00     0.010 A 
HETATM   22  C   UNL     1      40.839 -10.397   3.127  1.00  0.00     0.007 A 
HETATM   23  C   UNL     1      39.492 -10.769   3.134  1.00  0.00    -0.062 A 
HETATM   24  C   UNL     1      38.461  -9.949   2.418  1.00  0.00     0.048 C 
HETATM   25  C   UNL     1      39.121 -11.946   3.790  1.00  0.00     0.007 A 
HETATM   26  C   UNL     1      40.077 -12.730   4.446  1.00  0.00     0.010 A 
ENDBRANCH   1  20
TORSDOF 5
ENDMDL
MODEL 4
REMARK VINA RESULT:      -7.3      2.482      5.912
REMARK  5 active torsions:
REMARK  status: ('A' for Active; 'I' for Inactive)
REMARK    1  A    between atoms: C_2  and  C_3 
REMARK       I    between atoms: C_3  and  N_4 
REMARK    2  A    between atoms: N_4  and  C_5 
REMARK    3  A    between atoms: C_5  and  C_6 
REMARK    4  A    between atoms: C_5  and  C_17 
REMARK    5  A    between atoms: C_7  and  O_8 
ROOT
HETATM    1  C   UNL     1      41.929 -13.331   5.809  1.00  0.00     0.154 C 
ENDROOT
BRANCH   1   2
HETATM    2  N   UNL     1      41.175 -12.636   4.779  1.00  0.00    -0.348 N 
HETATM    3  C   UNL     1      39.828 -12.415   4.854  1.00  0.00     0.218 C 
HETATM    4  O   UNL     1      39.149 -12.722   5.832  1.00  0.00    -0.274 OA
HETATM    5  H   UNL     1      41.690 -12.457   3.927  1.00  0.00     0.163 HD
BRANCH   3   6
HETATM    6  C   UNL     1      39.224 -11.645   3.694  1.00  0.00     0.098 C 
HETATM    7  C   UNL     1      38.954 -12.464   2.444  1.00  0.00     0.014 C 
ENDBRANCH   3   6
ENDBRANCH   1   2
BRANCH   1   8
HETATM    8  C   UNL     1      42.982 -12.384   6.373  1.00  0.00     0.005 A 
HETATM    9  C   UNL     1      42.649 -11.184   7.019  1.00  0.00     0.103 A 
HETATM   10  C   UNL     1      43.604 -10.299   7.519  1.00  0.00     0.100 A 
HETATM   11  C   UNL     1      44.962 -10.642   7.383  1.00  0.00    -0.004 A 
HETATM   12  N   UNL     1      43.193  -9.159   8.117  1.00  0.00    -0.257 NA
HETATM   13  C   UNL     1      45.323 -11.846   6.755  1.00  0.00     0.014 A 
HETATM   14  C   UNL     1      45.915  -9.753   7.896  1.00  0.00     0.015 A 
HETATM   15  C   UNL     1      44.342 -12.704   6.254  1.00  0.00     0.013 A 
HETATM   16  C   UNL     1      45.501  -8.575   8.509  1.00  0.00     0.020 A 
HETATM   17  C   UNL     1      44.144  -8.325   8.592  1.00  0.00     0.117 A 
BRANCH   9  18
HETATM   18  O   UNL     1      41.320 -10.859   7.208  1.00  0.00    -0.358 OA
HETATM   19  H   UNL     1      40.848 -11.445   6.576  1.00  0.00     0.218 HD
ENDBRANCH   9  18
ENDBRANCH   1   8
BRANCH   1  20
HETATM   20  C   UNL     1      42.519 -14.667   5.355  1.00  0.00    -0.031 A 
HETATM   21  C   UNL     1      42.775 -15.666   6.313  1.00  0.00     0.010 A 
HETATM   22  C   UNL     1      43.322 -16.898   5.945  1.00  0.00     0.007 A 
HETATM   23  C   UNL     1      43.632 -17.166   4.609  1.00  0.00    -0.062 A 
HETATM   24  C   UNL     1      44.195 -18.493   4.198  1.00  0.00     0.048 C 
HETATM   25  C   UNL     1      43.371 -16.185   3.647  1.00  0.00     0.007 A 
HETATM   26  C   UNL     1      42.828 -14.950   4.015  1.00  0.00     0.010 A 
ENDBRANCH   1  20
TORSDOF 5
ENDMDL
MODEL 5
REMARK VINA RESULT:      -7.3      2.942      3.539
REMARK  5 active torsions:
REMARK  status: ('A' for Active; 'I' for Inactive)
REMARK    1  A    between atoms: C_2  and  C_3 
REMARK       I    between atoms: C_3  and  N_4 
REMARK    2  A    between atoms: N_4  and  C_5 
REMARK    3  A    between atoms: C_5  and  C_6 
REMARK    4  A    between atoms: C_5  and  C_17 
REMARK    5  A    between atoms: C_7  and  O_8 
ROOT
HETATM    1  C   UNL     1      41.633 -14.329   3.076  1.00  0.00     0.154 C 
ENDROOT
BRANCH   1   2
HETATM    2  N   UNL     1      40.651 -13.927   4.068  1.00  0.00    -0.348 N 
HETATM    3  C   UNL     1      40.517 -12.641   4.514  1.00  0.00     0.218 C 
HETATM    4  O   UNL     1      41.167 -11.701   4.063  1.00  0.00    -0.274 OA
HETATM    5  H   UNL     1      40.169 -14.692   4.520  1.00  0.00     0.163 HD
BRANCH   3   6
HETATM    6  C   UNL     1      39.413 -12.412   5.531  1.00  0.00     0.098 C 
HETATM    7  C   UNL     1      38.985 -10.966   5.706  1.00  0.00     0.014 C 
ENDBRANCH   3   6
ENDBRANCH   1   2
BRANCH   1   8
HETATM    8  C   UNL     1      40.965 -14.360   1.705  1.00  0.00     0.005 A 
HETATM    9  C   UNL     1      41.041 -13.286   0.805  1.00  0.00     0.103 A 
HETATM   10  C   UNL     1      40.416 -13.293  -0.441  1.00  0.00     0.100 A 
HETATM   11  C   UNL     1      39.695 -14.442  -0.816  1.00  0.00    -0.004 A 
HETATM   12  N   UNL     1      40.531 -12.209  -1.240  1.00  0.00    -0.257 NA
HETATM   13  C   UNL     1      39.617 -15.539   0.059  1.00  0.00     0.014 A 
HETATM   14  C   UNL     1      39.078 -14.446  -2.074  1.00  0.00     0.015 A 
HETATM   15  C   UNL     1      40.244 -15.494   1.306  1.00  0.00     0.013 A 
HETATM   16  C   UNL     1      39.188 -13.333  -2.900  1.00  0.00     0.020 A 
HETATM   17  C   UNL     1      39.915 -12.250  -2.442  1.00  0.00     0.117 A 
BRANCH   9  18
HETATM   18  O   UNL     1      41.788 -12.172   1.135  1.00  0.00    -0.358 OA
HETATM   19  H   UNL     1      42.518 -12.539   1.682  1.00  0.00     0.218 HD
ENDBRANCH   9  18
ENDBRANCH   1   8
BRANCH   1  20
HETATM   20  C   UNL     1      42.357 -15.635   3.408  1.00  0.00    -0.031 A 
HETATM   21  C   UNL     1      42.344 -16.108   4.733  1.00  0.00     0.010 A 
HETATM   22  C   UNL     1      42.999 -17.291   5.085  1.00  0.00     0.007 A 
HETATM   23  C   UNL     1      43.689 -18.033   4.122  1.00  0.00    -0.062 A 
HETATM   24  C   UNL     1      44.373 -19.317   4.482  1.00  0.00     0.048 C 
HETATM   25  C   UNL     1      43.697 -17.579   2.801  1.00  0.00     0.007 A 
HETATM   26  C   UNL     1      43.045 -16.392   2.449  1.00  0.00     0.010 A 
ENDBRANCH   1  20
TORSDOF 5
ENDMDL
MODEL 6
REMARK VINA RESULT:      -7.2      2.192      5.518
REMARK  5 active torsions:
REMARK  status: ('A' for Active; 'I' for Inactive)
REMARK    1  A    between atoms: C_2  and  C_3 
REMARK       I    between atoms: C_3  and  N_4 
REMARK    2  A    between atoms: N_4  and  C_5 
REMARK    3  A    between atoms: C_5  and  C_6 
REMARK    4  A    between atoms: C_5  and  C_17 
REMARK    5  A    between atoms: C_7  and  O_8 
ROOT
HETATM    1  C   UNL     1      41.508 -14.386   4.295  1.00  0.00     0.154 C 
ENDROOT
BRANCH   1   2
HETATM    2  N   UNL     1      40.682 -13.712   3.308  1.00  0.00    -0.348 N 
HETATM    3  C   UNL     1      39.613 -12.926   3.633  1.00  0.00     0.218 C 
HETATM    4  O   UNL     1      39.299 -12.663   4.792  1.00  0.00    -0.274 OA
HETATM    5  H   UNL     1      40.861 -13.986   2.350  1.00  0.00     0.163 HD
BRANCH   3   6
HETATM    6  C   UNL     1      38.891 -12.283   2.463  1.00  0.00     0.098 C 
HETATM    7  C   UNL     1      39.791 -11.644   1.420  1.00  0.00     0.014 C 
ENDBRANCH   3   6
ENDBRANCH   1   2
BRANCH   1   8
HETATM    8  C   UNL     1      42.568 -13.413   4.798  1.00  0.00     0.005 A 
HETATM    9  C   UNL     1      42.807 -13.197   6.164  1.00  0.00     0.103 A 
HETATM   10  C   UNL     1      43.757 -12.293   6.637  1.00  0.00     0.100 A 
HETATM   11  C   UNL     1      44.525 -11.584   5.694  1.00  0.00    -0.004 A 
HETATM   12  N   UNL     1      43.911 -12.139   7.971  1.00  0.00    -0.257 NA
HETATM   13  C   UNL     1      44.319 -11.793   4.320  1.00  0.00     0.014 A 
HETATM   14  C   UNL     1      45.485 -10.685   6.176  1.00  0.00     0.015 A 
HETATM   15  C   UNL     1      43.349 -12.697   3.880  1.00  0.00     0.013 A 
HETATM   16  C   UNL     1      45.647 -10.517   7.547  1.00  0.00     0.020 A 
HETATM   17  C   UNL     1      44.844 -11.257   8.394  1.00  0.00     0.117 A 
BRANCH   9  18
HETATM   18  O   UNL     1      42.100 -13.924   7.102  1.00  0.00    -0.358 OA
HETATM   19  H   UNL     1      41.482 -14.462   6.558  1.00  0.00     0.218 HD
ENDBRANCH   9  18
ENDBRANCH   1   8
BRANCH   1  20
HETATM   20  C   UNL     1      42.104 -15.710   3.812  1.00  0.00    -0.031 A 
HETATM   21  C   UNL     1      43.111 -16.328   4.575  1.00  0.00     0.010 A 
HETATM   22  C   UNL     1      43.690 -17.533   4.168  1.00  0.00     0.007 A 
HETATM   23  C   UNL     1      43.281 -18.152   2.984  1.00  0.00    -0.062 A 
HETATM   24  C   UNL     1      43.876 -19.457   2.550  1.00  0.00     0.048 C 
HETATM   25  C   UNL     1      42.272 -17.552   2.224  1.00  0.00     0.007 A 
HETATM   26  C   UNL     1      41.695 -16.344   2.629  1.00  0.00     0.010 A 
ENDBRANCH   1  20
TORSDOF 5
ENDMDL
MODEL 7
REMARK VINA RESULT:      -7.2     13.102     16.623
REMARK  5 active torsions:
REMARK  status: ('A' for Active; 'I' for Inactive)
REMARK    1  A    between atoms: C_2  and  C_3 
REMARK       I    between atoms: C_3  and  N_4 
REMARK    2  A    between atoms: N_4  and  C_5 
REMARK    3  A    between atoms: C_5  and  C_6 
REMARK    4  A    between atoms: C_5  and  C_17 
REMARK    5  A    between atoms: C_7  and  O_8 
ROOT
HETATM    1  C   UNL     1      41.222  -6.367  16.947  1.00  0.00     0.154 C 
ENDROOT
BRANCH   1   2
HETATM    2  N   UNL     1      41.998  -5.204  17.340  1.00  0.00    -0.348 N 
HETATM    3  C   UNL     1      41.436  -4.048  17.805  1.00  0.00     0.218 C 
HETATM    4  O   UNL     1      40.229  -3.916  17.998  1.00  0.00    -0.274 OA
HETATM    5  H   UNL     1      42.981  -5.251  17.105  1.00  0.00     0.163 HD
BRANCH   3   6
HETATM    6  C   UNL     1      42.413  -2.953  18.193  1.00  0.00     0.098 C 
HETATM    7  C   UNL     1      43.140  -3.171  19.508  1.00  0.00     0.014 C 
ENDBRANCH   3   6
ENDBRANCH   1   2
BRANCH   1   8
HETATM    8  C   UNL     1      41.075  -7.291  18.151  1.00  0.00     0.005 A 
HETATM    9  C   UNL     1      42.162  -7.653  18.962  1.00  0.00     0.103 A 
HETATM   10  C   UNL     1      42.044  -8.515  20.051  1.00  0.00     0.100 A 
HETATM   11  C   UNL     1      40.769  -9.026  20.359  1.00  0.00    -0.004 A 
HETATM   12  N   UNL     1      43.147  -8.820  20.770  1.00  0.00    -0.257 NA
HETATM   13  C   UNL     1      39.660  -8.667  19.574  1.00  0.00     0.014 A 
HETATM   14  C   UNL     1      40.656  -9.883  21.461  1.00  0.00     0.015 A 
HETATM   15  C   UNL     1      39.815  -7.811  18.481  1.00  0.00     0.013 A 
HETATM   16  C   UNL     1      41.787 -10.206  22.204  1.00  0.00     0.020 A 
HETATM   17  C   UNL     1      42.997  -9.656  21.821  1.00  0.00     0.117 A 
BRANCH   9  18
HETATM   18  O   UNL     1      43.409  -7.119  18.706  1.00  0.00    -0.358 OA
HETATM   19  H   UNL     1      43.798  -7.746  18.056  1.00  0.00     0.218 HD
ENDBRANCH   9  18
ENDBRANCH   1   8
BRANCH   1  20
HETATM   20  C   UNL     1      41.763  -7.090  15.712  1.00  0.00    -0.031 A 
HETATM   21  C   UNL     1      41.170  -8.301  15.311  1.00  0.00     0.010 A 
HETATM   22  C   UNL     1      41.637  -9.000  14.194  1.00  0.00     0.007 A 
HETATM   23  C   UNL     1      42.713  -8.509  13.449  1.00  0.00    -0.062 A 
HETATM   24  C   UNL     1      43.206  -9.236  12.234  1.00  0.00     0.048 C 
HETATM   25  C   UNL     1      43.301  -7.300  13.832  1.00  0.00     0.007 A 
HETATM   26  C   UNL     1      42.837  -6.603  14.952  1.00  0.00     0.010 A 
ENDBRANCH   1  20
TORSDOF 5
ENDMDL
MODEL 8
REMARK VINA RESULT:      -7.1     16.658     17.945
REMARK  5 active torsions:
REMARK  status: ('A' for Active; 'I' for Inactive)
REMARK    1  A    between atoms: C_2  and  C_3 
REMARK       I    between atoms: C_3  and  N_4 
REMARK    2  A    between atoms: N_4  and  C_5 
REMARK    3  A    between atoms: C_5  and  C_6 
REMARK    4  A    between atoms: C_5  and  C_17 
REMARK    5  A    between atoms: C_7  and  O_8 
ROOT
HETATM    1  C   UNL     1      44.511 -29.399   1.661  1.00  0.00     0.154 C 
ENDROOT
BRANCH   1   2
HETATM    2  N   UNL     1      43.464 -30.129   2.354  1.00  0.00    -0.348 N 
HETATM    3  C   UNL     1      42.139 -29.806   2.266  1.00  0.00     0.218 C 
HETATM    4  O   UNL     1      41.710 -28.915   1.537  1.00  0.00    -0.274 OA
HETATM    5  H   UNL     1      43.796 -30.804   3.030  1.00  0.00     0.163 HD
BRANCH   3   6
HETATM    6  C   UNL     1      41.192 -30.706   3.039  1.00  0.00     0.098 C 
HETATM    7  C   UNL     1      40.447 -31.732   2.204  1.00  0.00     0.014 C 
ENDBRANCH   3   6
ENDBRANCH   1   2
BRANCH   1   8
HETATM    8  C   UNL     1      44.527 -29.828   0.198  1.00  0.00     0.005 A 
HETATM    9  C   UNL     1      44.713 -28.917  -0.854  1.00  0.00     0.103 A 
HETATM   10  C   UNL     1      44.706 -29.293  -2.196  1.00  0.00     0.100 A 
HETATM   11  C   UNL     1      44.524 -30.655  -2.503  1.00  0.00    -0.004 A 
HETATM   12  N   UNL     1      44.881 -28.346  -3.144  1.00  0.00    -0.257 NA
HETATM   13  C   UNL     1      44.351 -31.591  -1.469  1.00  0.00     0.014 A 
HETATM   14  C   UNL     1      44.528 -31.027  -3.853  1.00  0.00     0.015 A 
HETATM   15  C   UNL     1      44.351 -31.178  -0.135  1.00  0.00     0.013 A 
HETATM   16  C   UNL     1      44.703 -30.058  -4.836  1.00  0.00     0.020 A 
HETATM   17  C   UNL     1      44.872 -28.746  -4.436  1.00  0.00     0.117 A 
BRANCH   9  18
HETATM   18  O   UNL     1      44.947 -27.586  -0.568  1.00  0.00    -0.358 OA
HETATM   19  H   UNL     1      45.785 -27.605  -0.055  1.00  0.00     0.218 HD
ENDBRANCH   9  18
ENDBRANCH   1   8
BRANCH   1  20
HETATM   20  C   UNL     1      45.887 -29.505   2.321  1.00  0.00    -0.031 A 
HETATM   21  C   UNL     1      46.173 -30.615   3.137  1.00  0.00     0.010 A 
HETATM   22  C   UNL     1      47.414 -30.749   3.767  1.00  0.00     0.007 A 
HETATM   23  C   UNL     1      48.402 -29.776   3.601  1.00  0.00    -0.062 A 
HETATM   24  C   UNL     1      49.745 -29.921   4.250  1.00  0.00     0.048 C 
HETATM   25  C   UNL     1      48.133 -28.675   2.782  1.00  0.00     0.007 A 
HETATM   26  C   UNL     1      46.890 -28.538   2.155  1.00  0.00     0.010 A 
ENDBRANCH   1  20
TORSDOF 5
ENDMDL
MODEL 9
REMARK VINA RESULT:      -7.1     17.031     18.948
REMARK  5 active torsions:
REMARK  status: ('A' for Active; 'I' for Inactive)
REMARK    1  A    between atoms: C_2  and  C_3 
REMARK       I    between atoms: C_3  and  N_4 
REMARK    2  A    between atoms: N_4  and  C_5 
REMARK    3  A    between atoms: C_5  and  C_6 
REMARK    4  A    between atoms: C_5  and  C_17 
REMARK    5  A    between atoms: C_7  and  O_8 
ROOT
HETATM    1  C   UNL     1      48.628 -29.405  -0.037  1.00  0.00     0.154 C 
ENDROOT
BRANCH   1   2
HETATM    2  N   UNL     1      48.033 -29.900   1.193  1.00  0.00    -0.348 N 
HETATM    3  C   UNL     1      47.482 -29.085   2.142  1.00  0.00     0.218 C 
HETATM    4  O   UNL     1      47.378 -27.868   2.005  1.00  0.00    -0.274 OA
HETATM    5  H   UNL     1      48.188 -30.883   1.372  1.00  0.00     0.163 HD
BRANCH   3   6
HETATM    6  C   UNL     1      46.883 -29.790   3.345  1.00  0.00     0.098 C 
HETATM    7  C   UNL     1      47.880 -30.216   4.408  1.00  0.00     0.014 C 
ENDBRANCH   3   6
ENDBRANCH   1   2
BRANCH   1   8
HETATM    8  C   UNL     1      47.547 -29.322  -1.109  1.00  0.00     0.005 A 
HETATM    9  C   UNL     1      46.850 -30.451  -1.566  1.00  0.00     0.103 A 
HETATM   10  C   UNL     1      45.876 -30.391  -2.562  1.00  0.00     0.100 A 
HETATM   11  C   UNL     1      45.568 -29.134  -3.115  1.00  0.00    -0.004 A 
HETATM   12  N   UNL     1      45.263 -31.531  -2.950  1.00  0.00    -0.257 NA
HETATM   13  C   UNL     1      46.239 -27.985  -2.663  1.00  0.00     0.014 A 
HETATM   14  C   UNL     1      44.581 -29.080  -4.107  1.00  0.00     0.015 A 
HETATM   15  C   UNL     1      47.219 -28.081  -1.673  1.00  0.00     0.013 A 
HETATM   16  C   UNL     1      43.949 -30.249  -4.517  1.00  0.00     0.020 A 
HETATM   17  C   UNL     1      44.322 -31.437  -3.916  1.00  0.00     0.117 A 
BRANCH   9  18
HETATM   18  O   UNL     1      47.102 -31.684  -0.997  1.00  0.00    -0.358 OA
HETATM   19  H   UNL     1      46.743 -32.319  -1.657  1.00  0.00     0.218 HD
ENDBRANCH   9  18
ENDBRANCH   1   8
BRANCH   1  20
HETATM   20  C   UNL     1      49.856 -30.193  -0.497  1.00  0.00    -0.031 A 
HETATM   21  C   UNL     1      50.499 -31.054   0.412  1.00  0.00     0.010 A 
HETATM   22  C   UNL     1      51.629 -31.787   0.038  1.00  0.00     0.007 A 
HETATM   23  C   UNL     1      52.149 -31.678  -1.254  1.00  0.00    -0.062 A 
HETATM   24  C   UNL     1      53.344 -32.478  -1.675  1.00  0.00     0.048 C 
HETATM   25  C   UNL     1      51.511 -30.835  -2.168  1.00  0.00     0.007 A 
HETATM   26  C   UNL     1      50.382 -30.097  -1.793  1.00  0.00     0.010 A 
ENDBRANCH   1  20
TORSDOF 5
ENDMDL
MODEL 10
REMARK VINA RESULT:      -7.1      3.111      5.406
REMARK  5 active torsions:
REMARK  status: ('A' for Active; 'I' for Inactive)
REMARK    1  A    between atoms: C_2  and  C_3 
REMARK       I    between atoms: C_3  and  N_4 
REMARK    2  A    between atoms: N_4  and  C_5 
REMARK    3  A    between atoms: C_5  and  C_6 
REMARK    4  A    between atoms: C_5  and  C_17 
REMARK    5  A    between atoms: C_7  and  O_8 
ROOT
HETATM    1  C   UNL     1      41.878 -15.198   4.341  1.00  0.00     0.154 C 
ENDROOT
BRANCH   1   2
HETATM    2  N   UNL     1      41.844 -14.715   2.972  1.00  0.00    -0.348 N 
HETATM    3  C   UNL     1      40.790 -14.926   2.127  1.00  0.00     0.218 C 
HETATM    4  O   UNL     1      39.750 -15.482   2.474  1.00  0.00    -0.274 OA
HETATM    5  H   UNL     1      42.719 -14.338   2.634  1.00  0.00     0.163 HD
BRANCH   3   6
HETATM    6  C   UNL     1      40.927 -14.317   0.743  1.00  0.00     0.098 C 
HETATM    7  C   UNL     1      39.854 -14.723  -0.252  1.00  0.00     0.014 C 
ENDBRANCH   3   6
ENDBRANCH   1   2
BRANCH   1   8
HETATM    8  C   UNL     1      42.461 -14.109   5.235  1.00  0.00     0.005 A 
HETATM    9  C   UNL     1      41.835 -12.866   5.416  1.00  0.00     0.103 A 
HETATM   10  C   UNL     1      42.369 -11.854   6.212  1.00  0.00     0.100 A 
HETATM   11  C   UNL     1      43.584 -12.105   6.878  1.00  0.00    -0.004 A 
HETATM   12  N   UNL     1      41.703 -10.683   6.320  1.00  0.00    -0.257 NA
HETATM   13  C   UNL     1      44.224 -13.346   6.727  1.00  0.00     0.014 A 
HETATM   14  C   UNL     1      44.109 -11.087   7.683  1.00  0.00     0.015 A 
HETATM   15  C   UNL     1      43.668 -14.335   5.912  1.00  0.00     0.013 A 
HETATM   16  C   UNL     1      43.433  -9.877   7.797  1.00  0.00     0.020 A 
HETATM   17  C   UNL     1      42.248  -9.724   7.101  1.00  0.00     0.117 A 
BRANCH   9  18
HETATM   18  O   UNL     1      40.616 -12.624   4.813  1.00  0.00    -0.358 OA
HETATM   19  H   UNL     1      40.110 -13.452   4.975  1.00  0.00     0.218 HD
ENDBRANCH   9  18
ENDBRANCH   1   8
BRANCH   1  20
HETATM   20  C   UNL     1      42.588 -16.543   4.510  1.00  0.00    -0.031 A 
HETATM   21  C   UNL     1      42.581 -17.169   5.770  1.00  0.00     0.010 A 
HETATM   22  C   UNL     1      43.225 -18.393   5.974  1.00  0.00     0.007 A 
HETATM   23  C   UNL     1      43.896 -19.024   4.923  1.00  0.00    -0.062 A 
HETATM   24  C   UNL     1      44.568 -20.349   5.121  1.00  0.00     0.048 C 
HETATM   25  C   UNL     1      43.899 -18.416   3.664  1.00  0.00     0.007 A 
HETATM   26  C   UNL     1      43.259 -17.189   3.461  1.00  0.00     0.010 A 
ENDBRANCH   1  20
TORSDOF 5
ENDMDL
