MODEL 1
REMARK VINA RESULT:      -8.0      0.000      0.000
REMARK  10 active torsions:
REMARK  status: ('A' for Active; 'I' for Inactive)
REMARK    1  A    between atoms: C_6  and  C_7 
REMARK    2  A    between atoms: C_9  and  C_10 
REMARK    3  A    between atoms: C_10  and  C_11 
REMARK       I    between atoms: C_11  and  N_12 
REMARK    4  A    between atoms: N_12  and  C_13 
REMARK    5  A    between atoms: C_13  and  C_14 
REMARK    6  A    between atoms: C_14  and  N_15 
REMARK    7  A    between atoms: C_26  and  C_27 
REMARK    8  A    between atoms: C_27  and  O_28 
REMARK    9  A    between atoms: O_28  and  C_29 
REMARK   10  A    between atoms: C_29  and  C_30 
ROOT
HETATM    1  C   UNL     1      42.046 -12.887   5.364  1.00  0.00     0.166 C 
HETATM    2  N   UNL     1      42.390 -11.748   6.243  1.00  0.00    -0.318 N 
HETATM    3  C   UNL     1      41.986 -10.566   6.574  1.00  0.00     0.011 C 
HETATM    4  C   UNL     1      43.640 -12.147   7.087  1.00  0.00     0.170 C 
HETATM    5  S   UNL     1      44.488 -10.753   7.642  1.00  0.00    -0.086 SA
HETATM    6  C   UNL     1      42.978  -9.757   7.402  1.00  0.00     0.135 C 
HETATM    7  N   UNL     1      43.908 -13.365   7.421  1.00  0.00    -0.229 NA
HETATM    8  C   UNL     1      42.913 -14.306   7.169  1.00  0.00     0.048 C 
HETATM    9  C   UNL     1      42.945 -15.510   8.082  1.00  0.00     0.071 C 
HETATM   10  C   UNL     1      41.935 -14.086   6.256  1.00  0.00     0.069 C 
ENDROOT
BRANCH   3  11
HETATM   11  C   UNL     1      40.612 -10.044   6.260  1.00  0.00     0.156 C 
BRANCH  11  12
HETATM   12  C   UNL     1      39.657 -10.352   7.402  1.00  0.00     0.223 C 
HETATM   13  N   UNL     1      39.659  -9.479   8.463  1.00  0.00    -0.359 N 
HETATM   14  H   UNL     1      40.398  -8.780   8.506  1.00  0.00     0.162 HD
HETATM   15  O   UNL     1      38.919 -11.333   7.362  1.00  0.00    -0.273 OA
BRANCH  13  16
HETATM   16  C   UNL     1      39.012  -9.832   9.728  1.00  0.00     0.150 C 
BRANCH  16  17
HETATM   17  C   UNL     1      39.672  -9.255  11.007  1.00  0.00     0.253 C 
BRANCH  17  18
HETATM   18  N   UNL     1      40.422 -10.317  11.801  1.00  0.00    -0.077 N 
HETATM   19  H   UNL     1      40.506 -11.163  11.221  1.00  0.00     0.279 HD
HETATM   20  C   UNL     1      41.814  -9.893  12.191  1.00  0.00     0.269 C 
HETATM   21  C   UNL     1      39.642 -10.740  13.026  1.00  0.00     0.269 C 
ENDBRANCH  17  18
ENDBRANCH  16  17
ENDBRANCH  13  16
ENDBRANCH  11  12
ENDBRANCH   3  11
BRANCH   1  22
HETATM   22  C   UNL     1      41.215 -12.573   4.116  1.00  0.00    -0.024 A 
HETATM   23  C   UNL     1      41.846 -12.273   2.869  1.00  0.00    -0.053 A 
HETATM   24  C   UNL     1      41.068 -12.095   1.701  1.00  0.00     0.014 A 
HETATM   25  C   UNL     1      43.340 -12.152   2.675  1.00  0.00     0.049 C 
HETATM   26  C   UNL     1      39.684 -12.245   1.714  1.00  0.00    -0.061 A 
HETATM   27  C   UNL     1      38.884 -12.193   0.445  1.00  0.00     0.048 C 
HETATM   28  C   UNL     1      39.067 -12.559   2.917  1.00  0.00     0.007 A 
HETATM   29  C   UNL     1      39.817 -12.715   4.088  1.00  0.00     0.011 A 
ENDBRANCH   1  22
BRANCH  10  30
HETATM   30  C   UNL     1      40.718 -14.893   6.354  1.00  0.00     0.294 C 
HETATM   31  O   UNL     1      39.691 -14.540   6.898  1.00  0.00    -0.259 OA
BRANCH  30  32
HETATM   32  O   UNL     1      40.992 -16.080   5.762  1.00  0.00    -0.313 OA
BRANCH  32  33
HETATM   33  C   UNL     1      40.256 -16.385   4.561  1.00  0.00     0.217 C 
BRANCH  33  34
HETATM   34  C   UNL     1      41.191 -16.177   3.394  1.00  0.00    -0.034 A 
HETATM   35  C   UNL     1      42.575 -16.322   3.552  1.00  0.00     0.009 A 
HETATM   36  C   UNL     1      43.439 -16.070   2.484  1.00  0.00     0.001 A 
HETATM   37  C   UNL     1      42.931 -15.670   1.250  1.00  0.00     0.000 A 
HETATM   38  C   UNL     1      41.555 -15.535   1.076  1.00  0.00     0.001 A 
HETATM   39  C   UNL     1      40.690 -15.797   2.140  1.00  0.00     0.009 A 
ENDBRANCH  33  34
ENDBRANCH  32  33
ENDBRANCH  30  32
ENDBRANCH  10  30
TORSDOF 10
ENDMDL
MODEL 2
REMARK VINA RESULT:      -7.6      2.943      5.434
REMARK  10 active torsions:
REMARK  status: ('A' for Active; 'I' for Inactive)
REMARK    1  A    between atoms: C_6  and  C_7 
REMARK    2  A    between atoms: C_9  and  C_10 
REMARK    3  A    between atoms: C_10  and  C_11 
REMARK       I    between atoms: C_11  and  N_12 
REMARK    4  A    between atoms: N_12  and  C_13 
REMARK    5  A    between atoms: C_13  and  C_14 
REMARK    6  A    between atoms: C_14  and  N_15 
REMARK    7  A    between atoms: C_26  and  C_27 
REMARK    8  A    between atoms: C_27  and  O_28 
REMARK    9  A    between atoms: O_28  and  C_29 
REMARK   10  A    between atoms: C_29  and  C_30 
ROOT
HETATM    1  C   UNL     1      41.289 -14.340   4.084  1.00  0.00     0.166 C 
HETATM    2  N   UNL     1      41.099 -12.875   4.011  1.00  0.00    -0.318 N 
HETATM    3  C   UNL     1      41.632 -11.765   4.401  1.00  0.00     0.011 C 
HETATM    4  C   UNL     1      39.855 -12.591   3.113  1.00  0.00     0.170 C 
HETATM    5  S   UNL     1      39.175 -11.046   3.461  1.00  0.00    -0.086 SA
HETATM    6  C   UNL     1      40.763 -10.529   4.195  1.00  0.00     0.135 C 
HETATM    7  N   UNL     1      39.485 -13.370   2.152  1.00  0.00    -0.229 NA
HETATM    8  C   UNL     1      40.369 -14.389   1.808  1.00  0.00     0.048 C 
HETATM    9  C   UNL     1      40.261 -14.854   0.375  1.00  0.00     0.071 C 
HETATM   10  C   UNL     1      41.322 -14.830   2.668  1.00  0.00     0.069 C 
ENDROOT
BRANCH   3  11
HETATM   11  C   UNL     1      43.035 -11.662   4.931  1.00  0.00     0.156 C 
BRANCH  11  12
HETATM   12  C   UNL     1      43.015 -11.349   6.418  1.00  0.00     0.223 C 
HETATM   13  N   UNL     1      42.386 -10.188   6.799  1.00  0.00    -0.359 N 
HETATM   14  H   UNL     1      42.119  -9.529   6.070  1.00  0.00     0.162 HD
HETATM   15  O   UNL     1      43.532 -12.111   7.231  1.00  0.00    -0.273 OA
BRANCH  13  16
HETATM   16  C   UNL     1      42.563  -9.645   8.147  1.00  0.00     0.150 C 
BRANCH  16  17
HETATM   17  C   UNL     1      43.858  -8.822   8.377  1.00  0.00     0.253 C 
BRANCH  17  18
HETATM   18  N   UNL     1      45.045  -9.703   8.742  1.00  0.00    -0.077 N 
HETATM   19  H   UNL     1      44.816 -10.679   8.509  1.00  0.00     0.279 HD
HETATM   20  C   UNL     1      46.304  -9.342   7.996  1.00  0.00     0.269 C 
HETATM   21  C   UNL     1      45.300  -9.691  10.233  1.00  0.00     0.269 C 
ENDBRANCH  17  18
ENDBRANCH  16  17
ENDBRANCH  13  16
ENDBRANCH  11  12
ENDBRANCH   3  11
BRANCH   1  22
HETATM   22  C   UNL     1      42.088 -14.878   5.275  1.00  0.00    -0.024 A 
HETATM   23  C   UNL     1      41.436 -15.546   6.358  1.00  0.00    -0.053 A 
HETATM   24  C   UNL     1      42.197 -16.134   7.394  1.00  0.00     0.014 A 
HETATM   25  C   UNL     1      39.938 -15.711   6.481  1.00  0.00     0.049 C 
HETATM   26  C   UNL     1      43.589 -16.121   7.378  1.00  0.00    -0.061 A 
HETATM   27  C   UNL     1      44.386 -16.868   8.408  1.00  0.00     0.048 C 
HETATM   28  C   UNL     1      44.229 -15.494   6.318  1.00  0.00     0.007 A 
HETATM   29  C   UNL     1      43.493 -14.885   5.295  1.00  0.00     0.011 A 
ENDBRANCH   1  22
BRANCH  10  30
HETATM   30  C   UNL     1      42.457 -15.564   2.107  1.00  0.00     0.294 C 
HETATM   31  O   UNL     1      43.383 -15.061   1.506  1.00  0.00    -0.259 OA
BRANCH  30  32
HETATM   32  O   UNL     1      42.235 -16.875   2.367  1.00  0.00    -0.313 OA
BRANCH  32  33
HETATM   33  C   UNL     1      43.202 -17.807   1.844  1.00  0.00     0.217 C 
BRANCH  33  34
HETATM   34  C   UNL     1      43.539 -18.775   2.953  1.00  0.00    -0.034 A 
HETATM   35  C   UNL     1      43.608 -20.152   2.705  1.00  0.00     0.009 A 
HETATM   36  C   UNL     1      43.860 -21.047   3.746  1.00  0.00     0.001 A 
HETATM   37  C   UNL     1      44.045 -20.577   5.046  1.00  0.00     0.000 A 
HETATM   38  C   UNL     1      43.992 -19.209   5.304  1.00  0.00     0.001 A 
HETATM   39  C   UNL     1      43.751 -18.313   4.260  1.00  0.00     0.009 A 
ENDBRANCH  33  34
ENDBRANCH  32  33
ENDBRANCH  30  32
ENDBRANCH  10  30
TORSDOF 10
ENDMDL
MODEL 3
REMARK VINA RESULT:      -7.3      2.376      4.401
REMARK  10 active torsions:
REMARK  status: ('A' for Active; 'I' for Inactive)
REMARK    1  A    between atoms: C_6  and  C_7 
REMARK    2  A    between atoms: C_9  and  C_10 
REMARK    3  A    between atoms: C_10  and  C_11 
REMARK       I    between atoms: C_11  and  N_12 
REMARK    4  A    between atoms: N_12  and  C_13 
REMARK    5  A    between atoms: C_13  and  C_14 
REMARK    6  A    between atoms: C_14  and  N_15 
REMARK    7  A    between atoms: C_26  and  C_27 
REMARK    8  A    between atoms: C_27  and  O_28 
REMARK    9  A    between atoms: O_28  and  C_29 
REMARK   10  A    between atoms: C_29  and  C_30 
ROOT
HETATM    1  C   UNL     1      41.727 -13.935   3.334  1.00  0.00     0.166 C 
HETATM    2  N   UNL     1      41.880 -14.386   4.735  1.00  0.00    -0.318 N 
HETATM    3  C   UNL     1      41.322 -14.289   5.896  1.00  0.00     0.011 C 
HETATM    4  C   UNL     1      43.109 -15.344   4.806  1.00  0.00     0.170 C 
HETATM    5  S   UNL     1      43.753 -15.414   6.403  1.00  0.00    -0.086 SA
HETATM    6  C   UNL     1      42.157 -14.817   7.056  1.00  0.00     0.135 C 
HETATM    7  N   UNL     1      43.493 -16.075   3.813  1.00  0.00    -0.229 NA
HETATM    8  C   UNL     1      42.632 -16.134   2.721  1.00  0.00     0.048 C 
HETATM    9  C   UNL     1      42.741 -17.400   1.904  1.00  0.00     0.071 C 
HETATM   10  C   UNL     1      41.696 -15.177   2.495  1.00  0.00     0.069 C 
ENDROOT
BRANCH   3  11
HETATM   11  C   UNL     1      39.919 -13.785   6.101  1.00  0.00     0.156 C 
BRANCH  11  12
HETATM   12  C   UNL     1      39.932 -12.292   6.384  1.00  0.00     0.223 C 
HETATM   13  N   UNL     1      41.162 -11.679   6.420  1.00  0.00    -0.359 N 
HETATM   14  H   UNL     1      41.990 -12.270   6.421  1.00  0.00     0.162 HD
HETATM   15  O   UNL     1      38.886 -11.673   6.561  1.00  0.00    -0.273 OA
BRANCH  13  16
HETATM   16  C   UNL     1      41.313 -10.330   6.970  1.00  0.00     0.150 C 
BRANCH  16  17
HETATM   17  C   UNL     1      42.760  -9.913   7.341  1.00  0.00     0.253 C 
BRANCH  17  18
HETATM   18  N   UNL     1      43.487 -10.991   8.133  1.00  0.00    -0.077 N 
HETATM   19  H   UNL     1      42.825 -11.750   8.343  1.00  0.00     0.279 HD
HETATM   20  C   UNL     1      44.647 -11.596   7.384  1.00  0.00     0.269 C 
HETATM   21  C   UNL     1      43.948 -10.470   9.476  1.00  0.00     0.269 C 
ENDBRANCH  17  18
ENDBRANCH  16  17
ENDBRANCH  13  16
ENDBRANCH  11  12
ENDBRANCH   3  11
BRANCH   1  22
HETATM   22  C   UNL     1      40.949 -12.636   3.104  1.00  0.00    -0.024 A 
HETATM   23  C   UNL     1      41.626 -11.380   3.012  1.00  0.00    -0.053 A 
HETATM   24  C   UNL     1      40.907 -10.206   2.689  1.00  0.00     0.014 A 
HETATM   25  C   UNL     1      43.113 -11.195   3.209  1.00  0.00     0.049 C 
HETATM   26  C   UNL     1      39.543 -10.235   2.412  1.00  0.00    -0.061 A 
HETATM   27  C   UNL     1      38.820  -9.009   1.934  1.00  0.00     0.048 C 
HETATM   28  C   UNL     1      38.884 -11.454   2.477  1.00  0.00     0.007 A 
HETATM   29  C   UNL     1      39.573 -12.624   2.819  1.00  0.00     0.011 A 
ENDBRANCH   1  22
BRANCH  10  30
HETATM   30  C   UNL     1      40.576 -15.515   1.616  1.00  0.00     0.294 C 
HETATM   31  O   UNL     1      39.609 -16.172   1.942  1.00  0.00    -0.259 OA
BRANCH  30  32
HETATM   32  O   UNL     1      40.863 -14.984   0.404  1.00  0.00    -0.313 OA
BRANCH  32  33
HETATM   33  C   UNL     1      39.741 -14.677  -0.447  1.00  0.00     0.217 C 
BRANCH  33  34
HETATM   34  C   UNL     1      39.764 -13.189  -0.704  1.00  0.00    -0.034 A 
HETATM   35  C   UNL     1      38.592 -12.505  -1.052  1.00  0.00     0.009 A 
HETATM   36  C   UNL     1      38.631 -11.141  -1.347  1.00  0.00     0.001 A 
HETATM   37  C   UNL     1      39.839 -10.447  -1.300  1.00  0.00     0.000 A 
HETATM   38  C   UNL     1      41.009 -11.113  -0.942  1.00  0.00     0.001 A 
HETATM   39  C   UNL     1      40.969 -12.475  -0.636  1.00  0.00     0.009 A 
ENDBRANCH  33  34
ENDBRANCH  32  33
ENDBRANCH  30  32
ENDBRANCH  10  30
TORSDOF 10
ENDMDL
MODEL 4
REMARK VINA RESULT:      -7.0      3.091      5.214
REMARK  10 active torsions:
REMARK  status: ('A' for Active; 'I' for Inactive)
REMARK    1  A    between atoms: C_6  and  C_7 
REMARK    2  A    between atoms: C_9  and  C_10 
REMARK    3  A    between atoms: C_10  and  C_11 
REMARK       I    between atoms: C_11  and  N_12 
REMARK    4  A    between atoms: N_12  and  C_13 
REMARK    5  A    between atoms: C_13  and  C_14 
REMARK    6  A    between atoms: C_14  and  N_15 
REMARK    7  A    between atoms: C_26  and  C_27 
REMARK    8  A    between atoms: C_27  and  O_28 
REMARK    9  A    between atoms: O_28  and  C_29 
REMARK   10  A    between atoms: C_29  and  C_30 
ROOT
HETATM    1  C   UNL     1      41.334 -12.234   1.900  1.00  0.00     0.166 C 
HETATM    2  N   UNL     1      41.868 -11.907   3.241  1.00  0.00    -0.318 N 
HETATM    3  C   UNL     1      41.507 -11.423   4.383  1.00  0.00     0.011 C 
HETATM    4  C   UNL     1      43.363 -12.348   3.289  1.00  0.00     0.170 C 
HETATM    5  S   UNL     1      44.231 -11.477   4.497  1.00  0.00    -0.086 SA
HETATM    6  C   UNL     1      42.655 -11.093   5.331  1.00  0.00     0.135 C 
HETATM    7  N   UNL     1      43.833 -13.330   2.595  1.00  0.00    -0.229 NA
HETATM    8  C   UNL     1      42.897 -14.127   1.942  1.00  0.00     0.048 C 
HETATM    9  C   UNL     1      43.348 -15.548   1.694  1.00  0.00     0.071 C 
HETATM   10  C   UNL     1      41.645 -13.682   1.668  1.00  0.00     0.069 C 
ENDROOT
BRANCH   3  11
HETATM   11  C   UNL     1      40.071 -11.278   4.804  1.00  0.00     0.156 C 
BRANCH  11  12
HETATM   12  C   UNL     1      39.657 -12.452   5.677  1.00  0.00     0.223 C 
HETATM   13  N   UNL     1      40.522 -13.518   5.733  1.00  0.00    -0.359 N 
HETATM   14  H   UNL     1      41.297 -13.539   5.073  1.00  0.00     0.162 HD
HETATM   15  O   UNL     1      38.601 -12.432   6.305  1.00  0.00    -0.273 OA
BRANCH  13  16
HETATM   16  C   UNL     1      40.096 -14.803   6.292  1.00  0.00     0.150 C 
BRANCH  16  17
HETATM   17  C   UNL     1      40.918 -16.038   5.840  1.00  0.00     0.253 C 
BRANCH  17  18
HETATM   18  N   UNL     1      42.411 -15.859   6.081  1.00  0.00    -0.077 N 
HETATM   19  H   UNL     1      42.698 -14.945   5.705  1.00  0.00     0.279 HD
HETATM   20  C   UNL     1      42.784 -15.887   7.541  1.00  0.00     0.269 C 
HETATM   21  C   UNL     1      43.218 -16.884   5.317  1.00  0.00     0.269 C 
ENDBRANCH  17  18
ENDBRANCH  16  17
ENDBRANCH  13  16
ENDBRANCH  11  12
ENDBRANCH   3  11
BRANCH   1  22
HETATM   22  C   UNL     1      40.096 -11.462   1.439  1.00  0.00    -0.024 A 
HETATM   23  C   UNL     1      40.216 -10.317   0.590  1.00  0.00    -0.053 A 
HETATM   24  C   UNL     1      39.059  -9.682   0.083  1.00  0.00     0.014 A 
HETATM   25  C   UNL     1      41.530  -9.720   0.145  1.00  0.00     0.049 C 
HETATM   26  C   UNL     1      37.780 -10.164   0.353  1.00  0.00    -0.061 A 
HETATM   27  C   UNL     1      36.569  -9.567  -0.304  1.00  0.00     0.048 C 
HETATM   28  C   UNL     1      37.657 -11.288   1.157  1.00  0.00     0.007 A 
HETATM   29  C   UNL     1      38.789 -11.917   1.689  1.00  0.00     0.011 A 
ENDBRANCH   1  22
BRANCH  10  30
HETATM   30  C   UNL     1      40.613 -14.682   1.390  1.00  0.00     0.294 C 
HETATM   31  O   UNL     1      39.900 -15.196   2.226  1.00  0.00    -0.259 OA
BRANCH  30  32
HETATM   32  O   UNL     1      40.654 -14.919   0.057  1.00  0.00    -0.313 OA
BRANCH  32  33
HETATM   33  C   UNL     1      39.389 -14.930  -0.634  1.00  0.00     0.217 C 
BRANCH  33  34
HETATM   34  C   UNL     1      39.356 -13.718  -1.534  1.00  0.00    -0.034 A 
HETATM   35  C   UNL     1      40.543 -13.093  -1.936  1.00  0.00     0.009 A 
HETATM   36  C   UNL     1      40.504 -11.937  -2.718  1.00  0.00     0.001 A 
HETATM   37  C   UNL     1      39.280 -11.393  -3.106  1.00  0.00     0.000 A 
HETATM   38  C   UNL     1      38.093 -12.012  -2.723  1.00  0.00     0.001 A 
HETATM   39  C   UNL     1      38.132 -13.174  -1.949  1.00  0.00     0.009 A 
ENDBRANCH  33  34
ENDBRANCH  32  33
ENDBRANCH  30  32
ENDBRANCH  10  30
TORSDOF 10
ENDMDL
MODEL 5
REMARK VINA RESULT:      -7.0      2.497      4.620
REMARK  10 active torsions:
REMARK  status: ('A' for Active; 'I' for Inactive)
REMARK    1  A    between atoms: C_6  and  C_7 
REMARK    2  A    between atoms: C_9  and  C_10 
REMARK    3  A    between atoms: C_10  and  C_11 
REMARK       I    between atoms: C_11  and  N_12 
REMARK    4  A    between atoms: N_12  and  C_13 
REMARK    5  A    between atoms: C_13  and  C_14 
REMARK    6  A    between atoms: C_14  and  N_15 
REMARK    7  A    between atoms: C_26  and  C_27 
REMARK    8  A    between atoms: C_27  and  O_28 
REMARK    9  A    between atoms: O_28  and  C_29 
REMARK   10  A    between atoms: C_29  and  C_30 
ROOT
HETATM    1  C   UNL     1      40.685 -12.462   5.135  1.00  0.00     0.166 C 
HETATM    2  N   UNL     1      40.932 -11.190   5.849  1.00  0.00    -0.318 N 
HETATM    3  C   UNL     1      41.878 -10.510   6.406  1.00  0.00     0.011 C 
HETATM    4  C   UNL     1      39.595 -10.387   5.887  1.00  0.00     0.170 C 
HETATM    5  S   UNL     1      39.587  -9.252   7.183  1.00  0.00    -0.086 SA
HETATM    6  C   UNL     1      41.409  -9.316   7.231  1.00  0.00     0.135 C 
HETATM    7  N   UNL     1      38.684 -10.487   4.976  1.00  0.00    -0.229 NA
HETATM    8  C   UNL     1      39.032 -11.198   3.831  1.00  0.00     0.048 C 
HETATM    9  C   UNL     1      38.276 -10.792   2.588  1.00  0.00     0.071 C 
HETATM   10  C   UNL     1      40.052 -12.093   3.827  1.00  0.00     0.069 C 
ENDROOT
BRANCH   3  11
HETATM   11  C   UNL     1      43.339 -10.797   6.195  1.00  0.00     0.156 C 
BRANCH  11  12
HETATM   12  C   UNL     1      44.042 -10.962   7.533  1.00  0.00     0.223 C 
HETATM   13  N   UNL     1      44.718  -9.869   8.017  1.00  0.00    -0.359 N 
HETATM   14  H   UNL     1      44.852  -9.076   7.393  1.00  0.00     0.162 HD
HETATM   15  O   UNL     1      43.991 -12.025   8.146  1.00  0.00    -0.273 OA
BRANCH  13  16
HETATM   16  C   UNL     1      45.664 -10.001   9.127  1.00  0.00     0.150 C 
BRANCH  16  17
HETATM   17  C   UNL     1      45.110  -9.637  10.529  1.00  0.00     0.253 C 
BRANCH  17  18
HETATM   18  N   UNL     1      43.712 -10.196  10.762  1.00  0.00    -0.077 N 
HETATM   19  H   UNL     1      43.418 -10.709   9.920  1.00  0.00     0.279 HD
HETATM   20  C   UNL     1      43.642 -11.153  11.924  1.00  0.00     0.269 C 
HETATM   21  C   UNL     1      42.699  -9.087  10.936  1.00  0.00     0.269 C 
ENDBRANCH  17  18
ENDBRANCH  16  17
ENDBRANCH  13  16
ENDBRANCH  11  12
ENDBRANCH   3  11
BRANCH   1  22
HETATM   22  C   UNL     1      41.660 -13.611   5.407  1.00  0.00    -0.024 A 
HETATM   23  C   UNL     1      41.236 -14.788   6.098  1.00  0.00    -0.053 A 
HETATM   24  C   UNL     1      42.116 -15.885   6.243  1.00  0.00     0.014 A 
HETATM   25  C   UNL     1      39.857 -14.983   6.687  1.00  0.00     0.049 C 
HETATM   26  C   UNL     1      43.395 -15.877   5.692  1.00  0.00    -0.061 A 
HETATM   27  C   UNL     1      44.267 -17.097   5.732  1.00  0.00     0.048 C 
HETATM   28  C   UNL     1      43.805 -14.746   5.000  1.00  0.00     0.007 A 
HETATM   29  C   UNL     1      42.957 -13.640   4.865  1.00  0.00     0.011 A 
ENDBRANCH   1  22
BRANCH  10  30
HETATM   30  C   UNL     1      40.627 -12.463   2.534  1.00  0.00     0.294 C 
HETATM   31  O   UNL     1      41.571 -11.909   2.008  1.00  0.00    -0.259 OA
BRANCH  30  32
HETATM   32  O   UNL     1      39.885 -13.492   2.060  1.00  0.00    -0.313 OA
BRANCH  32  33
HETATM   33  C   UNL     1      40.398 -14.175   0.900  1.00  0.00     0.217 C 
BRANCH  33  34
HETATM   34  C   UNL     1      41.342 -15.248   1.389  1.00  0.00    -0.034 A 
HETATM   35  C   UNL     1      40.879 -16.293   2.198  1.00  0.00     0.009 A 
HETATM   36  C   UNL     1      41.768 -17.248   2.698  1.00  0.00     0.001 A 
HETATM   37  C   UNL     1      43.126 -17.168   2.395  1.00  0.00     0.000 A 
HETATM   38  C   UNL     1      43.597 -16.141   1.581  1.00  0.00     0.001 A 
HETATM   39  C   UNL     1      42.707 -15.192   1.073  1.00  0.00     0.009 A 
ENDBRANCH  33  34
ENDBRANCH  32  33
ENDBRANCH  30  32
ENDBRANCH  10  30
TORSDOF 10
ENDMDL
MODEL 6
REMARK VINA RESULT:      -6.9      3.420      6.381
REMARK  10 active torsions:
REMARK  status: ('A' for Active; 'I' for Inactive)
REMARK    1  A    between atoms: C_6  and  C_7 
REMARK    2  A    between atoms: C_9  and  C_10 
REMARK    3  A    between atoms: C_10  and  C_11 
REMARK       I    between atoms: C_11  and  N_12 
REMARK    4  A    between atoms: N_12  and  C_13 
REMARK    5  A    between atoms: C_13  and  C_14 
REMARK    6  A    between atoms: C_14  and  N_15 
REMARK    7  A    between atoms: C_26  and  C_27 
REMARK    8  A    between atoms: C_27  and  O_28 
REMARK    9  A    between atoms: O_28  and  C_29 
REMARK   10  A    between atoms: C_29  and  C_30 
ROOT
HETATM    1  C   UNL     1      40.489 -13.220   2.558  1.00  0.00     0.166 C 
HETATM    2  N   UNL     1      40.890 -11.950   3.204  1.00  0.00    -0.318 N 
HETATM    3  C   UNL     1      41.934 -11.306   3.607  1.00  0.00     0.011 C 
HETATM    4  C   UNL     1      39.608 -11.088   3.417  1.00  0.00     0.170 C 
HETATM    5  S   UNL     1      39.835  -9.937   4.679  1.00  0.00    -0.086 SA
HETATM    6  C   UNL     1      41.641 -10.082   4.467  1.00  0.00     0.135 C 
HETATM    7  N   UNL     1      38.572 -11.160   2.649  1.00  0.00    -0.229 NA
HETATM    8  C   UNL     1      38.721 -11.901   1.480  1.00  0.00     0.048 C 
HETATM    9  C   UNL     1      37.812 -11.478   0.350  1.00  0.00     0.071 C 
HETATM   10  C   UNL     1      39.690 -12.841   1.348  1.00  0.00     0.069 C 
ENDROOT
BRANCH   3  11
HETATM   11  C   UNL     1      43.336 -11.661   3.194  1.00  0.00     0.156 C 
BRANCH  11  12
HETATM   12  C   UNL     1      44.235 -11.763   4.416  1.00  0.00     0.223 C 
HETATM   13  N   UNL     1      43.757 -12.495   5.477  1.00  0.00    -0.359 N 
HETATM   14  H   UNL     1      42.782 -12.784   5.456  1.00  0.00     0.162 HD
HETATM   15  O   UNL     1      45.337 -11.221   4.437  1.00  0.00    -0.273 OA
BRANCH  13  16
HETATM   16  C   UNL     1      44.394 -12.413   6.793  1.00  0.00     0.150 C 
BRANCH  16  17
HETATM   17  C   UNL     1      44.002 -11.185   7.655  1.00  0.00     0.253 C 
BRANCH  17  18
HETATM   18  N   UNL     1      45.149 -10.707   8.535  1.00  0.00    -0.077 N 
HETATM   19  H   UNL     1      45.694 -11.525   8.840  1.00  0.00     0.279 HD
HETATM   20  C   UNL     1      46.093  -9.773   7.823  1.00  0.00     0.269 C 
HETATM   21  C   UNL     1      44.637 -10.063   9.804  1.00  0.00     0.269 C 
ENDBRANCH  17  18
ENDBRANCH  16  17
ENDBRANCH  13  16
ENDBRANCH  11  12
ENDBRANCH   3  11
BRANCH   1  22
HETATM   22  C   UNL     1      41.444 -14.408   2.710  1.00  0.00    -0.024 A 
HETATM   23  C   UNL     1      41.458 -15.193   3.905  1.00  0.00    -0.053 A 
HETATM   24  C   UNL     1      42.264 -16.351   3.987  1.00  0.00     0.014 A 
HETATM   25  C   UNL     1      40.626 -14.895   5.131  1.00  0.00     0.049 C 
HETATM   26  C   UNL     1      43.031 -16.787   2.909  1.00  0.00    -0.061 A 
HETATM   27  C   UNL     1      43.772 -18.092   2.960  1.00  0.00     0.048 C 
HETATM   28  C   UNL     1      43.005 -16.043   1.739  1.00  0.00     0.007 A 
HETATM   29  C   UNL     1      42.232 -14.880   1.646  1.00  0.00     0.011 A 
ENDBRANCH   1  22
BRANCH  10  30
HETATM   30  C   UNL     1      40.058 -13.253  -0.007  1.00  0.00     0.294 C 
HETATM   31  O   UNL     1      39.645 -14.247  -0.569  1.00  0.00    -0.259 OA
BRANCH  30  32
HETATM   32  O   UNL     1      40.948 -12.339  -0.461  1.00  0.00    -0.313 OA
BRANCH  32  33
HETATM   33  C   UNL     1      40.837 -11.966  -1.849  1.00  0.00     0.217 C 
BRANCH  33  34
HETATM   34  C   UNL     1      41.198 -10.504  -1.953  1.00  0.00    -0.034 A 
HETATM   35  C   UNL     1      40.980  -9.796  -3.142  1.00  0.00     0.009 A 
HETATM   36  C   UNL     1      41.372  -8.460  -3.251  1.00  0.00     0.001 A 
HETATM   37  C   UNL     1      41.985  -7.818  -2.177  1.00  0.00     0.000 A 
HETATM   38  C   UNL     1      42.195  -8.507  -0.984  1.00  0.00     0.001 A 
HETATM   39  C   UNL     1      41.793  -9.840  -0.871  1.00  0.00     0.009 A 
ENDBRANCH  33  34
ENDBRANCH  32  33
ENDBRANCH  30  32
ENDBRANCH  10  30
TORSDOF 10
ENDMDL
MODEL 7
REMARK VINA RESULT:      -6.7      3.017      4.960
REMARK  10 active torsions:
REMARK  status: ('A' for Active; 'I' for Inactive)
REMARK    1  A    between atoms: C_6  and  C_7 
REMARK    2  A    between atoms: C_9  and  C_10 
REMARK    3  A    between atoms: C_10  and  C_11 
REMARK       I    between atoms: C_11  and  N_12 
REMARK    4  A    between atoms: N_12  and  C_13 
REMARK    5  A    between atoms: C_13  and  C_14 
REMARK    6  A    between atoms: C_14  and  N_15 
REMARK    7  A    between atoms: C_26  and  C_27 
REMARK    8  A    between atoms: C_27  and  O_28 
REMARK    9  A    between atoms: O_28  and  C_29 
REMARK   10  A    between atoms: C_29  and  C_30 
ROOT
HETATM    1  C   UNL     1      41.022 -12.492   2.262  1.00  0.00     0.166 C 
HETATM    2  N   UNL     1      41.372 -12.490   3.700  1.00  0.00    -0.318 N 
HETATM    3  C   UNL     1      40.848 -12.320   4.868  1.00  0.00     0.011 C 
HETATM    4  C   UNL     1      42.877 -12.877   3.833  1.00  0.00     0.170 C 
HETATM    5  S   UNL     1      43.537 -12.306   5.319  1.00  0.00    -0.086 SA
HETATM    6  C   UNL     1      41.852 -12.197   6.009  1.00  0.00     0.135 C 
HETATM    7  N   UNL     1      43.489 -13.638   2.988  1.00  0.00    -0.229 NA
HETATM    8  C   UNL     1      42.691 -14.280   2.045  1.00  0.00     0.048 C 
HETATM    9  C   UNL     1      43.261 -15.577   1.520  1.00  0.00     0.071 C 
HETATM   10  C   UNL     1      41.453 -13.824   1.727  1.00  0.00     0.069 C 
ENDROOT
BRANCH   3  11
HETATM   11  C   UNL     1      39.366 -12.335   5.121  1.00  0.00     0.156 C 
BRANCH  11  12
HETATM   12  C   UNL     1      38.954 -11.100   5.906  1.00  0.00     0.223 C 
HETATM   13  N   UNL     1      39.238  -9.882   5.339  1.00  0.00    -0.359 N 
HETATM   14  H   UNL     1      39.845  -9.866   4.521  1.00  0.00     0.162 HD
HETATM   15  O   UNL     1      38.385 -11.201   6.990  1.00  0.00    -0.273 OA
BRANCH  13  16
HETATM   16  C   UNL     1      39.160  -8.650   6.126  1.00  0.00     0.150 C 
BRANCH  16  17
HETATM   17  C   UNL     1      38.138  -7.595   5.626  1.00  0.00     0.253 C 
BRANCH  17  18
HETATM   18  N   UNL     1      37.992  -6.428   6.595  1.00  0.00    -0.077 N 
HETATM   19  H   UNL     1      36.991  -6.220   6.711  1.00  0.00     0.279 HD
HETATM   20  C   UNL     1      38.558  -6.718   7.961  1.00  0.00     0.269 C 
HETATM   21  C   UNL     1      38.606  -5.167   6.031  1.00  0.00     0.269 C 
ENDBRANCH  17  18
ENDBRANCH  16  17
ENDBRANCH  13  16
ENDBRANCH  11  12
ENDBRANCH   3  11
BRANCH   1  22
HETATM   22  C   UNL     1      39.798 -11.672   1.845  1.00  0.00    -0.024 A 
HETATM   23  C   UNL     1      39.946 -10.412   1.185  1.00  0.00    -0.053 A 
HETATM   24  C   UNL     1      38.809  -9.721   0.707  1.00  0.00     0.014 A 
HETATM   25  C   UNL     1      41.272  -9.740   0.916  1.00  0.00     0.049 C 
HETATM   26  C   UNL     1      37.527 -10.251   0.822  1.00  0.00    -0.061 A 
HETATM   27  C   UNL     1      36.345  -9.576   0.188  1.00  0.00     0.048 C 
HETATM   28  C   UNL     1      37.378 -11.485   1.441  1.00  0.00     0.007 A 
HETATM   29  C   UNL     1      38.489 -12.174   1.942  1.00  0.00     0.011 A 
ENDBRANCH   1  22
BRANCH  10  30
HETATM   30  C   UNL     1      40.529 -14.758   1.082  1.00  0.00     0.294 C 
HETATM   31  O   UNL     1      39.820 -15.551   1.667  1.00  0.00    -0.259 OA
BRANCH  30  32
HETATM   32  O   UNL     1      40.662 -14.573  -0.253  1.00  0.00    -0.313 OA
BRANCH  32  33
HETATM   33  C   UNL     1      39.445 -14.566  -1.025  1.00  0.00     0.217 C 
BRANCH  33  34
HETATM   34  C   UNL     1      39.299 -13.186  -1.622  1.00  0.00    -0.034 A 
HETATM   35  C   UNL     1      38.040 -12.698  -1.996  1.00  0.00     0.009 A 
HETATM   36  C   UNL     1      37.919 -11.447  -2.604  1.00  0.00     0.001 A 
HETATM   37  C   UNL     1      39.051 -10.671  -2.844  1.00  0.00     0.000 A 
HETATM   38  C   UNL     1      40.307 -11.139  -2.465  1.00  0.00     0.001 A 
HETATM   39  C   UNL     1      40.428 -12.386  -1.848  1.00  0.00     0.009 A 
ENDBRANCH  33  34
ENDBRANCH  32  33
ENDBRANCH  30  32
ENDBRANCH  10  30
TORSDOF 10
ENDMDL
MODEL 8
REMARK VINA RESULT:      -6.7      2.634      4.619
REMARK  10 active torsions:
REMARK  status: ('A' for Active; 'I' for Inactive)
REMARK    1  A    between atoms: C_6  and  C_7 
REMARK    2  A    between atoms: C_9  and  C_10 
REMARK    3  A    between atoms: C_10  and  C_11 
REMARK       I    between atoms: C_11  and  N_12 
REMARK    4  A    between atoms: N_12  and  C_13 
REMARK    5  A    between atoms: C_13  and  C_14 
REMARK    6  A    between atoms: C_14  and  N_15 
REMARK    7  A    between atoms: C_26  and  C_27 
REMARK    8  A    between atoms: C_27  and  O_28 
REMARK    9  A    between atoms: O_28  and  C_29 
REMARK   10  A    between atoms: C_29  and  C_30 
ROOT
HETATM    1  C   UNL     1      42.012 -13.842   4.998  1.00  0.00     0.166 C 
HETATM    2  N   UNL     1      41.733 -12.571   5.702  1.00  0.00    -0.318 N 
HETATM    3  C   UNL     1      40.851 -11.631   5.781  1.00  0.00     0.011 C 
HETATM    4  C   UNL     1      42.880 -12.324   6.731  1.00  0.00     0.170 C 
HETATM    5  S   UNL     1      43.012 -10.652   7.127  1.00  0.00    -0.086 SA
HETATM    6  C   UNL     1      41.296 -10.398   6.561  1.00  0.00     0.135 C 
HETATM    7  N   UNL     1      43.541 -13.280   7.294  1.00  0.00    -0.229 NA
HETATM    8  C   UNL     1      43.050 -14.568   7.101  1.00  0.00     0.048 C 
HETATM    9  C   UNL     1      43.395 -15.541   8.204  1.00  0.00     0.071 C 
HETATM   10  C   UNL     1      42.230 -14.873   6.064  1.00  0.00     0.069 C 
ENDROOT
BRANCH   3  11
HETATM   11  C   UNL     1      39.455 -11.757   5.238  1.00  0.00     0.156 C 
BRANCH  11  12
HETATM   12  C   UNL     1      39.090 -10.521   4.432  1.00  0.00     0.223 C 
HETATM   13  N   UNL     1      39.743 -10.346   3.235  1.00  0.00    -0.359 N 
HETATM   14  H   UNL     1      40.538 -10.949   3.033  1.00  0.00     0.162 HD
HETATM   15  O   UNL     1      38.243  -9.729   4.838  1.00  0.00    -0.273 OA
BRANCH  13  16
HETATM   16  C   UNL     1      39.692  -9.062   2.532  1.00  0.00     0.150 C 
BRANCH  16  17
HETATM   17  C   UNL     1      38.675  -8.974   1.365  1.00  0.00     0.253 C 
BRANCH  17  18
HETATM   18  N   UNL     1      37.233  -9.058   1.847  1.00  0.00    -0.077 N 
HETATM   19  H   UNL     1      37.196  -9.672   2.671  1.00  0.00     0.279 HD
HETATM   20  C   UNL     1      36.664  -7.721   2.249  1.00  0.00     0.269 C 
HETATM   21  C   UNL     1      36.345  -9.713   0.812  1.00  0.00     0.269 C 
ENDBRANCH  17  18
ENDBRANCH  16  17
ENDBRANCH  13  16
ENDBRANCH  11  12
ENDBRANCH   3  11
BRANCH   1  22
HETATM   22  C   UNL     1      41.346 -14.040   3.633  1.00  0.00    -0.024 A 
HETATM   23  C   UNL     1      41.742 -13.261   2.501  1.00  0.00    -0.053 A 
HETATM   24  C   UNL     1      41.197 -13.532   1.225  1.00  0.00     0.014 A 
HETATM   25  C   UNL     1      42.760 -12.145   2.547  1.00  0.00     0.049 C 
HETATM   26  C   UNL     1      40.300 -14.576   1.018  1.00  0.00    -0.061 A 
HETATM   27  C   UNL     1      39.837 -14.941  -0.363  1.00  0.00     0.048 C 
HETATM   28  C   UNL     1      39.928 -15.350   2.108  1.00  0.00     0.007 A 
HETATM   29  C   UNL     1      40.438 -15.083   3.384  1.00  0.00     0.011 A 
ENDBRANCH   1  22
BRANCH  10  30
HETATM   30  C   UNL     1      41.426 -16.091   6.168  1.00  0.00     0.294 C 
HETATM   31  O   UNL     1      40.261 -16.129   6.505  1.00  0.00    -0.259 OA
BRANCH  30  32
HETATM   32  O   UNL     1      42.245 -17.123   5.852  1.00  0.00    -0.313 OA
BRANCH  32  33
HETATM   33  C   UNL     1      43.252 -16.863   4.855  1.00  0.00     0.217 C 
BRANCH  33  34
HETATM   34  C   UNL     1      43.449 -18.138   4.070  1.00  0.00    -0.034 A 
HETATM   35  C   UNL     1      43.079 -18.212   2.721  1.00  0.00     0.009 A 
HETATM   36  C   UNL     1      43.207 -19.412   2.018  1.00  0.00     0.001 A 
HETATM   37  C   UNL     1      43.704 -20.548   2.653  1.00  0.00     0.000 A 
HETATM   38  C   UNL     1      44.088 -20.484   3.991  1.00  0.00     0.001 A 
HETATM   39  C   UNL     1      43.970 -19.282   4.691  1.00  0.00     0.009 A 
ENDBRANCH  33  34
ENDBRANCH  32  33
ENDBRANCH  30  32
ENDBRANCH  10  30
TORSDOF 10
ENDMDL
MODEL 9
REMARK VINA RESULT:      -6.6     17.459     19.813
REMARK  10 active torsions:
REMARK  status: ('A' for Active; 'I' for Inactive)
REMARK    1  A    between atoms: C_6  and  C_7 
REMARK    2  A    between atoms: C_9  and  C_10 
REMARK    3  A    between atoms: C_10  and  C_11 
REMARK       I    between atoms: C_11  and  N_12 
REMARK    4  A    between atoms: N_12  and  C_13 
REMARK    5  A    between atoms: C_13  and  C_14 
REMARK    6  A    between atoms: C_14  and  N_15 
REMARK    7  A    between atoms: C_26  and  C_27 
REMARK    8  A    between atoms: C_27  and  O_28 
REMARK    9  A    between atoms: O_28  and  C_29 
REMARK   10  A    between atoms: C_29  and  C_30 
ROOT
HETATM    1  C   UNL     1      47.638 -30.901   0.492  1.00  0.00     0.166 C 
HETATM    2  N   UNL     1      48.061 -30.294   1.774  1.00  0.00    -0.318 N 
HETATM    3  C   UNL     1      47.808 -29.295   2.552  1.00  0.00     0.011 C 
HETATM    4  C   UNL     1      49.147 -31.215   2.412  1.00  0.00     0.170 C 
HETATM    5  S   UNL     1      50.135 -30.337   3.518  1.00  0.00    -0.086 SA
HETATM    6  C   UNL     1      48.823 -29.079   3.669  1.00  0.00     0.135 C 
HETATM    7  N   UNL     1      49.194 -32.491   2.219  1.00  0.00    -0.229 NA
HETATM    8  C   UNL     1      48.100 -33.057   1.572  1.00  0.00     0.048 C 
HETATM    9  C   UNL     1      47.859 -34.511   1.905  1.00  0.00     0.071 C 
HETATM   10  C   UNL     1      47.260 -32.318   0.804  1.00  0.00     0.069 C 
ENDROOT
BRANCH   3  11
HETATM   11  C   UNL     1      46.565 -28.455   2.444  1.00  0.00     0.156 C 
BRANCH  11  12
HETATM   12  C   UNL     1      45.333 -29.298   2.731  1.00  0.00     0.223 C 
HETATM   13  N   UNL     1      44.145 -28.861   2.196  1.00  0.00    -0.359 N 
HETATM   14  H   UNL     1      44.121 -27.929   1.785  1.00  0.00     0.162 HD
HETATM   15  O   UNL     1      45.411 -30.323   3.403  1.00  0.00    -0.273 OA
BRANCH  13  16
HETATM   16  C   UNL     1      42.868 -29.416   2.648  1.00  0.00     0.150 C 
BRANCH  16  17
HETATM   17  C   UNL     1      42.119 -30.305   1.621  1.00  0.00     0.253 C 
BRANCH  17  18
HETATM   18  N   UNL     1      42.340 -31.791   1.874  1.00  0.00    -0.077 N 
HETATM   19  H   UNL     1      43.313 -32.025   1.638  1.00  0.00     0.279 HD
HETATM   20  C   UNL     1      42.113 -32.188   3.311  1.00  0.00     0.269 C 
HETATM   21  C   UNL     1      41.485 -32.637   0.957  1.00  0.00     0.269 C 
ENDBRANCH  17  18
ENDBRANCH  16  17
ENDBRANCH  13  16
ENDBRANCH  11  12
ENDBRANCH   3  11
BRANCH   1  22
HETATM   22  C   UNL     1      46.992 -29.969  -0.537  1.00  0.00    -0.024 A 
HETATM   23  C   UNL     1      47.761 -29.399  -1.599  1.00  0.00    -0.053 A 
HETATM   24  C   UNL     1      47.129 -28.632  -2.604  1.00  0.00     0.014 A 
HETATM   25  C   UNL     1      49.252 -29.579  -1.764  1.00  0.00     0.049 C 
HETATM   26  C   UNL     1      45.749 -28.439  -2.620  1.00  0.00    -0.061 A 
HETATM   27  C   UNL     1      45.074 -27.742  -3.766  1.00  0.00     0.048 C 
HETATM   28  C   UNL     1      44.994 -29.009  -1.605  1.00  0.00     0.007 A 
HETATM   29  C   UNL     1      45.604 -29.752  -0.587  1.00  0.00     0.011 A 
ENDBRANCH   1  22
BRANCH  10  30
HETATM   30  C   UNL     1      45.932 -32.865   0.525  1.00  0.00     0.294 C 
HETATM   31  O   UNL     1      44.990 -32.830   1.289  1.00  0.00    -0.259 OA
BRANCH  30  32
HETATM   32  O   UNL     1      45.996 -33.427  -0.706  1.00  0.00    -0.313 OA
BRANCH  32  33
HETATM   33  C   UNL     1      44.789 -33.393  -1.492  1.00  0.00     0.217 C 
BRANCH  33  34
HETATM   34  C   UNL     1      45.085 -32.592  -2.738  1.00  0.00    -0.034 A 
HETATM   35  C   UNL     1      44.051 -31.980  -3.457  1.00  0.00     0.009 A 
HETATM   36  C   UNL     1      44.324 -31.292  -4.641  1.00  0.00     0.001 A 
HETATM   37  C   UNL     1      45.630 -31.209  -5.119  1.00  0.00     0.000 A 
HETATM   38  C   UNL     1      46.670 -31.803  -4.407  1.00  0.00     0.001 A 
HETATM   39  C   UNL     1      46.398 -32.482  -3.217  1.00  0.00     0.009 A 
ENDBRANCH  33  34
ENDBRANCH  32  33
ENDBRANCH  30  32
ENDBRANCH  10  30
TORSDOF 10
ENDMDL
MODEL 10
REMARK VINA RESULT:      -6.5      7.405     11.147
REMARK  10 active torsions:
REMARK  status: ('A' for Active; 'I' for Inactive)
REMARK    1  A    between atoms: C_6  and  C_7 
REMARK    2  A    between atoms: C_9  and  C_10 
REMARK    3  A    between atoms: C_10  and  C_11 
REMARK       I    between atoms: C_11  and  N_12 
REMARK    4  A    between atoms: N_12  and  C_13 
REMARK    5  A    between atoms: C_13  and  C_14 
REMARK    6  A    between atoms: C_14  and  N_15 
REMARK    7  A    between atoms: C_26  and  C_27 
REMARK    8  A    between atoms: C_27  and  O_28 
REMARK    9  A    between atoms: O_28  and  C_29 
REMARK   10  A    between atoms: C_29  and  C_30 
ROOT
HETATM    1  C   UNL     1      40.520  -5.861  13.156  1.00  0.00     0.166 C 
HETATM    2  N   UNL     1      40.166  -5.479  14.542  1.00  0.00    -0.318 N 
HETATM    3  C   UNL     1      40.540  -5.653  15.765  1.00  0.00     0.011 C 
HETATM    4  C   UNL     1      38.961  -4.491  14.479  1.00  0.00     0.170 C 
HETATM    5  S   UNL     1      38.085  -4.484  15.963  1.00  0.00    -0.086 SA
HETATM    6  C   UNL     1      39.549  -5.161  16.815  1.00  0.00     0.135 C 
HETATM    7  N   UNL     1      38.749  -3.697  13.483  1.00  0.00    -0.229 NA
HETATM    8  C   UNL     1      39.766  -3.608  12.537  1.00  0.00     0.048 C 
HETATM    9  C   UNL     1      39.809  -2.299  11.785  1.00  0.00     0.071 C 
HETATM   10  C   UNL     1      40.704  -4.579  12.402  1.00  0.00     0.069 C 
ENDROOT
BRANCH   3  11
HETATM   11  C   UNL     1      41.884  -6.208  16.150  1.00  0.00     0.156 C 
BRANCH  11  12
HETATM   12  C   UNL     1      41.759  -7.077  17.391  1.00  0.00     0.223 C 
HETATM   13  N   UNL     1      42.515  -6.715  18.480  1.00  0.00    -0.359 N 
HETATM   14  H   UNL     1      43.229  -6.000  18.349  1.00  0.00     0.162 HD
HETATM   15  O   UNL     1      41.007  -8.048  17.410  1.00  0.00    -0.273 OA
BRANCH  13  16
HETATM   16  C   UNL     1      42.700  -7.633  19.605  1.00  0.00     0.150 C 
BRANCH  16  17
HETATM   17  C   UNL     1      41.693  -7.477  20.774  1.00  0.00     0.253 C 
BRANCH  17  18
HETATM   18  N   UNL     1      40.398  -8.241  20.527  1.00  0.00    -0.077 N 
HETATM   19  H   UNL     1      40.013  -7.952  19.618  1.00  0.00     0.279 HD
HETATM   20  C   UNL     1      40.591  -9.735  20.485  1.00  0.00     0.269 C 
HETATM   21  C   UNL     1      39.344  -7.879  21.549  1.00  0.00     0.269 C 
ENDBRANCH  17  18
ENDBRANCH  16  17
ENDBRANCH  13  16
ENDBRANCH  11  12
ENDBRANCH   3  11
BRANCH   1  22
HETATM   22  C   UNL     1      41.296  -7.169  12.974  1.00  0.00    -0.024 A 
HETATM   23  C   UNL     1      40.618  -8.390  12.666  1.00  0.00    -0.053 A 
HETATM   24  C   UNL     1      41.355  -9.564  12.391  1.00  0.00     0.014 A 
HETATM   25  C   UNL     1      39.116  -8.533  12.577  1.00  0.00     0.049 C 
HETATM   26  C   UNL     1      42.747  -9.567  12.369  1.00  0.00    -0.061 A 
HETATM   27  C   UNL     1      43.516 -10.783  11.939  1.00  0.00     0.048 C 
HETATM   28  C   UNL     1      43.412  -8.380  12.644  1.00  0.00     0.007 A 
HETATM   29  C   UNL     1      42.700  -7.212  12.943  1.00  0.00     0.011 A 
ENDBRANCH   1  22
BRANCH  10  30
HETATM   30  C   UNL     1      41.952  -4.230  11.721  1.00  0.00     0.294 C 
HETATM   31  O   UNL     1      42.879  -3.635  12.230  1.00  0.00    -0.259 OA
BRANCH  30  32
HETATM   32  O   UNL     1      41.831  -4.667  10.445  1.00  0.00    -0.313 OA
BRANCH  32  33
HETATM   33  C   UNL     1      43.021  -5.200   9.832  1.00  0.00     0.217 C 
BRANCH  33  34
HETATM   34  C   UNL     1      42.706  -6.608   9.386  1.00  0.00    -0.034 A 
HETATM   35  C   UNL     1      41.381  -7.049   9.290  1.00  0.00     0.009 A 
HETATM   36  C   UNL     1      41.098  -8.370   8.935  1.00  0.00     0.001 A 
HETATM   37  C   UNL     1      42.135  -9.263   8.674  1.00  0.00     0.000 A 
HETATM   38  C   UNL     1      43.458  -8.834   8.753  1.00  0.00     0.001 A 
HETATM   39  C   UNL     1      43.741  -7.510   9.097  1.00  0.00     0.009 A 
ENDBRANCH  33  34
ENDBRANCH  32  33
ENDBRANCH  30  32
ENDBRANCH  10  30
TORSDOF 10
ENDMDL
