MODEL 1
REMARK VINA RESULT:      -9.2      0.000      0.000
REMARK  7 active torsions:
REMARK  status: ('A' for Active; 'I' for Inactive)
REMARK    1  A    between atoms: C_8  and  C_9 
REMARK    2  A    between atoms: C_9  and  C_10 
REMARK       I    between atoms: C_10  and  N_11 
REMARK    3  A    between atoms: N_11  and  C_12 
REMARK    4  A    between atoms: N_11  and  C_27 
REMARK    5  A    between atoms: C_12  and  C_13 
REMARK    6  A    between atoms: C_12  and  C_22 
REMARK       I    between atoms: C_13  and  N_14 
REMARK    7  A    between atoms: N_14  and  C_15 
ROOT
HETATM    1  C   UNL     1      41.941 -15.009   2.916  1.00  0.00     0.229 C 
HETATM    2  N   UNL     1      41.663 -13.876   3.689  1.00  0.00    -0.299 N 
HETATM    3  O   UNL     1      41.130 -15.396   2.068  1.00  0.00    -0.273 OA
ENDROOT
BRANCH   2   4
HETATM    4  C   UNL     1      40.287 -13.296   3.754  1.00  0.00     0.225 C 
BRANCH   4   5
HETATM    5  C   UNL     1      39.817 -12.544   5.036  1.00  0.00     0.246 C 
HETATM    6  N   UNL     1      39.958 -11.171   5.054  1.00  0.00    -0.354 N 
HETATM    7  H   UNL     1      39.827 -10.718   4.151  1.00  0.00     0.162 HD
HETATM    8  O   UNL     1      39.372 -13.156   6.011  1.00  0.00    -0.271 OA
BRANCH   6   9
HETATM    9  C   UNL     1      39.672 -10.388   6.250  1.00  0.00     0.084 C 
HETATM   10  C   UNL     1      40.953 -10.162   7.064  1.00  0.00     0.025 C 
HETATM   11  C   UNL     1      41.870  -9.101   6.459  1.00  0.00     0.002 C 
HETATM   12  C   UNL     1      41.125  -7.794   6.213  1.00  0.00     0.000 C 
HETATM   13  C   UNL     1      39.896  -8.014   5.336  1.00  0.00     0.002 C 
HETATM   14  C   UNL     1      38.961  -9.065   5.930  1.00  0.00     0.025 C 
ENDBRANCH   6   9
ENDBRANCH   4   5
BRANCH   4  15
HETATM   15  C   UNL     1      39.920 -12.537   2.495  1.00  0.00     0.015 A 
HETATM   16  S   UNL     1      38.256 -12.195   2.189  1.00  0.00    -0.104 SA
HETATM   17  C   UNL     1      38.609 -11.386   0.732  1.00  0.00     0.050 A 
HETATM   18  C   UNL     1      39.959 -11.369   0.467  1.00  0.00     0.008 A 
HETATM   19  C   UNL     1      40.714 -12.020   1.487  1.00  0.00     0.017 A 
ENDBRANCH   4  15
ENDBRANCH   2   4
BRANCH   2  20
HETATM   20  C   UNL     1      42.687 -13.079   4.285  1.00  0.00     0.041 A 
HETATM   21  C   UNL     1      42.910 -13.144   5.668  1.00  0.00     0.069 A 
HETATM   22  C   UNL     1      43.897 -12.345   6.204  1.00  0.00     0.107 A 
HETATM   23  C   UNL     1      44.645 -11.493   5.425  1.00  0.00     0.105 A 
HETATM   24  O   UNL     1      44.252 -12.295   7.515  1.00  0.00    -0.323 OA
HETATM   25  O   UNL     1      45.561 -10.800   6.149  1.00  0.00    -0.323 OA
HETATM   26  C   UNL     1      44.444 -11.390   4.066  1.00  0.00     0.042 A 
HETATM   27  C   UNL     1      45.302 -11.307   7.475  1.00  0.00     0.352 A 
HETATM   28  C   UNL     1      43.450 -12.189   3.492  1.00  0.00     0.032 A 
ENDBRANCH   2  20
BRANCH   1  29
HETATM   29  C   UNL     1      43.310 -15.673   3.063  1.00  0.00     0.144 C 
BRANCH  29  30
HETATM   30  C   UNL     1      43.483 -16.874   3.959  1.00  0.00    -0.021 A 
HETATM   31  C   UNL     1      43.596 -18.289   3.708  1.00  0.00    -0.001 A 
HETATM   32  C   UNL     1      43.559 -19.124   2.572  1.00  0.00     0.014 A 
HETATM   33  C   UNL     1      43.805 -18.916   4.944  1.00  0.00     0.042 A 
HETATM   34  C   UNL     1      43.714 -20.513   2.702  1.00  0.00     0.001 A 
HETATM   35  C   UNL     1      43.918 -21.091   3.949  1.00  0.00     0.002 A 
HETATM   36  C   UNL     1      43.971 -20.300   5.094  1.00  0.00     0.030 A 
HETATM   37  N   UNL     1      43.821 -17.938   5.906  1.00  0.00    -0.365 N 
HETATM   38  H   UNL     1      43.968 -18.107   6.891  1.00  0.00     0.165 HD
HETATM   39  C   UNL     1      43.634 -16.718   5.332  1.00  0.00     0.097 A 
ENDBRANCH  29  30
ENDBRANCH   1  29
TORSDOF 7
ENDMDL
MODEL 2
REMARK VINA RESULT:      -8.9      1.614      2.303
REMARK  7 active torsions:
REMARK  status: ('A' for Active; 'I' for Inactive)
REMARK    1  A    between atoms: C_8  and  C_9 
REMARK    2  A    between atoms: C_9  and  C_10 
REMARK       I    between atoms: C_10  and  N_11 
REMARK    3  A    between atoms: N_11  and  C_12 
REMARK    4  A    between atoms: N_11  and  C_27 
REMARK    5  A    between atoms: C_12  and  C_13 
REMARK    6  A    between atoms: C_12  and  C_22 
REMARK       I    between atoms: C_13  and  N_14 
REMARK    7  A    between atoms: N_14  and  C_15 
ROOT
HETATM    1  C   UNL     1      40.818 -14.864   6.438  1.00  0.00     0.229 C 
HETATM    2  N   UNL     1      40.939 -13.494   6.178  1.00  0.00    -0.299 N 
HETATM    3  O   UNL     1      39.772 -15.459   6.158  1.00  0.00    -0.273 OA
ENDROOT
BRANCH   2   4
HETATM    4  C   UNL     1      39.744 -12.653   5.868  1.00  0.00     0.225 C 
BRANCH   4   5
HETATM    5  C   UNL     1      39.446 -11.377   6.713  1.00  0.00     0.246 C 
HETATM    6  N   UNL     1      40.515 -10.564   7.033  1.00  0.00    -0.354 N 
HETATM    7  H   UNL     1      41.239 -10.513   6.319  1.00  0.00     0.162 HD
HETATM    8  O   UNL     1      38.306 -11.126   7.115  1.00  0.00    -0.271 OA
BRANCH   6   9
HETATM    9  C   UNL     1      40.367  -9.421   7.927  1.00  0.00     0.084 C 
HETATM   10  C   UNL     1      41.533  -9.363   8.922  1.00  0.00     0.025 C 
HETATM   11  C   UNL     1      42.828  -8.844   8.299  1.00  0.00     0.002 C 
HETATM   12  C   UNL     1      42.615  -7.504   7.606  1.00  0.00     0.000 C 
HETATM   13  C   UNL     1      41.508  -7.590   6.560  1.00  0.00     0.002 C 
HETATM   14  C   UNL     1      40.201  -8.098   7.166  1.00  0.00     0.025 C 
ENDBRANCH   6   9
ENDBRANCH   4   5
BRANCH   4  15
HETATM   15  C   UNL     1      39.595 -12.386   4.384  1.00  0.00     0.015 A 
HETATM   16  S   UNL     1      39.466 -10.750   3.844  1.00  0.00    -0.104 SA
HETATM   17  C   UNL     1      39.346 -11.216   2.210  1.00  0.00     0.050 A 
HETATM   18  C   UNL     1      39.398 -12.582   2.060  1.00  0.00     0.008 A 
HETATM   19  C   UNL     1      39.553 -13.254   3.309  1.00  0.00     0.017 A 
ENDBRANCH   4  15
ENDBRANCH   2   4
BRANCH   2  20
HETATM   20  C   UNL     1      42.200 -12.855   5.980  1.00  0.00     0.041 A 
HETATM   21  C   UNL     1      43.008 -12.543   7.083  1.00  0.00     0.069 A 
HETATM   22  C   UNL     1      44.210 -11.911   6.847  1.00  0.00     0.107 A 
HETATM   23  C   UNL     1      44.619 -11.577   5.578  1.00  0.00     0.105 A 
HETATM   24  O   UNL     1      45.116 -11.551   7.795  1.00  0.00    -0.323 OA
HETATM   25  O   UNL     1      45.831 -10.964   5.568  1.00  0.00    -0.323 OA
HETATM   26  C   UNL     1      43.845 -11.854   4.472  1.00  0.00     0.042 A 
HETATM   27  C   UNL     1      46.138 -10.943   6.978  1.00  0.00     0.352 A 
HETATM   28  C   UNL     1      42.620 -12.495   4.678  1.00  0.00     0.032 A 
ENDBRANCH   2  20
BRANCH   1  29
HETATM   29  C   UNL     1      42.042 -15.618   6.957  1.00  0.00     0.144 C 
BRANCH  29  30
HETATM   30  C   UNL     1      42.682 -16.700   6.124  1.00  0.00    -0.021 A 
HETATM   31  C   UNL     1      42.799 -16.918   4.704  1.00  0.00    -0.001 A 
HETATM   32  C   UNL     1      42.358 -16.260   3.536  1.00  0.00     0.014 A 
HETATM   33  C   UNL     1      43.565 -18.078   4.522  1.00  0.00     0.042 A 
HETATM   34  C   UNL     1      42.673 -16.771   2.268  1.00  0.00     0.001 A 
HETATM   35  C   UNL     1      43.435 -17.925   2.136  1.00  0.00     0.002 A 
HETATM   36  C   UNL     1      43.898 -18.599   3.263  1.00  0.00     0.030 A 
HETATM   37  N   UNL     1      43.903 -18.549   5.765  1.00  0.00    -0.365 N 
HETATM   38  H   UNL     1      44.466 -19.371   5.932  1.00  0.00     0.165 HD
HETATM   39  C   UNL     1      43.385 -17.736   6.727  1.00  0.00     0.097 A 
ENDBRANCH  29  30
ENDBRANCH   1  29
TORSDOF 7
ENDMDL
MODEL 3
REMARK VINA RESULT:      -8.8      2.307      4.470
REMARK  7 active torsions:
REMARK  status: ('A' for Active; 'I' for Inactive)
REMARK    1  A    between atoms: C_8  and  C_9 
REMARK    2  A    between atoms: C_9  and  C_10 
REMARK       I    between atoms: C_10  and  N_11 
REMARK    3  A    between atoms: N_11  and  C_12 
REMARK    4  A    between atoms: N_11  and  C_27 
REMARK    5  A    between atoms: C_12  and  C_13 
REMARK    6  A    between atoms: C_12  and  C_22 
REMARK       I    between atoms: C_13  and  N_14 
REMARK    7  A    between atoms: N_14  and  C_15 
ROOT
HETATM    1  C   UNL     1      42.660 -14.301   5.374  1.00  0.00     0.229 C 
HETATM    2  N   UNL     1      42.216 -13.004   5.093  1.00  0.00    -0.299 N 
HETATM    3  O   UNL     1      42.691 -14.707   6.540  1.00  0.00    -0.273 OA
ENDROOT
BRANCH   2   4
HETATM    4  C   UNL     1      42.076 -11.978   6.170  1.00  0.00     0.225 C 
BRANCH   4   5
HETATM    5  C   UNL     1      43.277 -11.052   6.528  1.00  0.00     0.246 C 
HETATM    6  N   UNL     1      43.320 -10.533   7.806  1.00  0.00    -0.354 N 
HETATM    7  H   UNL     1      42.952 -11.150   8.529  1.00  0.00     0.162 HD
HETATM    8  O   UNL     1      44.136 -10.763   5.690  1.00  0.00    -0.271 OA
BRANCH   6   9
HETATM    9  C   UNL     1      44.326  -9.555   8.203  1.00  0.00     0.084 C 
HETATM   10  C   UNL     1      43.657  -8.273   8.716  1.00  0.00     0.025 C 
HETATM   11  C   UNL     1      43.086  -8.416  10.125  1.00  0.00     0.002 C 
HETATM   12  C   UNL     1      44.138  -8.929  11.103  1.00  0.00     0.000 C 
HETATM   13  C   UNL     1      44.742 -10.246  10.626  1.00  0.00     0.002 C 
HETATM   14  C   UNL     1      45.326 -10.120   9.221  1.00  0.00     0.025 C 
ENDBRANCH   6   9
ENDBRANCH   4   5
BRANCH   4  15
HETATM   15  C   UNL     1      40.783 -11.196   6.059  1.00  0.00     0.015 A 
HETATM   16  S   UNL     1      40.852  -9.548   5.549  1.00  0.00    -0.104 SA
HETATM   17  C   UNL     1      39.161  -9.363   5.652  1.00  0.00     0.050 A 
HETATM   18  C   UNL     1      38.542 -10.519   6.066  1.00  0.00     0.008 A 
HETATM   19  C   UNL     1      39.473 -11.576   6.289  1.00  0.00     0.017 A 
ENDBRANCH   4  15
ENDBRANCH   2   4
BRANCH   2  20
HETATM   20  C   UNL     1      41.669 -12.633   3.827  1.00  0.00     0.041 A 
HETATM   21  C   UNL     1      42.293 -11.640   3.058  1.00  0.00     0.069 A 
HETATM   22  C   UNL     1      41.722 -11.302   1.850  1.00  0.00     0.107 A 
HETATM   23  C   UNL     1      40.569 -11.898   1.398  1.00  0.00     0.105 A 
HETATM   24  O   UNL     1      42.202 -10.374   0.978  1.00  0.00    -0.323 OA
HETATM   25  O   UNL     1      40.178 -11.421   0.188  1.00  0.00    -0.323 OA
HETATM   26  C   UNL     1      39.919 -12.866   2.132  1.00  0.00     0.042 A 
HETATM   27  C   UNL     1      41.214 -10.449  -0.070  1.00  0.00     0.352 A 
HETATM   28  C   UNL     1      40.474 -13.232   3.363  1.00  0.00     0.032 A 
ENDBRANCH   2  20
BRANCH   1  29
HETATM   29  C   UNL     1      42.984 -15.229   4.204  1.00  0.00     0.144 C 
BRANCH  29  30
HETATM   30  C   UNL     1      43.406 -16.655   4.455  1.00  0.00    -0.021 A 
HETATM   31  C   UNL     1      43.372 -17.854   3.656  1.00  0.00    -0.001 A 
HETATM   32  C   UNL     1      42.918 -18.201   2.366  1.00  0.00     0.014 A 
HETATM   33  C   UNL     1      43.965 -18.875   4.411  1.00  0.00     0.042 A 
HETATM   34  C   UNL     1      43.054 -19.515   1.892  1.00  0.00     0.001 A 
HETATM   35  C   UNL     1      43.648 -20.495   2.676  1.00  0.00     0.002 A 
HETATM   36  C   UNL     1      44.118 -20.191   3.951  1.00  0.00     0.030 A 
HETATM   37  N   UNL     1      44.346 -18.333   5.612  1.00  0.00    -0.365 N 
HETATM   38  H   UNL     1      44.814 -18.844   6.348  1.00  0.00     0.165 HD
HETATM   39  C   UNL     1      44.022 -17.011   5.649  1.00  0.00     0.097 A 
ENDBRANCH  29  30
ENDBRANCH   1  29
TORSDOF 7
ENDMDL
MODEL 4
REMARK VINA RESULT:      -8.7      2.221      4.497
REMARK  7 active torsions:
REMARK  status: ('A' for Active; 'I' for Inactive)
REMARK    1  A    between atoms: C_8  and  C_9 
REMARK    2  A    between atoms: C_9  and  C_10 
REMARK       I    between atoms: C_10  and  N_11 
REMARK    3  A    between atoms: N_11  and  C_12 
REMARK    4  A    between atoms: N_11  and  C_27 
REMARK    5  A    between atoms: C_12  and  C_13 
REMARK    6  A    between atoms: C_12  and  C_22 
REMARK       I    between atoms: C_13  and  N_14 
REMARK    7  A    between atoms: N_14  and  C_15 
ROOT
HETATM    1  C   UNL     1      40.337 -13.835   5.930  1.00  0.00     0.229 C 
HETATM    2  N   UNL     1      40.864 -12.772   5.188  1.00  0.00    -0.299 N 
HETATM    3  O   UNL     1      39.834 -13.629   7.040  1.00  0.00    -0.273 OA
ENDROOT
BRANCH   2   4
HETATM    4  C   UNL     1      41.129 -11.442   5.814  1.00  0.00     0.225 C 
BRANCH   4   5
HETATM    5  C   UNL     1      42.564 -11.082   6.305  1.00  0.00     0.246 C 
HETATM    6  N   UNL     1      42.674 -10.408   7.505  1.00  0.00    -0.354 N 
HETATM    7  H   UNL     1      41.973 -10.660   8.200  1.00  0.00     0.162 HD
HETATM    8  O   UNL     1      43.560 -11.354   5.629  1.00  0.00    -0.271 OA
BRANCH   6   9
HETATM    9  C   UNL     1      43.956  -9.910   7.989  1.00  0.00     0.084 C 
HETATM   10  C   UNL     1      43.859  -8.417   8.330  1.00  0.00     0.025 C 
HETATM   11  C   UNL     1      43.136  -8.148   9.648  1.00  0.00     0.002 C 
HETATM   12  C   UNL     1      43.749  -8.946  10.793  1.00  0.00     0.000 C 
HETATM   13  C   UNL     1      43.768 -10.439  10.481  1.00  0.00     0.002 C 
HETATM   14  C   UNL     1      44.496 -10.729   9.170  1.00  0.00     0.025 C 
ENDBRANCH   6   9
ENDBRANCH   4   5
BRANCH   4  15
HETATM   15  C   UNL     1      40.504 -10.302   5.036  1.00  0.00     0.015 A 
HETATM   16  S   UNL     1      38.811 -10.009   5.209  1.00  0.00    -0.104 SA
HETATM   17  C   UNL     1      38.849  -8.690   4.132  1.00  0.00     0.050 A 
HETATM   18  C   UNL     1      40.113  -8.464   3.639  1.00  0.00     0.008 A 
HETATM   19  C   UNL     1      41.067  -9.384   4.168  1.00  0.00     0.017 A 
ENDBRANCH   4  15
ENDBRANCH   2   4
BRANCH   2  20
HETATM   20  C   UNL     1      40.980 -12.808   3.765  1.00  0.00     0.041 A 
HETATM   21  C   UNL     1      39.846 -12.614   2.964  1.00  0.00     0.069 A 
HETATM   22  C   UNL     1      40.000 -12.673   1.596  1.00  0.00     0.107 A 
HETATM   23  C   UNL     1      41.219 -12.926   1.013  1.00  0.00     0.105 A 
HETATM   24  O   UNL     1      39.013 -12.495   0.678  1.00  0.00    -0.323 OA
HETATM   25  O   UNL     1      41.151 -12.941  -0.344  1.00  0.00    -0.323 OA
HETATM   26  C   UNL     1      42.353 -13.138   1.767  1.00  0.00     0.042 A 
HETATM   27  C   UNL     1      39.748 -12.674  -0.550  1.00  0.00     0.352 A 
HETATM   28  C   UNL     1      42.228 -13.083   3.159  1.00  0.00     0.032 A 
ENDBRANCH   2  20
BRANCH   1  29
HETATM   29  C   UNL     1      40.292 -15.221   5.287  1.00  0.00     0.144 C 
BRANCH  29  30
HETATM   30  C   UNL     1      41.488 -16.137   5.362  1.00  0.00    -0.021 A 
HETATM   31  C   UNL     1      42.246 -16.859   4.373  1.00  0.00    -0.001 A 
HETATM   32  C   UNL     1      42.179 -17.040   2.974  1.00  0.00     0.014 A 
HETATM   33  C   UNL     1      43.299 -17.501   5.039  1.00  0.00     0.042 A 
HETATM   34  C   UNL     1      43.123 -17.838   2.312  1.00  0.00     0.001 A 
HETATM   35  C   UNL     1      44.149 -18.457   3.015  1.00  0.00     0.002 A 
HETATM   36  C   UNL     1      44.257 -18.296   4.394  1.00  0.00     0.030 A 
HETATM   37  N   UNL     1      43.195 -17.189   6.371  1.00  0.00    -0.365 N 
HETATM   38  H   UNL     1      43.834 -17.509   7.086  1.00  0.00     0.165 HD
HETATM   39  C   UNL     1      42.123 -16.375   6.576  1.00  0.00     0.097 A 
ENDBRANCH  29  30
ENDBRANCH   1  29
TORSDOF 7
ENDMDL
MODEL 5
REMARK VINA RESULT:      -8.7      2.211      4.355
REMARK  7 active torsions:
REMARK  status: ('A' for Active; 'I' for Inactive)
REMARK    1  A    between atoms: C_8  and  C_9 
REMARK    2  A    between atoms: C_9  and  C_10 
REMARK       I    between atoms: C_10  and  N_11 
REMARK    3  A    between atoms: N_11  and  C_12 
REMARK    4  A    between atoms: N_11  and  C_27 
REMARK    5  A    between atoms: C_12  and  C_13 
REMARK    6  A    between atoms: C_12  and  C_22 
REMARK       I    between atoms: C_13  and  N_14 
REMARK    7  A    between atoms: N_14  and  C_15 
ROOT
HETATM    1  C   UNL     1      40.583 -13.110   4.971  1.00  0.00     0.229 C 
HETATM    2  N   UNL     1      41.372 -11.954   4.973  1.00  0.00    -0.299 N 
HETATM    3  O   UNL     1      39.949 -13.427   3.960  1.00  0.00    -0.273 OA
ENDROOT
BRANCH   2   4
HETATM    4  C   UNL     1      41.233 -10.915   3.909  1.00  0.00     0.225 C 
BRANCH   4   5
HETATM    5  C   UNL     1      41.640 -11.242   2.440  1.00  0.00     0.246 C 
HETATM    6  N   UNL     1      41.051 -12.342   1.848  1.00  0.00    -0.354 N 
HETATM    7  H   UNL     1      40.088 -12.514   2.133  1.00  0.00     0.162 HD
HETATM    8  O   UNL     1      42.485 -10.568   1.844  1.00  0.00    -0.271 OA
BRANCH   6   9
HETATM    9  C   UNL     1      41.458 -12.811   0.528  1.00  0.00     0.084 C 
HETATM   10  C   UNL     1      41.483 -14.344   0.487  1.00  0.00     0.025 C 
HETATM   11  C   UNL     1      40.090 -14.965   0.397  1.00  0.00     0.002 C 
HETATM   12  C   UNL     1      39.296 -14.386  -0.769  1.00  0.00     0.000 C 
HETATM   13  C   UNL     1      39.207 -12.866  -0.678  1.00  0.00     0.002 C 
HETATM   14  C   UNL     1      40.591 -12.225  -0.596  1.00  0.00     0.025 C 
ENDBRANCH   6   9
ENDBRANCH   4   5
BRANCH   4  15
HETATM   15  C   UNL     1      39.899 -10.199   3.972  1.00  0.00     0.015 A 
HETATM   16  S   UNL     1      39.229  -9.829   5.520  1.00  0.00    -0.104 SA
HETATM   17  C   UNL     1      37.855  -9.089   4.835  1.00  0.00     0.050 A 
HETATM   18  C   UNL     1      37.888  -9.115   3.460  1.00  0.00     0.008 A 
HETATM   19  C   UNL     1      39.069  -9.743   2.964  1.00  0.00     0.017 A 
ENDBRANCH   4  15
ENDBRANCH   2   4
BRANCH   2  20
HETATM   20  C   UNL     1      42.492 -11.786   5.844  1.00  0.00     0.041 A 
HETATM   21  C   UNL     1      42.446 -10.827   6.865  1.00  0.00     0.069 A 
HETATM   22  C   UNL     1      43.555 -10.686   7.672  1.00  0.00     0.107 A 
HETATM   23  C   UNL     1      44.687 -11.445   7.490  1.00  0.00     0.105 A 
HETATM   24  O   UNL     1      43.674  -9.819   8.713  1.00  0.00    -0.323 OA
HETATM   25  O   UNL     1      45.659 -11.149   8.391  1.00  0.00    -0.323 OA
HETATM   26  C   UNL     1      44.774 -12.386   6.488  1.00  0.00     0.042 A 
HETATM   27  C   UNL     1      45.014 -10.112   9.159  1.00  0.00     0.352 A 
HETATM   28  C   UNL     1      43.665 -12.553   5.653  1.00  0.00     0.032 A 
ENDBRANCH   2  20
BRANCH   1  29
HETATM   29  C   UNL     1      40.624 -14.022   6.197  1.00  0.00     0.144 C 
BRANCH  29  30
HETATM   30  C   UNL     1      41.522 -15.233   6.218  1.00  0.00    -0.021 A 
HETATM   31  C   UNL     1      42.101 -16.055   5.186  1.00  0.00    -0.001 A 
HETATM   32  C   UNL     1      42.053 -16.098   3.776  1.00  0.00     0.014 A 
HETATM   33  C   UNL     1      42.907 -17.012   5.817  1.00  0.00     0.042 A 
HETATM   34  C   UNL     1      42.775 -17.069   3.067  1.00  0.00     0.001 A 
HETATM   35  C   UNL     1      43.561 -17.999   3.736  1.00  0.00     0.002 A 
HETATM   36  C   UNL     1      43.643 -17.985   5.126  1.00  0.00     0.030 A 
HETATM   37  N   UNL     1      42.829 -16.791   7.168  1.00  0.00    -0.365 N 
HETATM   38  H   UNL     1      43.324 -17.329   7.866  1.00  0.00     0.165 HD
HETATM   39  C   UNL     1      42.010 -15.733   7.420  1.00  0.00     0.097 A 
ENDBRANCH  29  30
ENDBRANCH   1  29
TORSDOF 7
ENDMDL
MODEL 6
REMARK VINA RESULT:      -8.5      2.151      4.599
REMARK  7 active torsions:
REMARK  status: ('A' for Active; 'I' for Inactive)
REMARK    1  A    between atoms: C_8  and  C_9 
REMARK    2  A    between atoms: C_9  and  C_10 
REMARK       I    between atoms: C_10  and  N_11 
REMARK    3  A    between atoms: N_11  and  C_12 
REMARK    4  A    between atoms: N_11  and  C_27 
REMARK    5  A    between atoms: C_12  and  C_13 
REMARK    6  A    between atoms: C_12  and  C_22 
REMARK       I    between atoms: C_13  and  N_14 
REMARK    7  A    between atoms: N_14  and  C_15 
ROOT
HETATM    1  C   UNL     1      40.242 -13.709   3.251  1.00  0.00     0.229 C 
HETATM    2  N   UNL     1      40.747 -12.413   3.406  1.00  0.00    -0.299 N 
HETATM    3  O   UNL     1      39.432 -13.957   2.352  1.00  0.00    -0.273 OA
ENDROOT
BRANCH   2   4
HETATM    4  C   UNL     1      40.110 -11.244   2.729  1.00  0.00     0.225 C 
BRANCH   4   5
HETATM    5  C   UNL     1      39.211 -11.462   1.475  1.00  0.00     0.246 C 
HETATM    6  N   UNL     1      39.845 -11.732   0.279  1.00  0.00    -0.354 N 
HETATM    7  H   UNL     1      40.698 -12.283   0.365  1.00  0.00     0.162 HD
HETATM    8  O   UNL     1      37.982 -11.357   1.540  1.00  0.00    -0.271 OA
BRANCH   6   9
HETATM    9  C   UNL     1      39.107 -11.822  -0.976  1.00  0.00     0.084 C 
HETATM   10  C   UNL     1      39.920 -11.207  -2.123  1.00  0.00     0.025 C 
HETATM   11  C   UNL     1      41.057 -12.107  -2.602  1.00  0.00     0.002 C 
HETATM   12  C   UNL     1      40.553 -13.501  -2.958  1.00  0.00     0.000 C 
HETATM   13  C   UNL     1      39.815 -14.139  -1.785  1.00  0.00     0.002 C 
HETATM   14  C   UNL     1      38.667 -13.258  -1.297  1.00  0.00     0.025 C 
ENDBRANCH   6   9
ENDBRANCH   4   5
BRANCH   4  15
HETATM   15  C   UNL     1      39.471 -10.285   3.714  1.00  0.00     0.015 A 
HETATM   16  S   UNL     1      39.643  -8.587   3.448  1.00  0.00    -0.104 SA
HETATM   17  C   UNL     1      38.734  -8.199   4.836  1.00  0.00     0.050 A 
HETATM   18  C   UNL     1      38.303  -9.323   5.500  1.00  0.00     0.008 A 
HETATM   19  C   UNL     1      38.716 -10.523   4.848  1.00  0.00     0.017 A 
ENDBRANCH   4  15
ENDBRANCH   2   4
BRANCH   2  20
HETATM   20  C   UNL     1      42.004 -12.144   4.028  1.00  0.00     0.041 A 
HETATM   21  C   UNL     1      42.089 -12.050   5.424  1.00  0.00     0.069 A 
HETATM   22  C   UNL     1      43.319 -11.773   5.982  1.00  0.00     0.107 A 
HETATM   23  C   UNL     1      44.440 -11.579   5.209  1.00  0.00     0.105 A 
HETATM   24  O   UNL     1      43.580 -11.661   7.312  1.00  0.00    -0.323 OA
HETATM   25  O   UNL     1      45.544 -11.319   5.956  1.00  0.00    -0.323 OA
HETATM   26  C   UNL     1      44.392 -11.648   3.834  1.00  0.00     0.042 A 
HETATM   27  C   UNL     1      44.991 -11.365   7.288  1.00  0.00     0.352 A 
HETATM   28  C   UNL     1      43.159 -11.929   3.238  1.00  0.00     0.032 A 
ENDBRANCH   2  20
BRANCH   1  29
HETATM   29  C   UNL     1      40.806 -14.821   4.136  1.00  0.00     0.144 C 
BRANCH  29  30
HETATM   30  C   UNL     1      41.812 -15.799   3.584  1.00  0.00    -0.021 A 
HETATM   31  C   UNL     1      42.607 -16.844   4.178  1.00  0.00    -0.001 A 
HETATM   32  C   UNL     1      42.802 -17.356   5.479  1.00  0.00     0.014 A 
HETATM   33  C   UNL     1      43.321 -17.465   3.144  1.00  0.00     0.042 A 
HETATM   34  C   UNL     1      43.683 -18.426   5.700  1.00  0.00     0.001 A 
HETATM   35  C   UNL     1      44.370 -19.009   4.643  1.00  0.00     0.002 A 
HETATM   36  C   UNL     1      44.199 -18.540   3.343  1.00  0.00     0.030 A 
HETATM   37  N   UNL     1      42.983 -16.836   1.973  1.00  0.00    -0.365 N 
HETATM   38  H   UNL     1      43.342 -17.088   1.063  1.00  0.00     0.165 HD
HETATM   39  C   UNL     1      42.083 -15.844   2.221  1.00  0.00     0.097 A 
ENDBRANCH  29  30
ENDBRANCH   1  29
TORSDOF 7
ENDMDL
MODEL 7
REMARK VINA RESULT:      -8.3      2.672      7.085
REMARK  7 active torsions:
REMARK  status: ('A' for Active; 'I' for Inactive)
REMARK    1  A    between atoms: C_8  and  C_9 
REMARK    2  A    between atoms: C_9  and  C_10 
REMARK       I    between atoms: C_10  and  N_11 
REMARK    3  A    between atoms: N_11  and  C_12 
REMARK    4  A    between atoms: N_11  and  C_27 
REMARK    5  A    between atoms: C_12  and  C_13 
REMARK    6  A    between atoms: C_12  and  C_22 
REMARK       I    between atoms: C_13  and  N_14 
REMARK    7  A    between atoms: N_14  and  C_15 
ROOT
HETATM    1  C   UNL     1      42.793 -11.606   3.920  1.00  0.00     0.229 C 
HETATM    2  N   UNL     1      42.238 -11.367   5.183  1.00  0.00    -0.299 N 
HETATM    3  O   UNL     1      43.466 -12.622   3.719  1.00  0.00    -0.273 OA
ENDROOT
BRANCH   2   4
HETATM    4  C   UNL     1      42.688 -12.128   6.387  1.00  0.00     0.225 C 
BRANCH   4   5
HETATM    5  C   UNL     1      42.873 -13.674   6.309  1.00  0.00     0.246 C 
HETATM    6  N   UNL     1      42.071 -14.365   5.422  1.00  0.00    -0.354 N 
HETATM    7  H   UNL     1      41.852 -13.860   4.565  1.00  0.00     0.162 HD
HETATM    8  O   UNL     1      43.675 -14.262   7.041  1.00  0.00    -0.271 OA
BRANCH   6   9
HETATM    9  C   UNL     1      42.071 -15.822   5.366  1.00  0.00     0.084 C 
HETATM   10  C   UNL     1      40.727 -16.340   4.837  1.00  0.00     0.025 C 
HETATM   11  C   UNL     1      40.573 -16.174   3.327  1.00  0.00     0.002 C 
HETATM   12  C   UNL     1      41.746 -16.793   2.575  1.00  0.00     0.000 C 
HETATM   13  C   UNL     1      43.075 -16.215   3.050  1.00  0.00     0.002 C 
HETATM   14  C   UNL     1      43.252 -16.379   4.558  1.00  0.00     0.025 C 
ENDBRANCH   6   9
ENDBRANCH   4   5
BRANCH   4  15
HETATM   15  C   UNL     1      43.854 -11.462   7.089  1.00  0.00     0.015 A 
HETATM   16  S   UNL     1      45.393 -11.442   6.306  1.00  0.00    -0.104 SA
HETATM   17  C   UNL     1      46.123 -10.593   7.590  1.00  0.00     0.050 A 
HETATM   18  C   UNL     1      45.231 -10.325   8.602  1.00  0.00     0.008 A 
HETATM   19  C   UNL     1      43.923 -10.814   8.309  1.00  0.00     0.017 A 
ENDBRANCH   4  15
ENDBRANCH   2   4
BRANCH   2  20
HETATM   20  C   UNL     1      41.080 -10.554   5.375  1.00  0.00     0.041 A 
HETATM   21  C   UNL     1      41.220  -9.220   5.783  1.00  0.00     0.069 A 
HETATM   22  C   UNL     1      40.075  -8.476   5.973  1.00  0.00     0.107 A 
HETATM   23  C   UNL     1      38.822  -9.011   5.786  1.00  0.00     0.105 A 
HETATM   24  O   UNL     1      40.031  -7.171   6.352  1.00  0.00    -0.323 OA
HETATM   25  O   UNL     1      37.834  -8.111   6.025  1.00  0.00    -0.323 OA
HETATM   26  C   UNL     1      38.645 -10.322   5.401  1.00  0.00     0.042 A 
HETATM   27  C   UNL     1      38.606  -6.948   6.391  1.00  0.00     0.352 A 
HETATM   28  C   UNL     1      39.788 -11.102   5.199  1.00  0.00     0.032 A 
ENDBRANCH   2  20
BRANCH   1  29
HETATM   29  C   UNL     1      42.445 -10.650   2.779  1.00  0.00     0.144 C 
BRANCH  29  30
HETATM   30  C   UNL     1      41.301 -10.960   1.846  1.00  0.00    -0.021 A 
HETATM   31  C   UNL     1      40.915 -12.136   1.109  1.00  0.00    -0.001 A 
HETATM   32  C   UNL     1      41.434 -13.435   0.925  1.00  0.00     0.014 A 
HETATM   33  C   UNL     1      39.712 -11.841   0.453  1.00  0.00     0.042 A 
HETATM   34  C   UNL     1      40.767 -14.362   0.111  1.00  0.00     0.001 A 
HETATM   35  C   UNL     1      39.577 -14.024  -0.521  1.00  0.00     0.002 A 
HETATM   36  C   UNL     1      39.025 -12.756  -0.358  1.00  0.00     0.030 A 
HETATM   37  N   UNL     1      39.374 -10.550   0.770  1.00  0.00    -0.365 N 
HETATM   38  H   UNL     1      38.542 -10.079   0.443  1.00  0.00     0.165 HD
HETATM   39  C   UNL     1      40.311 -10.015   1.601  1.00  0.00     0.097 A 
ENDBRANCH  29  30
ENDBRANCH   1  29
TORSDOF 7
ENDMDL
MODEL 8
REMARK VINA RESULT:      -8.3     16.362     19.224
REMARK  7 active torsions:
REMARK  status: ('A' for Active; 'I' for Inactive)
REMARK    1  A    between atoms: C_8  and  C_9 
REMARK    2  A    between atoms: C_9  and  C_10 
REMARK       I    between atoms: C_10  and  N_11 
REMARK    3  A    between atoms: N_11  and  C_12 
REMARK    4  A    between atoms: N_11  and  C_27 
REMARK    5  A    between atoms: C_12  and  C_13 
REMARK    6  A    between atoms: C_12  and  C_22 
REMARK       I    between atoms: C_13  and  N_14 
REMARK    7  A    between atoms: N_14  and  C_15 
ROOT
HETATM    1  C   UNL     1      47.500 -32.136   1.324  1.00  0.00     0.229 C 
HETATM    2  N   UNL     1      47.672 -31.254   2.397  1.00  0.00    -0.299 N 
HETATM    3  O   UNL     1      46.677 -31.883   0.438  1.00  0.00    -0.273 OA
ENDROOT
BRANCH   2   4
HETATM    4  C   UNL     1      46.678 -30.175   2.684  1.00  0.00     0.225 C 
BRANCH   4   5
HETATM    5  C   UNL     1      46.598 -28.922   1.761  1.00  0.00     0.246 C 
HETATM    6  N   UNL     1      46.218 -29.122   0.449  1.00  0.00    -0.354 N 
HETATM    7  H   UNL     1      45.537 -29.868   0.313  1.00  0.00     0.162 HD
HETATM    8  O   UNL     1      46.902 -27.799   2.176  1.00  0.00    -0.271 OA
BRANCH   6   9
HETATM    9  C   UNL     1      46.238 -28.040  -0.528  1.00  0.00     0.084 C 
HETATM   10  C   UNL     1      47.388 -28.237  -1.525  1.00  0.00     0.025 C 
HETATM   11  C   UNL     1      47.101 -29.316  -2.567  1.00  0.00     0.002 C 
HETATM   12  C   UNL     1      45.777 -29.064  -3.280  1.00  0.00     0.000 C 
HETATM   13  C   UNL     1      44.625 -28.950  -2.287  1.00  0.00     0.002 C 
HETATM   14  C   UNL     1      44.889 -27.868  -1.242  1.00  0.00     0.025 C 
ENDBRANCH   6   9
ENDBRANCH   4   5
BRANCH   4  15
HETATM   15  C   UNL     1      45.302 -30.726   2.997  1.00  0.00     0.015 A 
HETATM   16  S   UNL     1      45.168 -32.044   4.105  1.00  0.00    -0.104 SA
HETATM   17  C   UNL     1      43.471 -32.093   3.963  1.00  0.00     0.050 A 
HETATM   18  C   UNL     1      42.999 -31.137   3.095  1.00  0.00     0.008 A 
HETATM   19  C   UNL     1      44.051 -30.343   2.548  1.00  0.00     0.017 A 
ENDBRANCH   4  15
ENDBRANCH   2   4
BRANCH   2  20
HETATM   20  C   UNL     1      48.884 -31.179   3.147  1.00  0.00     0.041 A 
HETATM   21  C   UNL     1      48.996 -31.862   4.366  1.00  0.00     0.069 A 
HETATM   22  C   UNL     1      50.178 -31.749   5.067  1.00  0.00     0.107 A 
HETATM   23  C   UNL     1      51.224 -30.984   4.607  1.00  0.00     0.105 A 
HETATM   24  O   UNL     1      50.458 -32.353   6.252  1.00  0.00    -0.323 OA
HETATM   25  O   UNL     1      52.292 -31.010   5.446  1.00  0.00    -0.323 OA
HETATM   26  C   UNL     1      51.145 -30.286   3.422  1.00  0.00     0.042 A 
HETATM   27  C   UNL     1      51.798 -31.873   6.491  1.00  0.00     0.352 A 
HETATM   28  C   UNL     1      49.959 -30.382   2.688  1.00  0.00     0.032 A 
ENDBRANCH   2  20
BRANCH   1  29
HETATM   29  C   UNL     1      48.433 -33.342   1.216  1.00  0.00     0.144 C 
BRANCH  29  30
HETATM   30  C   UNL     1      49.766 -33.216   0.523  1.00  0.00    -0.021 A 
HETATM   31  C   UNL     1      50.299 -32.285  -0.439  1.00  0.00    -0.001 A 
HETATM   32  C   UNL     1      49.812 -31.162  -1.142  1.00  0.00     0.014 A 
HETATM   33  C   UNL     1      51.634 -32.642  -0.671  1.00  0.00     0.042 A 
HETATM   34  C   UNL     1      50.641 -30.463  -2.032  1.00  0.00     0.001 A 
HETATM   35  C   UNL     1      51.960 -30.854  -2.231  1.00  0.00     0.002 A 
HETATM   36  C   UNL     1      52.481 -31.951  -1.549  1.00  0.00     0.030 A 
HETATM   37  N   UNL     1      51.911 -33.735   0.110  1.00  0.00    -0.365 N 
HETATM   38  H   UNL     1      52.809 -34.197   0.151  1.00  0.00     0.165 HD
HETATM   39  C   UNL     1      50.808 -34.085   0.828  1.00  0.00     0.097 A 
ENDBRANCH  29  30
ENDBRANCH   1  29
TORSDOF 7
ENDMDL
MODEL 9
REMARK VINA RESULT:      -8.2      2.564      5.911
REMARK  7 active torsions:
REMARK  status: ('A' for Active; 'I' for Inactive)
REMARK    1  A    between atoms: C_8  and  C_9 
REMARK    2  A    between atoms: C_9  and  C_10 
REMARK       I    between atoms: C_10  and  N_11 
REMARK    3  A    between atoms: N_11  and  C_12 
REMARK    4  A    between atoms: N_11  and  C_27 
REMARK    5  A    between atoms: C_12  and  C_13 
REMARK    6  A    between atoms: C_12  and  C_22 
REMARK       I    between atoms: C_13  and  N_14 
REMARK    7  A    between atoms: N_14  and  C_15 
ROOT
HETATM    1  C   UNL     1      42.852 -12.911   3.544  1.00  0.00     0.229 C 
HETATM    2  N   UNL     1      42.637 -13.291   4.873  1.00  0.00    -0.299 N 
HETATM    3  O   UNL     1      43.159 -11.745   3.273  1.00  0.00    -0.273 OA
ENDROOT
BRANCH   2   4
HETATM    4  C   UNL     1      42.453 -12.276   5.953  1.00  0.00     0.225 C 
BRANCH   4   5
HETATM    5  C   UNL     1      43.677 -11.471   6.485  1.00  0.00     0.246 C 
HETATM    6  N   UNL     1      43.510 -10.765   7.660  1.00  0.00    -0.354 N 
HETATM    7  H   UNL     1      42.890 -11.206   8.337  1.00  0.00     0.162 HD
HETATM    8  O   UNL     1      44.741 -11.433   5.860  1.00  0.00    -0.271 OA
BRANCH   6   9
HETATM    9  C   UNL     1      44.547  -9.877   8.173  1.00  0.00     0.084 C 
HETATM   10  C   UNL     1      43.971  -8.482   8.452  1.00  0.00     0.025 C 
HETATM   11  C   UNL     1      43.136  -8.422   9.730  1.00  0.00     0.002 C 
HETATM   12  C   UNL     1      43.912  -8.958  10.928  1.00  0.00     0.000 C 
HETATM   13  C   UNL     1      44.413 -10.376  10.674  1.00  0.00     0.002 C 
HETATM   14  C   UNL     1      45.258 -10.455   9.405  1.00  0.00     0.025 C 
ENDBRANCH   6   9
ENDBRANCH   4   5
BRANCH   4  15
HETATM   15  C   UNL     1      41.260 -11.375   5.702  1.00  0.00     0.015 A 
HETATM   16  S   UNL     1      39.679 -12.069   5.723  1.00  0.00    -0.104 SA
HETATM   17  C   UNL     1      38.933 -10.572   5.397  1.00  0.00     0.050 A 
HETATM   18  C   UNL     1      39.851  -9.556   5.270  1.00  0.00     0.008 A 
HETATM   19  C   UNL     1      41.189 -10.016   5.457  1.00  0.00     0.017 A 
ENDBRANCH   4  15
ENDBRANCH   2   4
BRANCH   2  20
HETATM   20  C   UNL     1      42.790 -14.637   5.325  1.00  0.00     0.041 A 
HETATM   21  C   UNL     1      43.431 -15.581   4.509  1.00  0.00     0.069 A 
HETATM   22  C   UNL     1      43.542 -16.873   4.977  1.00  0.00     0.107 A 
HETATM   23  C   UNL     1      43.037 -17.249   6.199  1.00  0.00     0.105 A 
HETATM   24  O   UNL     1      44.142 -17.904   4.324  1.00  0.00    -0.323 OA
HETATM   25  O   UNL     1      43.254 -18.563   6.467  1.00  0.00    -0.323 OA
HETATM   26  C   UNL     1      42.388 -16.354   7.021  1.00  0.00     0.042 A 
HETATM   27  C   UNL     1      43.949 -18.975   5.271  1.00  0.00     0.352 A 
HETATM   28  C   UNL     1      42.260 -15.035   6.575  1.00  0.00     0.032 A 
ENDBRANCH   2  20
BRANCH   1  29
HETATM   29  C   UNL     1      42.817 -13.991   2.462  1.00  0.00     0.144 C 
BRANCH  29  30
HETATM   30  C   UNL     1      41.599 -14.157   1.588  1.00  0.00    -0.021 A 
HETATM   31  C   UNL     1      41.006 -13.349   0.553  1.00  0.00    -0.001 A 
HETATM   32  C   UNL     1      41.277 -12.097  -0.039  1.00  0.00     0.014 A 
HETATM   33  C   UNL     1      39.905 -14.056   0.052  1.00  0.00     0.042 A 
HETATM   34  C   UNL     1      40.461 -11.602  -1.068  1.00  0.00     0.001 A 
HETATM   35  C   UNL     1      39.378 -12.339  -1.531  1.00  0.00     0.002 A 
HETATM   36  C   UNL     1      39.082 -13.583  -0.981  1.00  0.00     0.030 A 
HETATM   37  N   UNL     1      39.824 -15.239   0.742  1.00  0.00    -0.365 N 
HETATM   38  H   UNL     1      39.127 -15.952   0.578  1.00  0.00     0.165 HD
HETATM   39  C   UNL     1      40.829 -15.312   1.658  1.00  0.00     0.097 A 
ENDBRANCH  29  30
ENDBRANCH   1  29
TORSDOF 7
ENDMDL
MODEL 10
REMARK VINA RESULT:      -8.0      2.768      7.266
REMARK  7 active torsions:
REMARK  status: ('A' for Active; 'I' for Inactive)
REMARK    1  A    between atoms: C_8  and  C_9 
REMARK    2  A    between atoms: C_9  and  C_10 
REMARK       I    between atoms: C_10  and  N_11 
REMARK    3  A    between atoms: N_11  and  C_12 
REMARK    4  A    between atoms: N_11  and  C_27 
REMARK    5  A    between atoms: C_12  and  C_13 
REMARK    6  A    between atoms: C_12  and  C_22 
REMARK       I    between atoms: C_13  and  N_14 
REMARK    7  A    between atoms: N_14  and  C_15 
ROOT
HETATM    1  C   UNL     1      41.460 -12.026   3.141  1.00  0.00     0.229 C 
HETATM    2  N   UNL     1      41.280 -11.343   4.350  1.00  0.00    -0.299 N 
HETATM    3  O   UNL     1      41.729 -13.232   3.143  1.00  0.00    -0.273 OA
ENDROOT
BRANCH   2   4
HETATM    4  C   UNL     1      41.710 -11.938   5.651  1.00  0.00     0.225 C 
BRANCH   4   5
HETATM    5  C   UNL     1      41.314 -13.402   6.009  1.00  0.00     0.246 C 
HETATM    6  N   UNL     1      42.277 -14.378   5.845  1.00  0.00    -0.354 N 
HETATM    7  H   UNL     1      43.230 -14.073   6.039  1.00  0.00     0.162 HD
HETATM    8  O   UNL     1      40.173 -13.685   6.386  1.00  0.00    -0.271 OA
BRANCH   6   9
HETATM    9  C   UNL     1      41.973 -15.793   6.025  1.00  0.00     0.084 C 
HETATM   10  C   UNL     1      41.826 -16.489   4.665  1.00  0.00     0.025 C 
HETATM   11  C   UNL     1      43.165 -16.754   3.980  1.00  0.00     0.002 C 
HETATM   12  C   UNL     1      44.120 -17.510   4.896  1.00  0.00     0.000 C 
HETATM   13  C   UNL     1      44.324 -16.772   6.215  1.00  0.00     0.002 C 
HETATM   14  C   UNL     1      42.996 -16.505   6.921  1.00  0.00     0.025 C 
ENDBRANCH   6   9
ENDBRANCH   4   5
BRANCH   4  15
HETATM   15  C   UNL     1      43.168 -11.663   5.958  1.00  0.00     0.015 A 
HETATM   16  S   UNL     1      43.637 -11.416   7.602  1.00  0.00    -0.104 SA
HETATM   17  C   UNL     1      45.273 -11.193   7.183  1.00  0.00     0.050 A 
HETATM   18  C   UNL     1      45.476 -11.298   5.827  1.00  0.00     0.008 A 
HETATM   19  C   UNL     1      44.268 -11.580   5.124  1.00  0.00     0.017 A 
ENDBRANCH   4  15
ENDBRANCH   2   4
BRANCH   2  20
HETATM   20  C   UNL     1      40.495 -10.155   4.454  1.00  0.00     0.041 A 
HETATM   21  C   UNL     1      41.113  -8.899   4.375  1.00  0.00     0.069 A 
HETATM   22  C   UNL     1      40.321  -7.777   4.497  1.00  0.00     0.107 A 
HETATM   23  C   UNL     1      38.964  -7.865   4.704  1.00  0.00     0.105 A 
HETATM   24  O   UNL     1      40.753  -6.490   4.431  1.00  0.00    -0.323 OA
HETATM   25  O   UNL     1      38.374  -6.645   4.796  1.00  0.00    -0.323 OA
HETATM   26  C   UNL     1      38.324  -9.082   4.803  1.00  0.00     0.042 A 
HETATM   27  C   UNL     1      39.514  -5.777   4.629  1.00  0.00     0.352 A 
HETATM   28  C   UNL     1      39.102 -10.238   4.682  1.00  0.00     0.032 A 
ENDBRANCH   2  20
BRANCH   1  29
HETATM   29  C   UNL     1      41.198 -11.276   1.835  1.00  0.00     0.144 C 
BRANCH  29  30
HETATM   30  C   UNL     1      40.072 -11.699   0.926  1.00  0.00    -0.021 A 
HETATM   31  C   UNL     1      40.018 -12.141  -0.445  1.00  0.00    -0.001 A 
HETATM   32  C   UNL     1      40.949 -12.329  -1.488  1.00  0.00     0.014 A 
HETATM   33  C   UNL     1      38.682 -12.457  -0.729  1.00  0.00     0.042 A 
HETATM   34  C   UNL     1      40.530 -12.797  -2.743  1.00  0.00     0.001 A 
HETATM   35  C   UNL     1      39.194 -13.096  -2.979  1.00  0.00     0.002 A 
HETATM   36  C   UNL     1      38.245 -12.934  -1.973  1.00  0.00     0.030 A 
HETATM   37  N   UNL     1      37.951 -12.222   0.407  1.00  0.00    -0.365 N 
HETATM   38  H   UNL     1      36.956 -12.377   0.491  1.00  0.00     0.165 HD
HETATM   39  C   UNL     1      38.768 -11.773   1.401  1.00  0.00     0.097 A 
ENDBRANCH  29  30
ENDBRANCH   1  29
TORSDOF 7
ENDMDL
