MODEL 1
REMARK VINA RESULT:      -8.1      0.000      0.000
REMARK  8 active torsions:
REMARK  status: ('A' for Active; 'I' for Inactive)
REMARK    1  A    between atoms: C_3  and  N_4 
REMARK       I    between atoms: N_4  and  C_5 
REMARK       I    between atoms: C_5  and  N_6 
REMARK       I    between atoms: N_6  and  C_7 
REMARK    2  A    between atoms: C_7  and  C_8 
REMARK    3  A    between atoms: C_8  and  N_9 
REMARK    4  A    between atoms: N_9  and  C_11 
REMARK    5  A    between atoms: N_9  and  C_17 
REMARK    6  A    between atoms: C_11  and  C_12 
REMARK    7  A    between atoms: C_17  and  C_18 
REMARK    8  A    between atoms: C_19  and  O_20 
ROOT
HETATM    1  N   UNL     1      41.292 -12.920   5.039  1.00  0.00    -0.053 N 
HETATM    2  H   UNL     1      41.688 -12.499   4.186  1.00  0.00     0.281 HD
ENDROOT
BRANCH   1   3
HETATM    3  C   UNL     1      39.802 -13.036   4.782  1.00  0.00     0.338 C 
BRANCH   3   4
HETATM    4  C   UNL     1      39.429 -13.049   3.297  1.00  0.00     0.251 C 
HETATM    5  N   UNL     1      39.439 -14.302   2.715  1.00  0.00    -0.278 N 
HETATM    6  C   UNL     1      39.639 -14.618   1.394  1.00  0.00     0.323 C 
HETATM    7  H   UNL     1      39.591 -15.131   3.276  1.00  0.00     0.173 HD
HETATM    8  N   UNL     1      39.658 -13.580   0.524  1.00  0.00    -0.338 N 
HETATM    9  O   UNL     1      39.856 -15.792   1.128  1.00  0.00    -0.247 OA
HETATM   10  H   UNL     1      39.281 -12.704   0.875  1.00  0.00     0.164 HD
HETATM   11  O   UNL     1      39.034 -12.035   2.725  1.00  0.00    -0.271 OA
BRANCH   8  12
HETATM   12  C   UNL     1      39.885 -13.629  -0.925  1.00  0.00     0.089 C 
HETATM   13  C   UNL     1      38.611 -13.906  -1.765  1.00  0.00     0.004 C 
HETATM   14  C   UNL     1      38.954 -14.824  -2.950  1.00  0.00     0.012 C 
HETATM   15  C   UNL     1      37.905 -12.642  -2.288  1.00  0.00     0.006 C 
HETATM   16  C   UNL     1      38.859 -11.601  -2.861  1.00  0.00     0.001 C 
HETATM   17  C   UNL     1      39.955 -11.239  -1.871  1.00  0.00     0.002 C 
HETATM   18  C   UNL     1      40.745 -12.465  -1.436  1.00  0.00     0.026 C 
ENDBRANCH   8  12
ENDBRANCH   3   4
ENDBRANCH   1   3
BRANCH   1  19
HETATM   19  C   UNL     1      41.641 -11.901   6.101  1.00  0.00     0.300 C 
BRANCH  19  20
HETATM   20  C   UNL     1      43.115 -11.778   6.267  1.00  0.00     0.078 A 
HETATM   21  O   UNL     1      43.823 -11.435   5.147  1.00  0.00    -0.325 OA
HETATM   22  C   UNL     1      45.133 -11.406   5.504  1.00  0.00     0.142 A 
HETATM   23  C   UNL     1      45.275 -11.711   6.837  1.00  0.00     0.027 A 
HETATM   24  C   UNL     1      43.970 -11.949   7.334  1.00  0.00     0.036 A 
ENDBRANCH  19  20
ENDBRANCH   1  19
BRANCH   1  25
HETATM   25  C   UNL     1      42.049 -14.216   5.172  1.00  0.00     0.277 C 
BRANCH  25  26
HETATM   26  C   UNL     1      42.566 -14.969   3.970  1.00  0.00     0.001 A 
HETATM   27  C   UNL     1      43.102 -14.412   2.803  1.00  0.00     0.073 A 
HETATM   28  C   UNL     1      43.459 -15.213   1.711  1.00  0.00     0.037 A 
HETATM   29  C   UNL     1      43.262 -16.590   1.756  1.00  0.00     0.003 A 
HETATM   30  C   UNL     1      42.716 -17.169   2.893  1.00  0.00     0.001 A 
HETATM   31  C   UNL     1      42.372 -16.368   3.985  1.00  0.00     0.011 A 
BRANCH  27  32
HETATM   32  O   UNL     1      43.288 -13.062   2.697  1.00  0.00    -0.360 OA
HETATM   33  H   UNL     1      42.426 -12.629   2.855  1.00  0.00     0.217 HD
ENDBRANCH  27  32
ENDBRANCH  25  26
ENDBRANCH   1  25
TORSDOF 8
ENDMDL
MODEL 2
REMARK VINA RESULT:      -8.0      2.500      7.798
REMARK  8 active torsions:
REMARK  status: ('A' for Active; 'I' for Inactive)
REMARK    1  A    between atoms: C_3  and  N_4 
REMARK       I    between atoms: N_4  and  C_5 
REMARK       I    between atoms: C_5  and  N_6 
REMARK       I    between atoms: N_6  and  C_7 
REMARK    2  A    between atoms: C_7  and  C_8 
REMARK    3  A    between atoms: C_8  and  N_9 
REMARK    4  A    between atoms: N_9  and  C_11 
REMARK    5  A    between atoms: N_9  and  C_17 
REMARK    6  A    between atoms: C_11  and  C_12 
REMARK    7  A    between atoms: C_17  and  C_18 
REMARK    8  A    between atoms: C_19  and  O_20 
ROOT
HETATM    1  N   UNL     1      42.412 -14.171   3.412  1.00  0.00    -0.053 N 
HETATM    2  H   UNL     1      42.595 -14.332   4.413  1.00  0.00     0.281 HD
ENDROOT
BRANCH   1   3
HETATM    3  C   UNL     1      42.890 -12.759   3.133  1.00  0.00     0.338 C 
BRANCH   3   4
HETATM    4  C   UNL     1      43.468 -12.047   4.360  1.00  0.00     0.251 C 
HETATM    5  N   UNL     1      43.667 -12.866   5.456  1.00  0.00    -0.278 N 
HETATM    6  C   UNL     1      43.688 -12.511   6.781  1.00  0.00     0.323 C 
HETATM    7  H   UNL     1      43.522 -13.866   5.387  1.00  0.00     0.173 HD
HETATM    8  N   UNL     1      43.687 -11.182   7.048  1.00  0.00    -0.338 N 
HETATM    9  O   UNL     1      43.630 -13.416   7.602  1.00  0.00    -0.247 OA
HETATM   10  H   UNL     1      43.921 -10.577   6.267  1.00  0.00     0.164 HD
HETATM   11  O   UNL     1      43.836 -10.875   4.309  1.00  0.00    -0.271 OA
BRANCH   8  12
HETATM   12  C   UNL     1      43.673 -10.534   8.364  1.00  0.00     0.089 C 
HETATM   13  C   UNL     1      45.063 -10.055   8.858  1.00  0.00     0.004 C 
HETATM   14  C   UNL     1      45.188 -10.288  10.374  1.00  0.00     0.012 C 
HETATM   15  C   UNL     1      45.380  -8.582   8.541  1.00  0.00     0.006 C 
HETATM   16  C   UNL     1      44.220  -7.633   8.817  1.00  0.00     0.001 C 
HETATM   17  C   UNL     1      42.950  -8.078   8.108  1.00  0.00     0.002 C 
HETATM   18  C   UNL     1      42.553  -9.493   8.506  1.00  0.00     0.026 C 
ENDBRANCH   8  12
ENDBRANCH   3   4
ENDBRANCH   1   3
BRANCH   1  19
HETATM   19  C   UNL     1      40.910 -14.326   3.324  1.00  0.00     0.300 C 
BRANCH  19  20
HETATM   20  C   UNL     1      40.460 -14.424   1.908  1.00  0.00     0.078 A 
HETATM   21  O   UNL     1      40.291 -13.240   1.244  1.00  0.00    -0.325 OA
HETATM   22  C   UNL     1      39.855 -13.549  -0.005  1.00  0.00     0.142 A 
HETATM   23  C   UNL     1      39.756 -14.913  -0.156  1.00  0.00     0.027 A 
HETATM   24  C   UNL     1      40.150 -15.481   1.080  1.00  0.00     0.036 A 
ENDBRANCH  19  20
ENDBRANCH   1  19
BRANCH   1  25
HETATM   25  C   UNL     1      43.175 -15.280   2.736  1.00  0.00     0.277 C 
BRANCH  25  26
HETATM   26  C   UNL     1      43.417 -16.610   3.406  1.00  0.00     0.001 A 
HETATM   27  C   UNL     1      43.721 -16.822   4.757  1.00  0.00     0.073 A 
HETATM   28  C   UNL     1      44.023 -18.100   5.244  1.00  0.00     0.037 A 
HETATM   29  C   UNL     1      44.051 -19.192   4.382  1.00  0.00     0.003 A 
HETATM   30  C   UNL     1      43.772 -19.010   3.034  1.00  0.00     0.001 A 
HETATM   31  C   UNL     1      43.459 -17.736   2.554  1.00  0.00     0.011 A 
BRANCH  27  32
HETATM   32  O   UNL     1      43.735 -15.779   5.639  1.00  0.00    -0.360 OA
HETATM   33  H   UNL     1      44.059 -14.989   5.163  1.00  0.00     0.217 HD
ENDBRANCH  27  32
ENDBRANCH  25  26
ENDBRANCH   1  25
TORSDOF 8
ENDMDL
MODEL 3
REMARK VINA RESULT:      -8.0      3.518      7.437
REMARK  8 active torsions:
REMARK  status: ('A' for Active; 'I' for Inactive)
REMARK    1  A    between atoms: C_3  and  N_4 
REMARK       I    between atoms: N_4  and  C_5 
REMARK       I    between atoms: C_5  and  N_6 
REMARK       I    between atoms: N_6  and  C_7 
REMARK    2  A    between atoms: C_7  and  C_8 
REMARK    3  A    between atoms: C_8  and  N_9 
REMARK    4  A    between atoms: N_9  and  C_11 
REMARK    5  A    between atoms: N_9  and  C_17 
REMARK    6  A    between atoms: C_11  and  C_12 
REMARK    7  A    between atoms: C_17  and  C_18 
REMARK    8  A    between atoms: C_19  and  O_20 
ROOT
HETATM    1  N   UNL     1      42.436 -14.223   3.377  1.00  0.00    -0.053 N 
HETATM    2  H   UNL     1      42.641 -14.405   4.371  1.00  0.00     0.281 HD
ENDROOT
BRANCH   1   3
HETATM    3  C   UNL     1      42.975 -12.832   3.100  1.00  0.00     0.338 C 
BRANCH   3   4
HETATM    4  C   UNL     1      43.555 -12.135   4.335  1.00  0.00     0.251 C 
HETATM    5  N   UNL     1      43.686 -12.950   5.443  1.00  0.00    -0.278 N 
HETATM    6  C   UNL     1      43.689 -12.582   6.766  1.00  0.00     0.323 C 
HETATM    7  H   UNL     1      43.495 -13.942   5.381  1.00  0.00     0.173 HD
HETATM    8  N   UNL     1      43.745 -11.252   7.019  1.00  0.00    -0.338 N 
HETATM    9  O   UNL     1      43.568 -13.474   7.593  1.00  0.00    -0.247 OA
HETATM   10  H   UNL     1      44.027 -10.667   6.238  1.00  0.00     0.164 HD
HETATM   11  O   UNL     1      43.979 -10.982   4.282  1.00  0.00    -0.271 OA
BRANCH   8  12
HETATM   12  C   UNL     1      43.728 -10.589   8.328  1.00  0.00     0.089 C 
HETATM   13  C   UNL     1      45.115 -10.091   8.813  1.00  0.00     0.004 C 
HETATM   14  C   UNL     1      45.246 -10.306  10.331  1.00  0.00     0.012 C 
HETATM   15  C   UNL     1      45.417  -8.619   8.479  1.00  0.00     0.006 C 
HETATM   16  C   UNL     1      44.248  -7.679   8.748  1.00  0.00     0.001 C 
HETATM   17  C   UNL     1      42.981  -8.143   8.047  1.00  0.00     0.002 C 
HETATM   18  C   UNL     1      42.599  -9.557   8.461  1.00  0.00     0.026 C 
ENDBRANCH   8  12
ENDBRANCH   3   4
ENDBRANCH   1   3
BRANCH   1  19
HETATM   19  C   UNL     1      40.927 -14.302   3.332  1.00  0.00     0.300 C 
BRANCH  19  20
HETATM   20  C   UNL     1      40.307 -13.296   4.237  1.00  0.00     0.078 A 
HETATM   21  O   UNL     1      40.552 -13.452   5.574  1.00  0.00    -0.325 OA
HETATM   22  C   UNL     1      39.879 -12.461   6.215  1.00  0.00     0.142 A 
HETATM   23  C   UNL     1      39.217 -11.665   5.309  1.00  0.00     0.027 A 
HETATM   24  C   UNL     1      39.495 -12.201   4.028  1.00  0.00     0.036 A 
ENDBRANCH  19  20
ENDBRANCH   1  19
BRANCH   1  25
HETATM   25  C   UNL     1      43.123 -15.358   2.666  1.00  0.00     0.277 C 
BRANCH  25  26
HETATM   26  C   UNL     1      43.394 -16.680   3.341  1.00  0.00     0.001 A 
HETATM   27  C   UNL     1      43.698 -16.880   4.693  1.00  0.00     0.073 A 
HETATM   28  C   UNL     1      44.028 -18.150   5.186  1.00  0.00     0.037 A 
HETATM   29  C   UNL     1      44.082 -19.244   4.328  1.00  0.00     0.003 A 
HETATM   30  C   UNL     1      43.803 -19.073   2.979  1.00  0.00     0.001 A 
HETATM   31  C   UNL     1      43.463 -17.808   2.493  1.00  0.00     0.011 A 
BRANCH  27  32
HETATM   32  O   UNL     1      43.687 -15.834   5.572  1.00  0.00    -0.360 OA
HETATM   33  H   UNL     1      44.278 -16.063   6.316  1.00  0.00     0.217 HD
ENDBRANCH  27  32
ENDBRANCH  25  26
ENDBRANCH   1  25
TORSDOF 8
ENDMDL
MODEL 4
REMARK VINA RESULT:      -7.7      2.653      3.554
REMARK  8 active torsions:
REMARK  status: ('A' for Active; 'I' for Inactive)
REMARK    1  A    between atoms: C_3  and  N_4 
REMARK       I    between atoms: N_4  and  C_5 
REMARK       I    between atoms: C_5  and  N_6 
REMARK       I    between atoms: N_6  and  C_7 
REMARK    2  A    between atoms: C_7  and  C_8 
REMARK    3  A    between atoms: C_8  and  N_9 
REMARK    4  A    between atoms: N_9  and  C_11 
REMARK    5  A    between atoms: N_9  and  C_17 
REMARK    6  A    between atoms: C_11  and  C_12 
REMARK    7  A    between atoms: C_17  and  C_18 
REMARK    8  A    between atoms: C_19  and  O_20 
ROOT
HETATM    1  N   UNL     1      43.089 -16.087   5.915  1.00  0.00    -0.053 N 
HETATM    2  H   UNL     1      43.203 -15.473   5.095  1.00  0.00     0.281 HD
ENDROOT
BRANCH   1   3
HETATM    3  C   UNL     1      41.632 -16.505   5.911  1.00  0.00     0.338 C 
BRANCH   3   4
HETATM    4  C   UNL     1      40.719 -15.564   5.118  1.00  0.00     0.251 C 
HETATM    5  N   UNL     1      40.363 -16.033   3.868  1.00  0.00    -0.278 N 
HETATM    6  C   UNL     1      40.005 -15.302   2.763  1.00  0.00     0.323 C 
HETATM    7  H   UNL     1      40.623 -16.966   3.572  1.00  0.00     0.173 HD
HETATM    8  N   UNL     1      39.808 -13.975   2.958  1.00  0.00    -0.338 N 
HETATM    9  O   UNL     1      39.968 -15.891   1.692  1.00  0.00    -0.247 OA
HETATM   10  H   UNL     1      39.696 -13.685   3.925  1.00  0.00     0.164 HD
HETATM   11  O   UNL     1      40.254 -14.544   5.622  1.00  0.00    -0.271 OA
BRANCH   8  12
HETATM   12  C   UNL     1      39.456 -12.965   1.953  1.00  0.00     0.089 C 
HETATM   13  C   UNL     1      38.624 -11.777   2.503  1.00  0.00     0.004 C 
HETATM   14  C   UNL     1      37.570 -11.352   1.466  1.00  0.00     0.012 C 
HETATM   15  C   UNL     1      39.459 -10.550   2.912  1.00  0.00     0.006 C 
HETATM   16  C   UNL     1      40.545 -10.186   1.907  1.00  0.00     0.001 C 
HETATM   17  C   UNL     1      41.444 -11.373   1.596  1.00  0.00     0.002 C 
HETATM   18  C   UNL     1      40.644 -12.558   1.072  1.00  0.00     0.026 C 
ENDBRANCH   8  12
ENDBRANCH   3   4
ENDBRANCH   1   3
BRANCH   1  19
HETATM   19  C   UNL     1      43.449 -15.171   7.063  1.00  0.00     0.300 C 
BRANCH  19  20
HETATM   20  C   UNL     1      43.604 -13.764   6.603  1.00  0.00     0.078 A 
HETATM   21  O   UNL     1      43.971 -12.852   7.555  1.00  0.00    -0.325 OA
HETATM   22  C   UNL     1      44.027 -11.642   6.940  1.00  0.00     0.142 A 
HETATM   23  C   UNL     1      43.714 -11.766   5.606  1.00  0.00     0.027 A 
HETATM   24  C   UNL     1      43.443 -13.139   5.385  1.00  0.00     0.036 A 
ENDBRANCH  19  20
ENDBRANCH   1  19
BRANCH   1  25
HETATM   25  C   UNL     1      44.098 -17.180   5.675  1.00  0.00     0.277 C 
BRANCH  25  26
HETATM   26  C   UNL     1      43.951 -18.170   4.545  1.00  0.00     0.001 A 
HETATM   27  C   UNL     1      43.536 -17.891   3.238  1.00  0.00     0.073 A 
HETATM   28  C   UNL     1      43.343 -18.913   2.300  1.00  0.00     0.037 A 
HETATM   29  C   UNL     1      43.541 -20.243   2.661  1.00  0.00     0.003 A 
HETATM   30  C   UNL     1      43.936 -20.553   3.955  1.00  0.00     0.001 A 
HETATM   31  C   UNL     1      44.138 -19.530   4.884  1.00  0.00     0.011 A 
BRANCH  27  32
HETATM   32  O   UNL     1      43.300 -16.605   2.842  1.00  0.00    -0.360 OA
HETATM   33  H   UNL     1      43.666 -16.497   1.942  1.00  0.00     0.217 HD
ENDBRANCH  27  32
ENDBRANCH  25  26
ENDBRANCH   1  25
TORSDOF 8
ENDMDL
MODEL 5
REMARK VINA RESULT:      -7.7      2.749      7.514
REMARK  8 active torsions:
REMARK  status: ('A' for Active; 'I' for Inactive)
REMARK    1  A    between atoms: C_3  and  N_4 
REMARK       I    between atoms: N_4  and  C_5 
REMARK       I    between atoms: C_5  and  N_6 
REMARK       I    between atoms: N_6  and  C_7 
REMARK    2  A    between atoms: C_7  and  C_8 
REMARK    3  A    between atoms: C_8  and  N_9 
REMARK    4  A    between atoms: N_9  and  C_11 
REMARK    5  A    between atoms: N_9  and  C_17 
REMARK    6  A    between atoms: C_11  and  C_12 
REMARK    7  A    between atoms: C_17  and  C_18 
REMARK    8  A    between atoms: C_19  and  O_20 
ROOT
HETATM    1  N   UNL     1      42.375 -16.068   4.529  1.00  0.00    -0.053 N 
HETATM    2  H   UNL     1      41.786 -16.709   3.978  1.00  0.00     0.281 HD
ENDROOT
BRANCH   1   3
HETATM    3  C   UNL     1      41.573 -15.749   5.776  1.00  0.00     0.338 C 
BRANCH   3   4
HETATM    4  C   UNL     1      42.049 -14.494   6.515  1.00  0.00     0.251 C 
HETATM    5  N   UNL     1      41.255 -13.380   6.319  1.00  0.00    -0.278 N 
HETATM    6  C   UNL     1      41.621 -12.059   6.401  1.00  0.00     0.323 C 
HETATM    7  H   UNL     1      40.388 -13.447   5.802  1.00  0.00     0.173 HD
HETATM    8  N   UNL     1      42.855 -11.807   6.900  1.00  0.00    -0.338 N 
HETATM    9  O   UNL     1      40.838 -11.235   5.951  1.00  0.00    -0.247 OA
HETATM   10  H   UNL     1      43.296 -12.578   7.393  1.00  0.00     0.164 HD
HETATM   11  O   UNL     1      42.986 -14.534   7.310  1.00  0.00    -0.271 OA
BRANCH   8  12
HETATM   12  C   UNL     1      43.505 -10.501   7.064  1.00  0.00     0.089 C 
HETATM   13  C   UNL     1      43.002  -9.683   8.282  1.00  0.00     0.004 C 
HETATM   14  C   UNL     1      42.930  -8.191   7.915  1.00  0.00     0.012 C 
HETATM   15  C   UNL     1      43.846  -9.854   9.557  1.00  0.00     0.006 C 
HETATM   16  C   UNL     1      45.348  -9.808   9.308  1.00  0.00     0.001 C 
HETATM   17  C   UNL     1      45.771 -10.806   8.241  1.00  0.00     0.002 C 
HETATM   18  C   UNL     1      45.032 -10.572   6.931  1.00  0.00     0.026 C 
ENDBRANCH   8  12
ENDBRANCH   3   4
ENDBRANCH   1   3
BRANCH   1  19
HETATM   19  C   UNL     1      42.536 -14.886   3.599  1.00  0.00     0.300 C 
BRANCH  19  20
HETATM   20  C   UNL     1      41.587 -14.967   2.455  1.00  0.00     0.078 A 
HETATM   21  O   UNL     1      41.770 -14.055   1.452  1.00  0.00    -0.325 OA
HETATM   22  C   UNL     1      40.794 -14.280   0.534  1.00  0.00     0.142 A 
HETATM   23  C   UNL     1      39.998 -15.330   0.926  1.00  0.00     0.027 A 
HETATM   24  C   UNL     1      40.511 -15.779   2.168  1.00  0.00     0.036 A 
ENDBRANCH  19  20
ENDBRANCH   1  19
BRANCH   1  25
HETATM   25  C   UNL     1      43.644 -16.852   4.735  1.00  0.00     0.277 C 
BRANCH  25  26
HETATM   26  C   UNL     1      43.793 -18.276   4.257  1.00  0.00     0.001 A 
HETATM   27  C   UNL     1      43.589 -18.745   2.953  1.00  0.00     0.073 A 
HETATM   28  C   UNL     1      43.662 -20.110   2.650  1.00  0.00     0.037 A 
HETATM   29  C   UNL     1      43.917 -21.040   3.654  1.00  0.00     0.003 A 
HETATM   30  C   UNL     1      44.105 -20.607   4.960  1.00  0.00     0.001 A 
HETATM   31  C   UNL     1      44.043 -19.243   5.256  1.00  0.00     0.011 A 
BRANCH  27  32
HETATM   32  O   UNL     1      43.307 -17.876   1.937  1.00  0.00    -0.360 OA
HETATM   33  H   UNL     1      44.114 -17.354   1.758  1.00  0.00     0.217 HD
ENDBRANCH  27  32
ENDBRANCH  25  26
ENDBRANCH   1  25
TORSDOF 8
ENDMDL
MODEL 6
REMARK VINA RESULT:      -7.7      2.524      3.704
REMARK  8 active torsions:
REMARK  status: ('A' for Active; 'I' for Inactive)
REMARK    1  A    between atoms: C_3  and  N_4 
REMARK       I    between atoms: N_4  and  C_5 
REMARK       I    between atoms: C_5  and  N_6 
REMARK       I    between atoms: N_6  and  C_7 
REMARK    2  A    between atoms: C_7  and  C_8 
REMARK    3  A    between atoms: C_8  and  N_9 
REMARK    4  A    between atoms: N_9  and  C_11 
REMARK    5  A    between atoms: N_9  and  C_17 
REMARK    6  A    between atoms: C_11  and  C_12 
REMARK    7  A    between atoms: C_17  and  C_18 
REMARK    8  A    between atoms: C_19  and  O_20 
ROOT
HETATM    1  N   UNL     1      41.871 -15.960   3.165  1.00  0.00    -0.053 N 
HETATM    2  H   UNL     1      42.093 -14.954   3.156  1.00  0.00     0.281 HD
ENDROOT
BRANCH   1   3
HETATM    3  C   UNL     1      40.945 -16.183   1.985  1.00  0.00     0.338 C 
BRANCH   3   4
HETATM    4  C   UNL     1      40.487 -14.890   1.304  1.00  0.00     0.251 C 
HETATM    5  N   UNL     1      39.683 -15.081   0.196  1.00  0.00    -0.278 N 
HETATM    6  C   UNL     1      39.516 -14.244  -0.879  1.00  0.00     0.323 C 
HETATM    7  H   UNL     1      39.365 -16.008  -0.059  1.00  0.00     0.173 HD
HETATM    8  N   UNL     1      40.064 -13.009  -0.771  1.00  0.00    -0.338 N 
HETATM    9  O   UNL     1      38.957 -14.706  -1.864  1.00  0.00    -0.247 OA
HETATM   10  H   UNL     1      40.326 -12.725   0.168  1.00  0.00     0.164 HD
HETATM   11  O   UNL     1      40.722 -13.788   1.794  1.00  0.00    -0.271 OA
BRANCH   8  12
HETATM   12  C   UNL     1      40.064 -11.939  -1.775  1.00  0.00     0.089 C 
HETATM   13  C   UNL     1      38.832 -10.998  -1.709  1.00  0.00     0.004 C 
HETATM   14  C   UNL     1      38.392 -10.612  -3.132  1.00  0.00     0.012 C 
HETATM   15  C   UNL     1      39.049  -9.720  -0.879  1.00  0.00     0.006 C 
HETATM   16  C   UNL     1      40.385  -9.038  -1.143  1.00  0.00     0.001 C 
HETATM   17  C   UNL     1      41.551 -10.001  -0.970  1.00  0.00     0.002 C 
HETATM   18  C   UNL     1      41.413 -11.215  -1.878  1.00  0.00     0.026 C 
ENDBRANCH   8  12
ENDBRANCH   3   4
ENDBRANCH   1   3
BRANCH   1  19
HETATM   19  C   UNL     1      41.191 -16.136   4.504  1.00  0.00     0.300 C 
BRANCH  19  20
HETATM   20  C   UNL     1      41.980 -15.505   5.597  1.00  0.00     0.078 A 
HETATM   21  O   UNL     1      42.131 -16.244   6.739  1.00  0.00    -0.325 OA
HETATM   22  C   UNL     1      42.847 -15.482   7.607  1.00  0.00     0.142 A 
HETATM   23  C   UNL     1      43.168 -14.273   7.035  1.00  0.00     0.027 A 
HETATM   24  C   UNL     1      42.610 -14.287   5.733  1.00  0.00     0.036 A 
ENDBRANCH  19  20
ENDBRANCH   1  19
BRANCH   1  25
HETATM   25  C   UNL     1      43.225 -16.616   3.084  1.00  0.00     0.277 C 
BRANCH  25  26
HETATM   26  C   UNL     1      43.414 -18.096   3.310  1.00  0.00     0.001 A 
HETATM   27  C   UNL     1      43.941 -18.705   4.456  1.00  0.00     0.073 A 
HETATM   28  C   UNL     1      44.159 -20.087   4.511  1.00  0.00     0.037 A 
HETATM   29  C   UNL     1      43.875 -20.887   3.408  1.00  0.00     0.003 A 
HETATM   30  C   UNL     1      43.368 -20.310   2.252  1.00  0.00     0.001 A 
HETATM   31  C   UNL     1      43.141 -18.932   2.205  1.00  0.00     0.011 A 
BRANCH  27  32
HETATM   32  O   UNL     1      44.263 -17.960   5.555  1.00  0.00    -0.360 OA
HETATM   33  H   UNL     1      43.686 -18.247   6.290  1.00  0.00     0.217 HD
ENDBRANCH  27  32
ENDBRANCH  25  26
ENDBRANCH   1  25
TORSDOF 8
ENDMDL
MODEL 7
REMARK VINA RESULT:      -7.5      2.908      7.947
REMARK  8 active torsions:
REMARK  status: ('A' for Active; 'I' for Inactive)
REMARK    1  A    between atoms: C_3  and  N_4 
REMARK       I    between atoms: N_4  and  C_5 
REMARK       I    between atoms: C_5  and  N_6 
REMARK       I    between atoms: N_6  and  C_7 
REMARK    2  A    between atoms: C_7  and  C_8 
REMARK    3  A    between atoms: C_8  and  N_9 
REMARK    4  A    between atoms: N_9  and  C_11 
REMARK    5  A    between atoms: N_9  and  C_17 
REMARK    6  A    between atoms: C_11  and  C_12 
REMARK    7  A    between atoms: C_17  and  C_18 
REMARK    8  A    between atoms: C_19  and  O_20 
ROOT
HETATM    1  N   UNL     1      42.386 -14.818   4.310  1.00  0.00    -0.053 N 
HETATM    2  H   UNL     1      42.724 -15.345   5.129  1.00  0.00     0.281 HD
ENDROOT
BRANCH   1   3
HETATM    3  C   UNL     1      43.060 -13.462   4.392  1.00  0.00     0.338 C 
BRANCH   3   4
HETATM    4  C   UNL     1      42.937 -12.791   5.763  1.00  0.00     0.251 C 
HETATM    5  N   UNL     1      42.072 -11.713   5.797  1.00  0.00    -0.278 N 
HETATM    6  C   UNL     1      42.095 -10.640   6.653  1.00  0.00     0.323 C 
HETATM    7  H   UNL     1      41.512 -11.475   4.988  1.00  0.00     0.173 HD
HETATM    8  N   UNL     1      42.953 -10.723   7.698  1.00  0.00    -0.338 N 
HETATM    9  O   UNL     1      41.399  -9.679   6.360  1.00  0.00    -0.247 OA
HETATM   10  H   UNL     1      43.314 -11.651   7.899  1.00  0.00     0.164 HD
HETATM   11  O   UNL     1      43.472 -13.268   6.762  1.00  0.00    -0.271 OA
BRANCH   8  12
HETATM   12  C   UNL     1      43.201  -9.714   8.735  1.00  0.00     0.089 C 
HETATM   13  C   UNL     1      43.445 -10.297  10.152  1.00  0.00     0.004 C 
HETATM   14  C   UNL     1      42.785  -9.396  11.209  1.00  0.00     0.012 C 
HETATM   15  C   UNL     1      44.928 -10.501  10.511  1.00  0.00     0.006 C 
HETATM   16  C   UNL     1      45.819  -9.330  10.118  1.00  0.00     0.001 C 
HETATM   17  C   UNL     1      45.662  -8.973   8.647  1.00  0.00     0.002 C 
HETATM   18  C   UNL     1      44.216  -8.648   8.302  1.00  0.00     0.026 C 
ENDBRANCH   8  12
ENDBRANCH   3   4
ENDBRANCH   1   3
BRANCH   1  19
HETATM   19  C   UNL     1      40.893 -14.763   4.550  1.00  0.00     0.300 C 
BRANCH  19  20
HETATM   20  C   UNL     1      40.226 -13.847   3.585  1.00  0.00     0.078 A 
HETATM   21  O   UNL     1      39.674 -12.711   4.111  1.00  0.00    -0.325 OA
HETATM   22  C   UNL     1      39.098 -12.040   3.080  1.00  0.00     0.142 A 
HETATM   23  C   UNL     1      39.284 -12.720   1.900  1.00  0.00     0.027 A 
HETATM   24  C   UNL     1      40.016 -13.889   2.223  1.00  0.00     0.036 A 
ENDBRANCH  19  20
ENDBRANCH   1  19
BRANCH   1  25
HETATM   25  C   UNL     1      42.779 -15.690   3.147  1.00  0.00     0.277 C 
BRANCH  25  26
HETATM   26  C   UNL     1      43.170 -17.137   3.327  1.00  0.00     0.001 A 
HETATM   27  C   UNL     1      43.945 -17.670   4.364  1.00  0.00     0.073 A 
HETATM   28  C   UNL     1      44.325 -19.018   4.371  1.00  0.00     0.037 A 
HETATM   29  C   UNL     1      43.956 -19.857   3.323  1.00  0.00     0.003 A 
HETATM   30  C   UNL     1      43.204 -19.353   2.271  1.00  0.00     0.001 A 
HETATM   31  C   UNL     1      42.816 -18.011   2.274  1.00  0.00     0.011 A 
BRANCH  27  32
HETATM   32  O   UNL     1      44.357 -16.882   5.401  1.00  0.00    -0.360 OA
HETATM   33  H   UNL     1      43.583 -16.377   5.719  1.00  0.00     0.217 HD
ENDBRANCH  27  32
ENDBRANCH  25  26
ENDBRANCH   1  25
TORSDOF 8
ENDMDL
MODEL 8
REMARK VINA RESULT:      -7.5      1.908      2.670
REMARK  8 active torsions:
REMARK  status: ('A' for Active; 'I' for Inactive)
REMARK    1  A    between atoms: C_3  and  N_4 
REMARK       I    between atoms: N_4  and  C_5 
REMARK       I    between atoms: C_5  and  N_6 
REMARK       I    between atoms: N_6  and  C_7 
REMARK    2  A    between atoms: C_7  and  C_8 
REMARK    3  A    between atoms: C_8  and  N_9 
REMARK    4  A    between atoms: N_9  and  C_11 
REMARK    5  A    between atoms: N_9  and  C_17 
REMARK    6  A    between atoms: C_11  and  C_12 
REMARK    7  A    between atoms: C_17  and  C_18 
REMARK    8  A    between atoms: C_19  and  O_20 
ROOT
HETATM    1  N   UNL     1      41.829 -14.868   4.097  1.00  0.00    -0.053 N 
HETATM    2  H   UNL     1      41.850 -13.968   3.596  1.00  0.00     0.281 HD
ENDROOT
BRANCH   1   3
HETATM    3  C   UNL     1      40.591 -15.585   3.595  1.00  0.00     0.338 C 
BRANCH   3   4
HETATM    4  C   UNL     1      40.398 -15.500   2.078  1.00  0.00     0.251 C 
HETATM    5  N   UNL     1      40.986 -14.397   1.487  1.00  0.00    -0.278 N 
HETATM    6  C   UNL     1      40.622 -13.769   0.322  1.00  0.00     0.323 C 
HETATM    7  H   UNL     1      41.568 -13.770   2.028  1.00  0.00     0.173 HD
HETATM    8  N   UNL     1      39.689 -14.398  -0.434  1.00  0.00    -0.338 N 
HETATM    9  O   UNL     1      41.111 -12.670   0.105  1.00  0.00    -0.247 OA
HETATM   10  H   UNL     1      39.527 -15.376  -0.209  1.00  0.00     0.164 HD
HETATM   11  O   UNL     1      39.872 -16.413   1.445  1.00  0.00    -0.271 OA
BRANCH   8  12
HETATM   12  C   UNL     1      39.100 -13.937  -1.696  1.00  0.00     0.089 C 
HETATM   13  C   UNL     1      38.205 -12.677  -1.564  1.00  0.00     0.004 C 
HETATM   14  C   UNL     1      36.990 -12.799  -2.500  1.00  0.00     0.012 C 
HETATM   15  C   UNL     1      38.930 -11.348  -1.839  1.00  0.00     0.006 C 
HETATM   16  C   UNL     1      39.835 -11.387  -3.064  1.00  0.00     0.001 C 
HETATM   17  C   UNL     1      40.826 -12.539  -2.994  1.00  0.00     0.002 C 
HETATM   18  C   UNL     1      40.117 -13.878  -2.844  1.00  0.00     0.026 C 
ENDBRANCH   8  12
ENDBRANCH   3   4
ENDBRANCH   1   3
BRANCH   1  19
HETATM   19  C   UNL     1      41.729 -14.437   5.543  1.00  0.00     0.300 C 
BRANCH  19  20
HETATM   20  C   UNL     1      42.816 -13.484   5.899  1.00  0.00     0.078 A 
HETATM   21  O   UNL     1      42.825 -12.296   5.219  1.00  0.00    -0.325 OA
HETATM   22  C   UNL     1      43.899 -11.596   5.667  1.00  0.00     0.142 A 
HETATM   23  C   UNL     1      44.570 -12.310   6.633  1.00  0.00     0.027 A 
HETATM   24  C   UNL     1      43.869 -13.531   6.786  1.00  0.00     0.036 A 
ENDBRANCH  19  20
ENDBRANCH   1  19
BRANCH   1  25
HETATM   25  C   UNL     1      43.153 -15.494   3.743  1.00  0.00     0.277 C 
BRANCH  25  26
HETATM   26  C   UNL     1      43.385 -16.982   3.835  1.00  0.00     0.001 A 
HETATM   27  C   UNL     1      43.825 -17.691   4.960  1.00  0.00     0.073 A 
HETATM   28  C   UNL     1      44.099 -19.063   4.896  1.00  0.00     0.037 A 
HETATM   29  C   UNL     1      43.960 -19.751   3.694  1.00  0.00     0.003 A 
HETATM   30  C   UNL     1      43.542 -19.072   2.558  1.00  0.00     0.001 A 
HETATM   31  C   UNL     1      43.258 -17.706   2.629  1.00  0.00     0.011 A 
BRANCH  27  32
HETATM   32  O   UNL     1      44.006 -17.056   6.156  1.00  0.00    -0.360 OA
HETATM   33  H   UNL     1      43.942 -16.093   5.996  1.00  0.00     0.217 HD
ENDBRANCH  27  32
ENDBRANCH  25  26
ENDBRANCH   1  25
TORSDOF 8
ENDMDL
MODEL 9
REMARK VINA RESULT:      -7.3      1.386      2.148
REMARK  8 active torsions:
REMARK  status: ('A' for Active; 'I' for Inactive)
REMARK    1  A    between atoms: C_3  and  N_4 
REMARK       I    between atoms: N_4  and  C_5 
REMARK       I    between atoms: C_5  and  N_6 
REMARK       I    between atoms: N_6  and  C_7 
REMARK    2  A    between atoms: C_7  and  C_8 
REMARK    3  A    between atoms: C_8  and  N_9 
REMARK    4  A    between atoms: N_9  and  C_11 
REMARK    5  A    between atoms: N_9  and  C_17 
REMARK    6  A    between atoms: C_11  and  C_12 
REMARK    7  A    between atoms: C_17  and  C_18 
REMARK    8  A    between atoms: C_19  and  O_20 
ROOT
HETATM    1  N   UNL     1      42.244 -13.935   4.096  1.00  0.00    -0.053 N 
HETATM    2  H   UNL     1      42.244 -14.263   3.119  1.00  0.00     0.281 HD
ENDROOT
BRANCH   1   3
HETATM    3  C   UNL     1      40.830 -13.459   4.366  1.00  0.00     0.338 C 
BRANCH   3   4
HETATM    4  C   UNL     1      40.067 -13.038   3.106  1.00  0.00     0.251 C 
HETATM    5  N   UNL     1      39.974 -14.021   2.139  1.00  0.00    -0.278 N 
HETATM    6  C   UNL     1      39.820 -13.859   0.785  1.00  0.00     0.323 C 
HETATM    7  H   UNL     1      40.310 -14.958   2.320  1.00  0.00     0.173 HD
HETATM    8  N   UNL     1      39.555 -12.602   0.355  1.00  0.00    -0.338 N 
HETATM    9  O   UNL     1      40.008 -14.841   0.081  1.00  0.00    -0.247 OA
HETATM   10  H   UNL     1      39.249 -11.948   1.070  1.00  0.00     0.164 HD
HETATM   11  O   UNL     1      39.486 -11.957   3.039  1.00  0.00    -0.271 OA
BRANCH   8  12
HETATM   12  C   UNL     1      39.380 -12.146  -1.029  1.00  0.00     0.089 C 
HETATM   13  C   UNL     1      40.545 -12.526  -1.981  1.00  0.00     0.004 C 
HETATM   14  C   UNL     1      40.811 -11.375  -2.966  1.00  0.00     0.012 C 
HETATM   15  C   UNL     1      40.325 -13.830  -2.768  1.00  0.00     0.006 C 
HETATM   16  C   UNL     1      38.925 -13.963  -3.354  1.00  0.00     0.001 C 
HETATM   17  C   UNL     1      37.852 -13.785  -2.291  1.00  0.00     0.002 C 
HETATM   18  C   UNL     1      37.981 -12.443  -1.584  1.00  0.00     0.026 C 
ENDBRANCH   8  12
ENDBRANCH   3   4
ENDBRANCH   1   3
BRANCH   1  19
HETATM   19  C   UNL     1      43.260 -12.815   4.066  1.00  0.00     0.300 C 
BRANCH  19  20
HETATM   20  C   UNL     1      43.514 -12.281   5.432  1.00  0.00     0.078 A 
HETATM   21  O   UNL     1      42.838 -11.141   5.771  1.00  0.00    -0.325 OA
HETATM   22  C   UNL     1      43.230 -10.811   7.029  1.00  0.00     0.142 A 
HETATM   23  C   UNL     1      44.137 -11.728   7.506  1.00  0.00     0.027 A 
HETATM   24  C   UNL     1      44.320 -12.682   6.475  1.00  0.00     0.036 A 
ENDBRANCH  19  20
ENDBRANCH   1  19
BRANCH   1  25
HETATM   25  C   UNL     1      42.701 -15.145   4.869  1.00  0.00     0.277 C 
BRANCH  25  26
HETATM   26  C   UNL     1      43.156 -16.409   4.182  1.00  0.00     0.001 A 
HETATM   27  C   UNL     1      42.794 -16.841   2.901  1.00  0.00     0.073 A 
HETATM   28  C   UNL     1      43.205 -18.085   2.408  1.00  0.00     0.037 A 
HETATM   29  C   UNL     1      43.970 -18.936   3.199  1.00  0.00     0.003 A 
HETATM   30  C   UNL     1      44.330 -18.544   4.482  1.00  0.00     0.001 A 
HETATM   31  C   UNL     1      43.928 -17.297   4.965  1.00  0.00     0.011 A 
BRANCH  27  32
HETATM   32  O   UNL     1      42.020 -16.055   2.094  1.00  0.00    -0.360 OA
HETATM   33  H   UNL     1      42.600 -15.383   1.685  1.00  0.00     0.217 HD
ENDBRANCH  27  32
ENDBRANCH  25  26
ENDBRANCH   1  25
TORSDOF 8
ENDMDL
MODEL 10
REMARK VINA RESULT:      -7.3      3.627      7.274
REMARK  8 active torsions:
REMARK  status: ('A' for Active; 'I' for Inactive)
REMARK    1  A    between atoms: C_3  and  N_4 
REMARK       I    between atoms: N_4  and  C_5 
REMARK       I    between atoms: C_5  and  N_6 
REMARK       I    between atoms: N_6  and  C_7 
REMARK    2  A    between atoms: C_7  and  C_8 
REMARK    3  A    between atoms: C_8  and  N_9 
REMARK    4  A    between atoms: N_9  and  C_11 
REMARK    5  A    between atoms: N_9  and  C_17 
REMARK    6  A    between atoms: C_11  and  C_12 
REMARK    7  A    between atoms: C_17  and  C_18 
REMARK    8  A    between atoms: C_19  and  O_20 
ROOT
HETATM    1  N   UNL     1      41.539  -9.673   7.949  1.00  0.00    -0.053 N 
HETATM    2  H   UNL     1      42.103 -10.508   8.161  1.00  0.00     0.281 HD
ENDROOT
BRANCH   1   3
HETATM    3  C   UNL     1      40.593 -10.094   6.840  1.00  0.00     0.338 C 
BRANCH   3   4
HETATM    4  C   UNL     1      40.877 -11.490   6.280  1.00  0.00     0.251 C 
HETATM    5  N   UNL     1      42.056 -12.056   6.725  1.00  0.00    -0.278 N 
HETATM    6  C   UNL     1      42.829 -13.000   6.096  1.00  0.00     0.323 C 
HETATM    7  H   UNL     1      42.614 -11.598   7.435  1.00  0.00     0.173 HD
HETATM    8  N   UNL     1      42.294 -13.578   4.993  1.00  0.00    -0.338 N 
HETATM    9  O   UNL     1      43.954 -13.185   6.538  1.00  0.00    -0.247 OA
HETATM   10  H   UNL     1      41.293 -13.452   4.872  1.00  0.00     0.164 HD
HETATM   11  O   UNL     1      40.049 -12.088   5.595  1.00  0.00    -0.271 OA
BRANCH   8  12
HETATM   12  C   UNL     1      42.911 -14.582   4.119  1.00  0.00     0.089 C 
HETATM   13  C   UNL     1      42.312 -16.006   4.255  1.00  0.00     0.004 C 
HETATM   14  C   UNL     1      43.429 -17.057   4.146  1.00  0.00     0.012 C 
HETATM   15  C   UNL     1      41.205 -16.332   3.236  1.00  0.00     0.006 C 
HETATM   16  C   UNL     1      41.531 -15.887   1.816  1.00  0.00     0.001 C 
HETATM   17  C   UNL     1      41.901 -14.413   1.760  1.00  0.00     0.002 C 
HETATM   18  C   UNL     1      43.077 -14.096   2.673  1.00  0.00     0.026 C 
ENDBRANCH   8  12
ENDBRANCH   3   4
ENDBRANCH   1   3
BRANCH   1  19
HETATM   19  C   UNL     1      42.583  -8.675   7.501  1.00  0.00     0.300 C 
BRANCH  19  20
HETATM   20  C   UNL     1      43.931  -9.037   8.017  1.00  0.00     0.078 A 
HETATM   21  O   UNL     1      44.267 -10.362   7.955  1.00  0.00    -0.325 OA
HETATM   22  C   UNL     1      45.508 -10.479   8.496  1.00  0.00     0.142 A 
HETATM   23  C   UNL     1      45.978  -9.248   8.891  1.00  0.00     0.027 A 
HETATM   24  C   UNL     1      44.960  -8.313   8.579  1.00  0.00     0.036 A 
ENDBRANCH  19  20
ENDBRANCH   1  19
BRANCH   1  25
HETATM   25  C   UNL     1      40.906  -9.334   9.273  1.00  0.00     0.277 C 
BRANCH  25  26
HETATM   26  C   UNL     1      41.722  -8.873  10.456  1.00  0.00     0.001 A 
HETATM   27  C   UNL     1      42.652  -9.634  11.176  1.00  0.00     0.073 A 
HETATM   28  C   UNL     1      43.278  -9.126  12.321  1.00  0.00     0.037 A 
HETATM   29  C   UNL     1      42.968  -7.850  12.784  1.00  0.00     0.003 A 
HETATM   30  C   UNL     1      42.037  -7.079  12.101  1.00  0.00     0.001 A 
HETATM   31  C   UNL     1      41.423  -7.585  10.953  1.00  0.00     0.011 A 
BRANCH  27  32
HETATM   32  O   UNL     1      42.970 -10.902  10.780  1.00  0.00    -0.360 OA
HETATM   33  H   UNL     1      43.940 -11.003  10.851  1.00  0.00     0.217 HD
ENDBRANCH  27  32
ENDBRANCH  25  26
ENDBRANCH   1  25
TORSDOF 8
ENDMDL
