MODEL 1
REMARK VINA RESULT:     -10.5      0.000      0.000
REMARK  4 active torsions:
REMARK  status: ('A' for Active; 'I' for Inactive)
REMARK    1  A    between atoms: C_2  and  N_3 
REMARK    2  A    between atoms: C_7  and  N_8 
REMARK       I    between atoms: N_8  and  C_9 
REMARK    3  A    between atoms: C_9  and  C_10 
REMARK    4  A    between atoms: C_10  and  N_11 
ROOT
HETATM    1  N   UNL     1      43.891 -12.266   7.171  1.00  0.00    -0.326 N 
HETATM    2  C   UNL     1      44.788 -11.233   6.986  1.00  0.00     0.242 C 
HETATM    3  O   UNL     1      45.202 -10.823   5.902  1.00  0.00    -0.271 OA
HETATM    4  H   UNL     1      43.690 -12.474   8.149  1.00  0.00     0.169 HD
ENDROOT
BRANCH   2   5
HETATM    5  C   UNL     1      45.392 -10.680   8.280  1.00  0.00     0.257 C 
BRANCH   5   6
HETATM    6  N   UNL     1      44.478 -10.225   9.329  1.00  0.00    -0.224 N 
HETATM    7  N   UNL     1      44.203 -11.134  10.379  1.00  0.00    -0.180 NA
HETATM    8  C   UNL     1      43.601 -10.713  11.457  1.00  0.00     0.153 A 
HETATM    9  C   UNL     1      43.228  -9.337  11.608  1.00  0.00     0.028 A 
HETATM   10  C   UNL     1      43.486  -8.469  10.580  1.00  0.00     0.116 A 
HETATM   11  C   UNL     1      42.645  -8.597  12.670  1.00  0.00     0.005 A 
HETATM   12  N   UNL     1      43.075  -7.222  10.954  1.00  0.00    -0.350 N 
HETATM   13  C   UNL     1      44.135  -8.854   9.362  1.00  0.00     0.291 A 
HETATM   14  H   UNL     1      43.164  -6.389  10.386  1.00  0.00     0.166 HD
HETATM   15  C   UNL     1      42.573  -7.268  12.238  1.00  0.00     0.044 A 
HETATM   16  C   UNL     1      42.075  -6.239  13.047  1.00  0.00     0.030 A 
HETATM   17  C   UNL     1      41.639  -6.576  14.330  1.00  0.00     0.002 A 
HETATM   18  C   UNL     1      41.692  -7.891  14.785  1.00  0.00     0.001 A 
HETATM   19  C   UNL     1      42.192  -8.912  13.966  1.00  0.00     0.014 A 
HETATM   20  O   UNL     1      44.390  -8.049   8.474  1.00  0.00    -0.264 OA
ENDBRANCH   5   6
ENDBRANCH   2   5
BRANCH   1  21
HETATM   21  C   UNL     1      43.279 -13.073   6.190  1.00  0.00     0.035 A 
HETATM   22  C   UNL     1      43.784 -14.313   5.784  1.00  0.00     0.044 A 
HETATM   23  C   UNL     1      43.101 -15.082   4.812  1.00  0.00     0.005 A 
HETATM   24  C   UNL     1      41.929 -14.578   4.250  1.00  0.00     0.046 A 
HETATM   25  C   UNL     1      43.346 -16.365   4.232  1.00  0.00     0.003 A 
HETATM   26  N   UNL     1      41.491 -15.512   3.331  1.00  0.00    -0.346 N 
HETATM   27  C   UNL     1      41.403 -13.337   4.644  1.00  0.00     0.033 A 
HETATM   28  C   UNL     1      42.326 -16.615   3.313  1.00  0.00     0.046 A 
HETATM   29  C   UNL     1      42.273 -17.809   2.571  1.00  0.00     0.030 A 
HETATM   30  C   UNL     1      43.279 -18.759   2.776  1.00  0.00     0.002 A 
HETATM   31  C   UNL     1      44.304 -18.530   3.686  1.00  0.00     0.001 A 
HETATM   32  C   UNL     1      44.350 -17.339   4.417  1.00  0.00     0.014 A 
HETATM   33  C   UNL     1      42.093 -12.603   5.620  1.00  0.00     0.032 A 
BRANCH  26  34
HETATM   34  C   UNL     1      40.320 -15.358   2.480  1.00  0.00     0.125 C 
HETATM   35  C   UNL     1      40.664 -14.776   1.120  1.00  0.00     0.027 C 
ENDBRANCH  26  34
ENDBRANCH   1  21
TORSDOF 4
ENDMDL
MODEL 2
REMARK VINA RESULT:     -10.4      7.052     10.369
REMARK  4 active torsions:
REMARK  status: ('A' for Active; 'I' for Inactive)
REMARK    1  A    between atoms: C_2  and  N_3 
REMARK    2  A    between atoms: C_7  and  N_8 
REMARK       I    between atoms: N_8  and  C_9 
REMARK    3  A    between atoms: C_9  and  C_10 
REMARK    4  A    between atoms: C_10  and  N_11 
ROOT
HETATM    1  N   UNL     1      41.673 -14.286   0.584  1.00  0.00    -0.326 N 
HETATM    2  C   UNL     1      40.370 -13.860   0.420  1.00  0.00     0.242 C 
HETATM    3  O   UNL     1      39.454 -14.016   1.227  1.00  0.00    -0.271 OA
HETATM    4  H   UNL     1      42.281 -14.084  -0.209  1.00  0.00     0.169 HD
ENDROOT
BRANCH   2   5
HETATM    5  C   UNL     1      40.066 -13.271  -0.960  1.00  0.00     0.257 C 
BRANCH   5   6
HETATM    6  N   UNL     1      40.393 -11.864  -1.199  1.00  0.00    -0.224 N 
HETATM    7  N   UNL     1      41.129 -11.196  -0.190  1.00  0.00    -0.180 NA
HETATM    8  C   UNL     1      41.658 -10.031  -0.440  1.00  0.00     0.153 A 
HETATM    9  C   UNL     1      41.526  -9.419  -1.730  1.00  0.00     0.028 A 
HETATM   10  C   UNL     1      40.799 -10.067  -2.694  1.00  0.00     0.116 A 
HETATM   11  C   UNL     1      42.043  -8.226  -2.299  1.00  0.00     0.005 A 
HETATM   12  N   UNL     1      40.832  -9.318  -3.836  1.00  0.00    -0.350 N 
HETATM   13  C   UNL     1      40.180 -11.344  -2.496  1.00  0.00     0.291 A 
HETATM   14  H   UNL     1      40.389  -9.575  -4.709  1.00  0.00     0.166 HD
HETATM   15  C   UNL     1      41.604  -8.194  -3.628  1.00  0.00     0.044 A 
HETATM   16  C   UNL     1      41.951  -7.165  -4.512  1.00  0.00     0.030 A 
HETATM   17  C   UNL     1      42.769  -6.142  -4.026  1.00  0.00     0.002 A 
HETATM   18  C   UNL     1      43.216  -6.143  -2.707  1.00  0.00     0.001 A 
HETATM   19  C   UNL     1      42.860  -7.177  -1.832  1.00  0.00     0.014 A 
HETATM   20  O   UNL     1      39.569 -11.920  -3.388  1.00  0.00    -0.264 OA
ENDBRANCH   5   6
ENDBRANCH   2   5
BRANCH   1  21
HETATM   21  C   UNL     1      42.227 -14.993   1.670  1.00  0.00     0.035 A 
HETATM   22  C   UNL     1      42.424 -16.378   1.672  1.00  0.00     0.044 A 
HETATM   23  C   UNL     1      43.011 -17.019   2.789  1.00  0.00     0.005 A 
HETATM   24  C   UNL     1      43.372 -16.252   3.896  1.00  0.00     0.046 A 
HETATM   25  C   UNL     1      43.359 -18.377   3.066  1.00  0.00     0.003 A 
HETATM   26  N   UNL     1      43.895 -17.124   4.833  1.00  0.00    -0.346 N 
HETATM   27  C   UNL     1      43.185 -14.861   3.917  1.00  0.00     0.033 A 
HETATM   28  C   UNL     1      43.913 -18.418   4.346  1.00  0.00     0.046 A 
HETATM   29  C   UNL     1      44.368 -19.620   4.918  1.00  0.00     0.030 A 
HETATM   30  C   UNL     1      44.256 -20.793   4.166  1.00  0.00     0.002 A 
HETATM   31  C   UNL     1      43.707 -20.775   2.889  1.00  0.00     0.001 A 
HETATM   32  C   UNL     1      43.255 -19.576   2.330  1.00  0.00     0.014 A 
HETATM   33  C   UNL     1      42.615 -14.252   2.790  1.00  0.00     0.032 A 
BRANCH  26  34
HETATM   34  C   UNL     1      44.350 -16.742   6.162  1.00  0.00     0.125 C 
HETATM   35  C   UNL     1      43.241 -16.808   7.197  1.00  0.00     0.027 C 
ENDBRANCH  26  34
ENDBRANCH   1  21
TORSDOF 4
ENDMDL
MODEL 3
REMARK VINA RESULT:     -10.3      7.112     11.485
REMARK  4 active torsions:
REMARK  status: ('A' for Active; 'I' for Inactive)
REMARK    1  A    between atoms: C_2  and  N_3 
REMARK    2  A    between atoms: C_7  and  N_8 
REMARK       I    between atoms: N_8  and  C_9 
REMARK    3  A    between atoms: C_9  and  C_10 
REMARK    4  A    between atoms: C_10  and  N_11 
ROOT
HETATM    1  N   UNL     1      41.711 -13.957   0.712  1.00  0.00    -0.326 N 
HETATM    2  C   UNL     1      40.563 -14.174  -0.024  1.00  0.00     0.242 C 
HETATM    3  O   UNL     1      39.770 -15.102   0.134  1.00  0.00    -0.271 OA
HETATM    4  H   UNL     1      42.251 -13.146   0.413  1.00  0.00     0.169 HD
ENDROOT
BRANCH   2   5
HETATM    5  C   UNL     1      40.386 -13.227  -1.213  1.00  0.00     0.257 C 
BRANCH   5   6
HETATM    6  N   UNL     1      39.070 -12.619  -1.422  1.00  0.00    -0.224 N 
HETATM    7  N   UNL     1      38.861 -11.333  -0.866  1.00  0.00    -0.180 NA
HETATM    8  C   UNL     1      37.814 -10.640  -1.217  1.00  0.00     0.153 A 
HETATM    9  C   UNL     1      36.874 -11.149  -2.174  1.00  0.00     0.028 A 
HETATM   10  C   UNL     1      37.078 -12.401  -2.694  1.00  0.00     0.116 A 
HETATM   11  C   UNL     1      35.715 -10.604  -2.785  1.00  0.00     0.005 A 
HETATM   12  N   UNL     1      36.085 -12.661  -3.594  1.00  0.00    -0.350 N 
HETATM   13  C   UNL     1      38.198 -13.227  -2.354  1.00  0.00     0.291 A 
HETATM   14  H   UNL     1      36.005 -13.512  -4.136  1.00  0.00     0.166 HD
HETATM   15  C   UNL     1      35.246 -11.569  -3.684  1.00  0.00     0.044 A 
HETATM   16  C   UNL     1      34.124 -11.362  -4.495  1.00  0.00     0.030 A 
HETATM   17  C   UNL     1      33.462 -10.136  -4.385  1.00  0.00     0.002 A 
HETATM   18  C   UNL     1      33.902  -9.159  -3.495  1.00  0.00     0.001 A 
HETATM   19  C   UNL     1      35.026  -9.379  -2.688  1.00  0.00     0.014 A 
HETATM   20  O   UNL     1      38.377 -14.327  -2.864  1.00  0.00    -0.264 OA
ENDBRANCH   5   6
ENDBRANCH   2   5
BRANCH   1  21
HETATM   21  C   UNL     1      42.229 -14.738   1.766  1.00  0.00     0.035 A 
HETATM   22  C   UNL     1      42.420 -16.121   1.682  1.00  0.00     0.044 A 
HETATM   23  C   UNL     1      42.970 -16.837   2.772  1.00  0.00     0.005 A 
HETATM   24  C   UNL     1      43.302 -16.147   3.937  1.00  0.00     0.046 A 
HETATM   25  C   UNL     1      43.304 -18.213   2.970  1.00  0.00     0.003 A 
HETATM   26  N   UNL     1      43.792 -17.081   4.830  1.00  0.00    -0.346 N 
HETATM   27  C   UNL     1      43.121 -14.759   4.043  1.00  0.00     0.033 A 
HETATM   28  C   UNL     1      43.819 -18.341   4.260  1.00  0.00     0.046 A 
HETATM   29  C   UNL     1      44.252 -19.580   4.765  1.00  0.00     0.030 A 
HETATM   30  C   UNL     1      44.156 -20.702   3.935  1.00  0.00     0.002 A 
HETATM   31  C   UNL     1      43.645 -20.596   2.646  1.00  0.00     0.001 A 
HETATM   32  C   UNL     1      43.215 -19.361   2.154  1.00  0.00     0.014 A 
HETATM   33  C   UNL     1      42.587 -14.073   2.942  1.00  0.00     0.032 A 
BRANCH  26  34
HETATM   34  C   UNL     1      44.210 -16.790   6.193  1.00  0.00     0.125 C 
HETATM   35  C   UNL     1      43.044 -16.767   7.165  1.00  0.00     0.027 C 
ENDBRANCH  26  34
ENDBRANCH   1  21
TORSDOF 4
ENDMDL
MODEL 4
REMARK VINA RESULT:     -10.1      1.773      2.084
REMARK  4 active torsions:
REMARK  status: ('A' for Active; 'I' for Inactive)
REMARK    1  A    between atoms: C_2  and  N_3 
REMARK    2  A    between atoms: C_7  and  N_8 
REMARK       I    between atoms: N_8  and  C_9 
REMARK    3  A    between atoms: C_9  and  C_10 
REMARK    4  A    between atoms: C_10  and  N_11 
ROOT
HETATM    1  N   UNL     1      43.404 -12.572   7.129  1.00  0.00    -0.326 N 
HETATM    2  C   UNL     1      44.476 -11.703   7.123  1.00  0.00     0.242 C 
HETATM    3  O   UNL     1      45.214 -11.474   6.165  1.00  0.00    -0.271 OA
HETATM    4  H   UNL     1      42.929 -12.643   8.029  1.00  0.00     0.169 HD
ENDROOT
BRANCH   2   5
HETATM    5  C   UNL     1      44.813 -11.105   8.492  1.00  0.00     0.257 C 
BRANCH   5   6
HETATM    6  N   UNL     1      43.847 -10.190   9.103  1.00  0.00    -0.224 N 
HETATM    7  N   UNL     1      43.069  -9.398   8.225  1.00  0.00    -0.180 NA
HETATM    8  C   UNL     1      42.034  -8.751   8.683  1.00  0.00     0.153 A 
HETATM    9  C   UNL     1      41.655  -8.842  10.064  1.00  0.00     0.028 A 
HETATM   10  C   UNL     1      42.424  -9.599  10.908  1.00  0.00     0.116 A 
HETATM   11  C   UNL     1      40.565  -8.323  10.810  1.00  0.00     0.005 A 
HETATM   12  N   UNL     1      41.864  -9.562  12.153  1.00  0.00    -0.350 N 
HETATM   13  C   UNL     1      43.579 -10.332  10.484  1.00  0.00     0.291 A 
HETATM   14  H   UNL     1      42.222 -10.050  12.963  1.00  0.00     0.166 HD
HETATM   15  C   UNL     1      40.712  -8.802  12.117  1.00  0.00     0.044 A 
HETATM   16  C   UNL     1      39.792  -8.516  13.133  1.00  0.00     0.030 A 
HETATM   17  C   UNL     1      38.693  -7.718  12.806  1.00  0.00     0.002 A 
HETATM   18  C   UNL     1      38.523  -7.222  11.516  1.00  0.00     0.001 A 
HETATM   19  C   UNL     1      39.451  -7.515  10.509  1.00  0.00     0.014 A 
HETATM   20  O   UNL     1      44.227 -11.034  11.252  1.00  0.00    -0.264 OA
ENDBRANCH   5   6
ENDBRANCH   2   5
BRANCH   1  21
HETATM   21  C   UNL     1      42.937 -13.385   6.076  1.00  0.00     0.035 A 
HETATM   22  C   UNL     1      43.508 -14.617   5.740  1.00  0.00     0.044 A 
HETATM   23  C   UNL     1      42.970 -15.393   4.686  1.00  0.00     0.005 A 
HETATM   24  C   UNL     1      41.875 -14.904   3.975  1.00  0.00     0.046 A 
HETATM   25  C   UNL     1      43.307 -16.672   4.142  1.00  0.00     0.003 A 
HETATM   26  N   UNL     1      41.575 -15.843   3.005  1.00  0.00    -0.346 N 
HETATM   27  C   UNL     1      41.285 -13.672   4.296  1.00  0.00     0.033 A 
HETATM   28  C   UNL     1      42.420 -16.934   3.097  1.00  0.00     0.046 A 
HETATM   29  C   UNL     1      42.482 -18.126   2.355  1.00  0.00     0.030 A 
HETATM   30  C   UNL     1      43.465 -19.063   2.690  1.00  0.00     0.002 A 
HETATM   31  C   UNL     1      44.359 -18.822   3.727  1.00  0.00     0.001 A 
HETATM   32  C   UNL     1      44.291 -17.633   4.458  1.00  0.00     0.014 A 
HETATM   33  C   UNL     1      41.830 -12.930   5.354  1.00  0.00     0.032 A 
BRANCH  26  34
HETATM   34  C   UNL     1      40.524 -15.702   2.008  1.00  0.00     0.125 C 
HETATM   35  C   UNL     1      40.981 -14.917   0.792  1.00  0.00     0.027 C 
ENDBRANCH  26  34
ENDBRANCH   1  21
TORSDOF 4
ENDMDL
MODEL 5
REMARK VINA RESULT:     -10.0      1.049      2.562
REMARK  4 active torsions:
REMARK  status: ('A' for Active; 'I' for Inactive)
REMARK    1  A    between atoms: C_2  and  N_3 
REMARK    2  A    between atoms: C_7  and  N_8 
REMARK       I    between atoms: N_8  and  C_9 
REMARK    3  A    between atoms: C_9  and  C_10 
REMARK    4  A    between atoms: C_10  and  N_11 
ROOT
HETATM    1  N   UNL     1      44.274 -11.392   6.891  1.00  0.00    -0.326 N 
HETATM    2  C   UNL     1      45.582 -10.952   6.916  1.00  0.00     0.242 C 
HETATM    3  O   UNL     1      46.493 -11.356   6.194  1.00  0.00    -0.271 OA
HETATM    4  H   UNL     1      43.672 -10.952   7.586  1.00  0.00     0.169 HD
ENDROOT
BRANCH   2   5
HETATM    5  C   UNL     1      45.900  -9.979   8.054  1.00  0.00     0.257 C 
BRANCH   5   6
HETATM    6  N   UNL     1      44.891  -9.782   9.098  1.00  0.00    -0.224 N 
HETATM    7  N   UNL     1      44.739 -10.822  10.047  1.00  0.00    -0.180 NA
HETATM    8  C   UNL     1      44.043 -10.611  11.130  1.00  0.00     0.153 A 
HETATM    9  C   UNL     1      43.441  -9.335  11.387  1.00  0.00     0.028 A 
HETATM   10  C   UNL     1      43.582  -8.341  10.455  1.00  0.00     0.116 A 
HETATM   11  C   UNL     1      42.711  -8.807  12.483  1.00  0.00     0.005 A 
HETATM   12  N   UNL     1      42.957  -7.220  10.920  1.00  0.00    -0.350 N 
HETATM   13  C   UNL     1      44.323  -8.495   9.238  1.00  0.00     0.291 A 
HETATM   14  H   UNL     1      42.923  -6.333  10.434  1.00  0.00     0.166 HD
HETATM   15  C   UNL     1      42.431  -7.471  12.171  1.00  0.00     0.044 A 
HETATM   16  C   UNL     1      41.744  -6.620  13.045  1.00  0.00     0.030 A 
HETATM   17  C   UNL     1      41.331  -7.147  14.271  1.00  0.00     0.002 A 
HETATM   18  C   UNL     1      41.589  -8.474  14.607  1.00  0.00     0.001 A 
HETATM   19  C   UNL     1      42.277  -9.315  13.723  1.00  0.00     0.014 A 
HETATM   20  O   UNL     1      44.467  -7.577   8.439  1.00  0.00    -0.264 OA
ENDBRANCH   5   6
ENDBRANCH   2   5
BRANCH   1  21
HETATM   21  C   UNL     1      43.706 -12.387   6.069  1.00  0.00     0.035 A 
HETATM   22  C   UNL     1      43.108 -12.121   4.833  1.00  0.00     0.044 A 
HETATM   23  C   UNL     1      42.582 -13.175   4.048  1.00  0.00     0.005 A 
HETATM   24  C   UNL     1      42.652 -14.481   4.533  1.00  0.00     0.046 A 
HETATM   25  C   UNL     1      41.955 -13.220   2.765  1.00  0.00     0.003 A 
HETATM   26  N   UNL     1      42.056 -15.292   3.587  1.00  0.00    -0.346 N 
HETATM   27  C   UNL     1      43.250 -14.771   5.769  1.00  0.00     0.033 A 
HETATM   28  C   UNL     1      41.639 -14.552   2.495  1.00  0.00     0.046 A 
HETATM   29  C   UNL     1      41.013 -14.937   1.296  1.00  0.00     0.030 A 
HETATM   30  C   UNL     1      40.710 -13.943   0.360  1.00  0.00     0.002 A 
HETATM   31  C   UNL     1      41.016 -12.610   0.608  1.00  0.00     0.001 A 
HETATM   32  C   UNL     1      41.635 -12.236   1.805  1.00  0.00     0.014 A 
HETATM   33  C   UNL     1      43.775 -13.709   6.519  1.00  0.00     0.032 A 
BRANCH  26  34
HETATM   34  C   UNL     1      41.872 -16.730   3.720  1.00  0.00     0.125 C 
HETATM   35  C   UNL     1      43.016 -17.520   3.111  1.00  0.00     0.027 C 
ENDBRANCH  26  34
ENDBRANCH   1  21
TORSDOF 4
ENDMDL
MODEL 6
REMARK VINA RESULT:      -9.7      2.372     10.823
REMARK  4 active torsions:
REMARK  status: ('A' for Active; 'I' for Inactive)
REMARK    1  A    between atoms: C_2  and  N_3 
REMARK    2  A    between atoms: C_7  and  N_8 
REMARK       I    between atoms: N_8  and  C_9 
REMARK    3  A    between atoms: C_9  and  C_10 
REMARK    4  A    between atoms: C_10  and  N_11 
ROOT
HETATM    1  N   UNL     1      43.200 -11.379   5.517  1.00  0.00    -0.326 N 
HETATM    2  C   UNL     1      42.117 -12.046   4.980  1.00  0.00     0.242 C 
HETATM    3  O   UNL     1      40.992 -12.110   5.476  1.00  0.00    -0.271 OA
HETATM    4  H   UNL     1      44.055 -11.463   4.969  1.00  0.00     0.169 HD
ENDROOT
BRANCH   2   5
HETATM    5  C   UNL     1      42.438 -12.873   3.733  1.00  0.00     0.257 C 
BRANCH   5   6
HETATM    6  N   UNL     1      42.996 -14.215   3.918  1.00  0.00    -0.224 N 
HETATM    7  N   UNL     1      43.217 -14.639   5.251  1.00  0.00    -0.180 NA
HETATM    8  C   UNL     1      43.476 -15.894   5.495  1.00  0.00     0.153 A 
HETATM    9  C   UNL     1      43.524 -16.860   4.436  1.00  0.00     0.028 A 
HETATM   10  C   UNL     1      43.323 -16.436   3.149  1.00  0.00     0.116 A 
HETATM   11  C   UNL     1      43.705 -18.267   4.411  1.00  0.00     0.005 A 
HETATM   12  N   UNL     1      43.386 -17.520   2.322  1.00  0.00    -0.350 N 
HETATM   13  C   UNL     1      43.041 -15.076   2.798  1.00  0.00     0.291 A 
HETATM   14  H   UNL     1      43.256 -17.491   1.319  1.00  0.00     0.166 HD
HETATM   15  C   UNL     1      43.600 -18.659   3.071  1.00  0.00     0.044 A 
HETATM   16  C   UNL     1      43.696 -19.996   2.667  1.00  0.00     0.030 A 
HETATM   17  C   UNL     1      43.906 -20.959   3.657  1.00  0.00     0.002 A 
HETATM   18  C   UNL     1      44.021 -20.599   4.997  1.00  0.00     0.001 A 
HETATM   19  C   UNL     1      43.924 -19.258   5.389  1.00  0.00     0.014 A 
HETATM   20  O   UNL     1      42.827 -14.730   1.642  1.00  0.00    -0.264 OA
ENDBRANCH   5   6
ENDBRANCH   2   5
BRANCH   1  21
HETATM   21  C   UNL     1      43.266 -10.659   6.727  1.00  0.00     0.035 A 
HETATM   22  C   UNL     1      42.803  -9.347   6.873  1.00  0.00     0.044 A 
HETATM   23  C   UNL     1      42.877  -8.695   8.126  1.00  0.00     0.005 A 
HETATM   24  C   UNL     1      43.435  -9.371   9.210  1.00  0.00     0.046 A 
HETATM   25  C   UNL     1      42.470  -7.403   8.582  1.00  0.00     0.003 A 
HETATM   26  N   UNL     1      43.398  -8.504  10.286  1.00  0.00    -0.346 N 
HETATM   27  C   UNL     1      43.904 -10.689   9.088  1.00  0.00     0.033 A 
HETATM   28  C   UNL     1      42.801  -7.308   9.935  1.00  0.00     0.046 A 
HETATM   29  C   UNL     1      42.523  -6.152  10.686  1.00  0.00     0.030 A 
HETATM   30  C   UNL     1      41.895  -5.081  10.042  1.00  0.00     0.002 A 
HETATM   31  C   UNL     1      41.557  -5.154   8.696  1.00  0.00     0.001 A 
HETATM   32  C   UNL     1      41.840  -6.306   7.957  1.00  0.00     0.014 A 
HETATM   33  C   UNL     1      43.805 -11.315   7.837  1.00  0.00     0.032 A 
BRANCH  26  34
HETATM   34  C   UNL     1      43.929  -8.797  11.609  1.00  0.00     0.125 C 
HETATM   35  C   UNL     1      42.879  -9.380  12.539  1.00  0.00     0.027 C 
ENDBRANCH  26  34
ENDBRANCH   1  21
TORSDOF 4
ENDMDL
MODEL 7
REMARK VINA RESULT:      -9.5      6.866      9.984
REMARK  4 active torsions:
REMARK  status: ('A' for Active; 'I' for Inactive)
REMARK    1  A    between atoms: C_2  and  N_3 
REMARK    2  A    between atoms: C_7  and  N_8 
REMARK       I    between atoms: N_8  and  C_9 
REMARK    3  A    between atoms: C_9  and  C_10 
REMARK    4  A    between atoms: C_10  and  N_11 
ROOT
HETATM    1  N   UNL     1      41.708 -13.765   0.546  1.00  0.00    -0.326 N 
HETATM    2  C   UNL     1      40.527 -13.922  -0.151  1.00  0.00     0.242 C 
HETATM    3  O   UNL     1      39.664 -14.770   0.076  1.00  0.00    -0.271 OA
HETATM    4  H   UNL     1      42.307 -13.020   0.190  1.00  0.00     0.169 HD
ENDROOT
BRANCH   2   5
HETATM    5  C   UNL     1      40.398 -13.029  -1.387  1.00  0.00     0.257 C 
BRANCH   5   6
HETATM    6  N   UNL     1      39.326 -12.032  -1.410  1.00  0.00    -0.224 N 
HETATM    7  N   UNL     1      38.378 -12.133  -2.457  1.00  0.00    -0.180 NA
HETATM    8  C   UNL     1      37.275 -11.440  -2.400  1.00  0.00     0.153 A 
HETATM    9  C   UNL     1      36.993 -10.587  -1.282  1.00  0.00     0.028 A 
HETATM   10  C   UNL     1      37.924 -10.485  -0.281  1.00  0.00     0.116 A 
HETATM   11  C   UNL     1      35.874  -9.793  -0.921  1.00  0.00     0.005 A 
HETATM   12  N   UNL     1      37.435  -9.649   0.681  1.00  0.00    -0.350 N 
HETATM   13  C   UNL     1      39.162 -11.207  -0.274  1.00  0.00     0.291 A 
HETATM   14  H   UNL     1      37.914  -9.412   1.540  1.00  0.00     0.166 HD
HETATM   15  C   UNL     1      36.171  -9.225   0.324  1.00  0.00     0.044 A 
HETATM   16  C   UNL     1      35.273  -8.398   1.009  1.00  0.00     0.030 A 
HETATM   17  C   UNL     1      34.038  -8.143   0.407  1.00  0.00     0.002 A 
HETATM   18  C   UNL     1      33.717  -8.689  -0.834  1.00  0.00     0.001 A 
HETATM   19  C   UNL     1      34.624  -9.514  -1.509  1.00  0.00     0.014 A 
HETATM   20  O   UNL     1      39.960 -11.128   0.653  1.00  0.00    -0.264 OA
ENDBRANCH   5   6
ENDBRANCH   2   5
BRANCH   1  21
HETATM   21  C   UNL     1      42.187 -14.528   1.630  1.00  0.00     0.035 A 
HETATM   22  C   UNL     1      42.393 -15.911   1.571  1.00  0.00     0.044 A 
HETATM   23  C   UNL     1      42.902 -16.609   2.692  1.00  0.00     0.005 A 
HETATM   24  C   UNL     1      43.177 -15.903   3.862  1.00  0.00     0.046 A 
HETATM   25  C   UNL     1      43.239 -17.980   2.920  1.00  0.00     0.003 A 
HETATM   26  N   UNL     1      43.637 -16.823   4.786  1.00  0.00    -0.346 N 
HETATM   27  C   UNL     1      42.980 -14.516   3.944  1.00  0.00     0.033 A 
HETATM   28  C   UNL     1      43.700 -18.089   4.233  1.00  0.00     0.046 A 
HETATM   29  C   UNL     1      44.120 -19.318   4.770  1.00  0.00     0.030 A 
HETATM   30  C   UNL     1      44.070 -20.450   3.950  1.00  0.00     0.002 A 
HETATM   31  C   UNL     1      43.614 -20.364   2.639  1.00  0.00     0.001 A 
HETATM   32  C   UNL     1      43.196 -19.137   2.115  1.00  0.00     0.014 A 
HETATM   33  C   UNL     1      42.488 -13.848   2.813  1.00  0.00     0.032 A 
BRANCH  26  34
HETATM   34  C   UNL     1      43.993 -16.512   6.162  1.00  0.00     0.125 C 
HETATM   35  C   UNL     1      42.803 -16.592   7.102  1.00  0.00     0.027 C 
ENDBRANCH  26  34
ENDBRANCH   1  21
TORSDOF 4
ENDMDL
MODEL 8
REMARK VINA RESULT:      -9.5      6.844     10.341
REMARK  4 active torsions:
REMARK  status: ('A' for Active; 'I' for Inactive)
REMARK    1  A    between atoms: C_2  and  N_3 
REMARK    2  A    between atoms: C_7  and  N_8 
REMARK       I    between atoms: N_8  and  C_9 
REMARK    3  A    between atoms: C_9  and  C_10 
REMARK    4  A    between atoms: C_10  and  N_11 
ROOT
HETATM    1  N   UNL     1      40.412 -13.609   1.761  1.00  0.00    -0.326 N 
HETATM    2  C   UNL     1      39.986 -13.815   0.464  1.00  0.00     0.242 C 
HETATM    3  O   UNL     1      40.268 -14.782  -0.243  1.00  0.00    -0.271 OA
HETATM    4  H   UNL     1      40.091 -12.733   2.172  1.00  0.00     0.169 HD
ENDROOT
BRANCH   2   5
HETATM    5  C   UNL     1      39.212 -12.640  -0.141  1.00  0.00     0.257 C 
BRANCH   5   6
HETATM    6  N   UNL     1      39.917 -11.753  -1.068  1.00  0.00    -0.224 N 
HETATM    7  N   UNL     1      39.393 -11.646  -2.379  1.00  0.00    -0.180 NA
HETATM    8  C   UNL     1      39.819 -10.702  -3.171  1.00  0.00     0.153 A 
HETATM    9  C   UNL     1      40.799  -9.752  -2.730  1.00  0.00     0.028 A 
HETATM   10  C   UNL     1      41.310  -9.873  -1.465  1.00  0.00     0.116 A 
HETATM   11  C   UNL     1      41.380  -8.604  -3.330  1.00  0.00     0.005 A 
HETATM   12  N   UNL     1      42.196  -8.854  -1.257  1.00  0.00    -0.350 N 
HETATM   13  C   UNL     1      40.901 -10.886  -0.539  1.00  0.00     0.291 A 
HETATM   14  H   UNL     1      42.706  -8.698  -0.397  1.00  0.00     0.166 HD
HETATM   15  C   UNL     1      42.243  -8.050  -2.377  1.00  0.00     0.044 A 
HETATM   16  C   UNL     1      42.972  -6.878  -2.612  1.00  0.00     0.030 A 
HETATM   17  C   UNL     1      42.815  -6.254  -3.852  1.00  0.00     0.002 A 
HETATM   18  C   UNL     1      41.968  -6.785  -4.822  1.00  0.00     0.001 A 
HETATM   19  C   UNL     1      41.245  -7.959  -4.575  1.00  0.00     0.014 A 
HETATM   20  O   UNL     1      41.346 -10.949   0.602  1.00  0.00    -0.264 OA
ENDBRANCH   5   6
ENDBRANCH   2   5
BRANCH   1  21
HETATM   21  C   UNL     1      41.259 -14.426   2.538  1.00  0.00     0.035 A 
HETATM   22  C   UNL     1      41.526 -15.766   2.241  1.00  0.00     0.044 A 
HETATM   23  C   UNL     1      42.409 -16.519   3.051  1.00  0.00     0.005 A 
HETATM   24  C   UNL     1      42.993 -15.912   4.162  1.00  0.00     0.046 A 
HETATM   25  C   UNL     1      42.890 -17.864   2.986  1.00  0.00     0.003 A 
HETATM   26  N   UNL     1      43.781 -16.868   4.773  1.00  0.00    -0.346 N 
HETATM   27  C   UNL     1      42.741 -14.567   4.478  1.00  0.00     0.033 A 
HETATM   28  C   UNL     1      43.749 -18.058   4.069  1.00  0.00     0.046 A 
HETATM   29  C   UNL     1      44.398 -19.286   4.288  1.00  0.00     0.030 A 
HETATM   30  C   UNL     1      44.165 -20.327   3.384  1.00  0.00     0.002 A 
HETATM   31  C   UNL     1      43.314 -20.155   2.299  1.00  0.00     0.001 A 
HETATM   32  C   UNL     1      42.670 -18.932   2.091  1.00  0.00     0.014 A 
HETATM   33  C   UNL     1      41.874 -13.842   3.649  1.00  0.00     0.032 A 
BRANCH  26  34
HETATM   34  C   UNL     1      44.534 -16.664   6.002  1.00  0.00     0.125 C 
HETATM   35  C   UNL     1      43.721 -16.995   7.241  1.00  0.00     0.027 C 
ENDBRANCH  26  34
ENDBRANCH   1  21
TORSDOF 4
ENDMDL
MODEL 9
REMARK VINA RESULT:      -9.4      2.656      3.115
REMARK  4 active torsions:
REMARK  status: ('A' for Active; 'I' for Inactive)
REMARK    1  A    between atoms: C_2  and  N_3 
REMARK    2  A    between atoms: C_7  and  N_8 
REMARK       I    between atoms: N_8  and  C_9 
REMARK    3  A    between atoms: C_9  and  C_10 
REMARK    4  A    between atoms: C_10  and  N_11 
ROOT
HETATM    1  N   UNL     1      40.485 -10.908   5.758  1.00  0.00    -0.326 N 
HETATM    2  C   UNL     1      39.612 -10.653   6.797  1.00  0.00     0.242 C 
HETATM    3  O   UNL     1      38.698 -11.389   7.168  1.00  0.00    -0.271 OA
HETATM    4  H   UNL     1      41.160 -10.163   5.588  1.00  0.00     0.169 HD
ENDROOT
BRANCH   2   5
HETATM    5  C   UNL     1      39.753  -9.260   7.415  1.00  0.00     0.257 C 
BRANCH   5   6
HETATM    6  N   UNL     1      40.329  -9.154   8.758  1.00  0.00    -0.224 N 
HETATM    7  N   UNL     1      41.736  -9.279   8.864  1.00  0.00    -0.180 NA
HETATM    8  C   UNL     1      42.330  -8.956   9.979  1.00  0.00     0.153 A 
HETATM    9  C   UNL     1      41.586  -8.456  11.098  1.00  0.00     0.028 A 
HETATM   10  C   UNL     1      40.224  -8.353  10.989  1.00  0.00     0.116 A 
HETATM   11  C   UNL     1      41.961  -7.969  12.377  1.00  0.00     0.005 A 
HETATM   12  N   UNL     1      39.735  -7.834  12.153  1.00  0.00    -0.350 N 
HETATM   13  C   UNL     1      39.496  -8.695   9.803  1.00  0.00     0.291 A 
HETATM   14  H   UNL     1      38.759  -7.638  12.334  1.00  0.00     0.166 HD
HETATM   15  C   UNL     1      40.780  -7.570  13.015  1.00  0.00     0.044 A 
HETATM   16  C   UNL     1      40.769  -7.004  14.295  1.00  0.00     0.030 A 
HETATM   17  C   UNL     1      41.996  -6.840  14.942  1.00  0.00     0.002 A 
HETATM   18  C   UNL     1      43.187  -7.233  14.335  1.00  0.00     0.001 A 
HETATM   19  C   UNL     1      43.185  -7.799  13.054  1.00  0.00     0.014 A 
HETATM   20  O   UNL     1      38.281  -8.556   9.718  1.00  0.00    -0.264 OA
ENDBRANCH   5   6
ENDBRANCH   2   5
BRANCH   1  21
HETATM   21  C   UNL     1      40.512 -12.026   4.900  1.00  0.00     0.035 A 
HETATM   22  C   UNL     1      41.455 -13.054   4.999  1.00  0.00     0.044 A 
HETATM   23  C   UNL     1      41.406 -14.161   4.119  1.00  0.00     0.005 A 
HETATM   24  C   UNL     1      40.416 -14.202   3.137  1.00  0.00     0.046 A 
HETATM   25  C   UNL     1      42.191 -15.349   3.997  1.00  0.00     0.003 A 
HETATM   26  N   UNL     1      40.613 -15.366   2.418  1.00  0.00    -0.346 N 
HETATM   27  C   UNL     1      39.459 -13.183   3.020  1.00  0.00     0.033 A 
HETATM   28  C   UNL     1      41.675 -16.089   2.931  1.00  0.00     0.046 A 
HETATM   29  C   UNL     1      42.226 -17.326   2.553  1.00  0.00     0.030 A 
HETATM   30  C   UNL     1      43.318 -17.812   3.278  1.00  0.00     0.002 A 
HETATM   31  C   UNL     1      43.848 -17.092   4.342  1.00  0.00     0.001 A 
HETATM   32  C   UNL     1      43.295 -15.862   4.709  1.00  0.00     0.014 A 
HETATM   33  C   UNL     1      39.523 -12.105   3.916  1.00  0.00     0.032 A 
BRANCH  26  34
HETATM   34  C   UNL     1      39.825 -15.775   1.266  1.00  0.00     0.125 C 
HETATM   35  C   UNL     1      40.083 -14.905   0.048  1.00  0.00     0.027 C 
ENDBRANCH  26  34
ENDBRANCH   1  21
TORSDOF 4
ENDMDL
MODEL 10
REMARK VINA RESULT:      -9.3      6.305     10.257
REMARK  4 active torsions:
REMARK  status: ('A' for Active; 'I' for Inactive)
REMARK    1  A    between atoms: C_2  and  N_3 
REMARK    2  A    between atoms: C_7  and  N_8 
REMARK       I    between atoms: N_8  and  C_9 
REMARK    3  A    between atoms: C_9  and  C_10 
REMARK    4  A    between atoms: C_10  and  N_11 
ROOT
HETATM    1  N   UNL     1      41.608 -14.619   0.735  1.00  0.00    -0.326 N 
HETATM    2  C   UNL     1      40.317 -14.131   0.701  1.00  0.00     0.242 C 
HETATM    3  O   UNL     1      39.463 -14.291   1.572  1.00  0.00    -0.271 OA
HETATM    4  H   UNL     1      42.159 -14.400  -0.095  1.00  0.00     0.169 HD
ENDROOT
BRANCH   2   5
HETATM    5  C   UNL     1      39.930 -13.458  -0.618  1.00  0.00     0.257 C 
BRANCH   5   6
HETATM    6  N   UNL     1      40.324 -12.062  -0.823  1.00  0.00    -0.224 N 
HETATM    7  N   UNL     1      41.031 -11.433   0.230  1.00  0.00    -0.180 NA
HETATM    8  C   UNL     1      41.618 -10.288   0.021  1.00  0.00     0.153 A 
HETATM    9  C   UNL     1      41.578  -9.659  -1.268  1.00  0.00     0.028 A 
HETATM   10  C   UNL     1      40.878 -10.269  -2.276  1.00  0.00     0.116 A 
HETATM   11  C   UNL     1      42.170  -8.482  -1.795  1.00  0.00     0.005 A 
HETATM   12  N   UNL     1      41.000  -9.512  -3.406  1.00  0.00    -0.350 N 
HETATM   13  C   UNL     1      40.200 -11.522  -2.124  1.00  0.00     0.291 A 
HETATM   14  H   UNL     1      40.593  -9.743  -4.303  1.00  0.00     0.166 HD
HETATM   15  C   UNL     1      41.803  -8.420  -3.145  1.00  0.00     0.044 A 
HETATM   16  C   UNL     1      42.236  -7.399  -3.998  1.00  0.00     0.030 A 
HETATM   17  C   UNL     1      43.066  -6.413  -3.459  1.00  0.00     0.002 A 
HETATM   18  C   UNL     1      43.443  -6.444  -2.118  1.00  0.00     0.001 A 
HETATM   19  C   UNL     1      43.002  -7.471  -1.275  1.00  0.00     0.014 A 
HETATM   20  O   UNL     1      39.614 -12.066  -3.053  1.00  0.00    -0.264 OA
ENDBRANCH   5   6
ENDBRANCH   2   5
BRANCH   1  21
HETATM   21  C   UNL     1      42.215 -15.406   1.736  1.00  0.00     0.035 A 
HETATM   22  C   UNL     1      42.252 -15.045   3.087  1.00  0.00     0.044 A 
HETATM   23  C   UNL     1      42.855 -15.898   4.041  1.00  0.00     0.005 A 
HETATM   24  C   UNL     1      43.430 -17.094   3.613  1.00  0.00     0.046 A 
HETATM   25  C   UNL     1      43.017 -15.819   5.459  1.00  0.00     0.003 A 
HETATM   26  N   UNL     1      43.955 -17.710   4.733  1.00  0.00    -0.346 N 
HETATM   27  C   UNL     1      43.403 -17.477   2.263  1.00  0.00     0.033 A 
HETATM   28  C   UNL     1      43.703 -16.963   5.870  1.00  0.00     0.046 A 
HETATM   29  C   UNL     1      44.016 -17.193   7.222  1.00  0.00     0.030 A 
HETATM   30  C   UNL     1      43.620 -16.239   8.163  1.00  0.00     0.002 A 
HETATM   31  C   UNL     1      42.936 -15.092   7.776  1.00  0.00     0.001 A 
HETATM   32  C   UNL     1      42.631 -14.871   6.430  1.00  0.00     0.014 A 
HETATM   33  C   UNL     1      42.785 -16.619   1.342  1.00  0.00     0.032 A 
BRANCH  26  34
HETATM   34  C   UNL     1      44.690 -18.966   4.725  1.00  0.00     0.125 C 
HETATM   35  C   UNL     1      43.872 -20.120   5.275  1.00  0.00     0.027 C 
ENDBRANCH  26  34
ENDBRANCH   1  21
TORSDOF 4
ENDMDL
