MODEL 1
REMARK VINA RESULT:      -8.3      0.000      0.000
REMARK  2 active torsions:
REMARK  status: ('A' for Active; 'I' for Inactive)
REMARK    1  A    between atoms: C_8  and  N_9 
REMARK    2  A    between atoms: N_9  and  C_10 
ROOT
HETATM    1  N   UNL     1      41.545 -14.874   3.831  1.00  0.00    -0.340 N 
HETATM    2  H   UNL     1      40.723 -14.813   4.410  1.00  0.00     0.167 HD
ENDROOT
BRANCH   1   3
HETATM    3  C   UNL     1      41.806 -13.700   3.106  1.00  0.00     0.143 A 
HETATM    4  C   UNL     1      41.220 -13.444   1.837  1.00  0.00     0.053 A 
HETATM    5  C   UNL     1      40.376 -14.221   0.930  1.00  0.00    -0.032 A 
HETATM    6  C   UNL     1      41.496 -12.197   1.291  1.00  0.00     0.114 A 
HETATM    7  C   UNL     1      39.943 -15.636   1.160  1.00  0.00     0.050 C 
HETATM    8  C   UNL     1      40.025 -13.486  -0.197  1.00  0.00    -0.012 A 
HETATM    9  S   UNL     1      40.733 -11.935  -0.202  1.00  0.00    -0.074 SA
HETATM   10  C   UNL     1      39.162 -13.897  -1.347  1.00  0.00     0.057 C 
HETATM   11  N   UNL     1      42.267 -11.234   1.820  1.00  0.00    -0.234 NA
HETATM   12  C   UNL     1      42.788 -11.589   2.990  1.00  0.00     0.236 A 
HETATM   13  N   UNL     1      42.601 -12.741   3.643  1.00  0.00    -0.223 NA
ENDBRANCH   1   3
BRANCH   1  14
HETATM   14  C   UNL     1      42.332 -16.014   4.075  1.00  0.00     0.036 A 
HETATM   15  C   UNL     1      42.619 -16.878   3.007  1.00  0.00     0.069 A 
HETATM   16  C   UNL     1      43.357 -18.049   3.202  1.00  0.00     0.104 A 
HETATM   17  C   UNL     1      43.859 -18.355   4.466  1.00  0.00     0.102 A 
HETATM   18  O   UNL     1      43.629 -18.796   2.088  1.00  0.00    -0.348 OA
HETATM   19  O   UNL     1      44.673 -19.425   4.712  1.00  0.00    -0.348 OA
HETATM   20  C   UNL     1      43.616 -17.490   5.530  1.00  0.00     0.042 A 
HETATM   21  C   UNL     1      44.016 -20.667   4.468  1.00  0.00     0.178 C 
HETATM   22  C   UNL     1      44.024 -21.036   2.992  1.00  0.00     0.053 C 
HETATM   23  C   UNL     1      43.108 -20.122   2.192  1.00  0.00     0.178 C 
HETATM   24  C   UNL     1      42.844 -16.340   5.337  1.00  0.00     0.032 A 
ENDBRANCH   1  14
TORSDOF 2
ENDMDL
MODEL 2
REMARK VINA RESULT:      -8.2      2.767      4.427
REMARK  2 active torsions:
REMARK  status: ('A' for Active; 'I' for Inactive)
REMARK    1  A    between atoms: C_8  and  N_9 
REMARK    2  A    between atoms: N_9  and  C_10 
ROOT
HETATM    1  N   UNL     1      39.667 -14.355   0.797  1.00  0.00    -0.340 N 
HETATM    2  H   UNL     1      39.006 -13.814   1.331  1.00  0.00     0.167 HD
ENDROOT
BRANCH   1   3
HETATM    3  C   UNL     1      39.653 -14.057  -0.576  1.00  0.00     0.143 A 
HETATM    4  C   UNL     1      40.236 -12.872  -1.102  1.00  0.00     0.053 A 
HETATM    5  C   UNL     1      40.848 -11.687  -0.504  1.00  0.00    -0.032 A 
HETATM    6  C   UNL     1      40.230 -12.768  -2.486  1.00  0.00     0.114 A 
HETATM    7  C   UNL     1      40.956 -11.424   0.966  1.00  0.00     0.050 C 
HETATM    8  C   UNL     1      41.316 -10.809  -1.475  1.00  0.00    -0.012 A 
HETATM    9  S   UNL     1      40.979 -11.355  -3.055  1.00  0.00    -0.074 SA
HETATM   10  C   UNL     1      42.021  -9.503  -1.291  1.00  0.00     0.057 C 
HETATM   11  N   UNL     1      39.718 -13.645  -3.363  1.00  0.00    -0.234 NA
HETATM   12  C   UNL     1      39.173 -14.699  -2.764  1.00  0.00     0.236 A 
HETATM   13  N   UNL     1      39.117 -14.944  -1.451  1.00  0.00    -0.223 NA
ENDBRANCH   1   3
BRANCH   1  14
HETATM   14  C   UNL     1      40.578 -15.082   1.584  1.00  0.00     0.036 A 
HETATM   15  C   UNL     1      40.188 -15.483   2.872  1.00  0.00     0.069 A 
HETATM   16  C   UNL     1      41.069 -16.168   3.714  1.00  0.00     0.104 A 
HETATM   17  C   UNL     1      42.347 -16.499   3.266  1.00  0.00     0.102 A 
HETATM   18  O   UNL     1      40.576 -16.562   4.928  1.00  0.00    -0.348 OA
HETATM   19  O   UNL     1      43.225 -17.254   3.992  1.00  0.00    -0.348 OA
HETATM   20  C   UNL     1      42.738 -16.142   1.979  1.00  0.00     0.042 A 
HETATM   21  C   UNL     1      43.615 -16.608   5.203  1.00  0.00     0.178 C 
HETATM   22  C   UNL     1      42.585 -16.795   6.306  1.00  0.00     0.053 C 
HETATM   23  C   UNL     1      41.318 -16.006   6.014  1.00  0.00     0.178 C 
HETATM   24  C   UNL     1      41.866 -15.423   1.154  1.00  0.00     0.032 A 
ENDBRANCH   1  14
TORSDOF 2
ENDMDL
MODEL 3
REMARK VINA RESULT:      -8.0      3.705      7.164
REMARK  2 active torsions:
REMARK  status: ('A' for Active; 'I' for Inactive)
REMARK    1  A    between atoms: C_8  and  N_9 
REMARK    2  A    between atoms: N_9  and  C_10 
ROOT
HETATM    1  N   UNL     1      41.032 -16.353   2.454  1.00  0.00    -0.340 N 
HETATM    2  H   UNL     1      40.176 -16.878   2.539  1.00  0.00     0.167 HD
ENDROOT
BRANCH   1   3
HETATM    3  C   UNL     1      42.150 -17.016   2.986  1.00  0.00     0.143 A 
HETATM    4  C   UNL     1      42.590 -16.810   4.323  1.00  0.00     0.053 A 
HETATM    5  C   UNL     1      42.186 -15.907   5.399  1.00  0.00    -0.032 A 
HETATM    6  C   UNL     1      43.646 -17.612   4.734  1.00  0.00     0.114 A 
HETATM    7  C   UNL     1      41.129 -14.853   5.286  1.00  0.00     0.050 C 
HETATM    8  C   UNL     1      42.919 -16.135   6.558  1.00  0.00    -0.012 A 
HETATM    9  S   UNL     1      44.096 -17.351   6.349  1.00  0.00    -0.074 SA
HETATM   10  C   UNL     1      42.805 -15.452   7.884  1.00  0.00     0.057 C 
HETATM   11  N   UNL     1      44.299 -18.529   4.004  1.00  0.00    -0.234 NA
HETATM   12  C   UNL     1      43.827 -18.619   2.765  1.00  0.00     0.236 A 
HETATM   13  N   UNL     1      42.812 -17.929   2.233  1.00  0.00    -0.223 NA
ENDBRANCH   1   3
BRANCH   1  14
HETATM   14  C   UNL     1      40.927 -15.219   1.628  1.00  0.00     0.036 A 
HETATM   15  C   UNL     1      40.050 -15.260   0.533  1.00  0.00     0.069 A 
HETATM   16  C   UNL     1      39.939 -14.179  -0.347  1.00  0.00     0.104 A 
HETATM   17  C   UNL     1      40.678 -13.018  -0.122  1.00  0.00     0.102 A 
HETATM   18  O   UNL     1      39.017 -14.297  -1.351  1.00  0.00    -0.348 OA
HETATM   19  O   UNL     1      40.546 -11.887  -0.877  1.00  0.00    -0.348 OA
HETATM   20  C   UNL     1      41.524 -12.946   0.980  1.00  0.00     0.042 A 
HETATM   21  C   UNL     1      40.941 -12.098  -2.232  1.00  0.00     0.178 C 
HETATM   22  C   UNL     1      39.834 -12.741  -3.054  1.00  0.00     0.053 C 
HETATM   23  C   UNL     1      39.616 -14.189  -2.643  1.00  0.00     0.178 C 
HETATM   24  C   UNL     1      41.660 -14.045   1.836  1.00  0.00     0.032 A 
ENDBRANCH   1  14
TORSDOF 2
ENDMDL
MODEL 4
REMARK VINA RESULT:      -8.0      4.676      7.450
REMARK  2 active torsions:
REMARK  status: ('A' for Active; 'I' for Inactive)
REMARK    1  A    between atoms: C_8  and  N_9 
REMARK    2  A    between atoms: N_9  and  C_10 
ROOT
HETATM    1  N   UNL     1      42.645 -13.529   5.237  1.00  0.00    -0.340 N 
HETATM    2  H   UNL     1      41.736 -13.514   5.671  1.00  0.00     0.167 HD
ENDROOT
BRANCH   1   3
HETATM    3  C   UNL     1      42.663 -14.204   4.005  1.00  0.00     0.143 A 
HETATM    4  C   UNL     1      43.033 -15.573   3.895  1.00  0.00     0.053 A 
HETATM    5  C   UNL     1      43.551 -16.566   4.834  1.00  0.00    -0.032 A 
HETATM    6  C   UNL     1      42.906 -16.125   2.627  1.00  0.00     0.114 A 
HETATM    7  C   UNL     1      43.883 -16.301   6.269  1.00  0.00     0.050 C 
HETATM    8  C   UNL     1      43.714 -17.806   4.227  1.00  0.00    -0.012 A 
HETATM    9  S   UNL     1      43.320 -17.770   2.568  1.00  0.00    -0.074 SA
HETATM   10  C   UNL     1      44.192 -19.087   4.833  1.00  0.00     0.057 C 
HETATM   11  N   UNL     1      42.500 -15.503   1.509  1.00  0.00    -0.234 NA
HETATM   12  C   UNL     1      42.208 -14.224   1.720  1.00  0.00     0.236 A 
HETATM   13  N   UNL     1      42.266 -13.561   2.880  1.00  0.00    -0.223 NA
ENDBRANCH   1   3
BRANCH   1  14
HETATM   14  C   UNL     1      43.586 -12.684   5.852  1.00  0.00     0.036 A 
HETATM   15  C   UNL     1      43.477 -12.441   7.230  1.00  0.00     0.069 A 
HETATM   16  C   UNL     1      44.357 -11.574   7.884  1.00  0.00     0.104 A 
HETATM   17  C   UNL     1      45.391 -10.965   7.175  1.00  0.00     0.102 A 
HETATM   18  O   UNL     1      44.200 -11.445   9.237  1.00  0.00    -0.348 OA
HETATM   19  O   UNL     1      46.349 -10.188   7.764  1.00  0.00    -0.348 OA
HETATM   20  C   UNL     1      45.538 -11.224   5.815  1.00  0.00     0.042 A 
HETATM   21  C   UNL     1      45.800  -9.005   8.343  1.00  0.00     0.178 C 
HETATM   22  C   UNL     1      45.207  -9.268   9.719  1.00  0.00     0.053 C 
HETATM   23  C   UNL     1      43.935 -10.095   9.620  1.00  0.00     0.178 C 
HETATM   24  C   UNL     1      44.631 -12.063   5.158  1.00  0.00     0.032 A 
ENDBRANCH   1  14
TORSDOF 2
ENDMDL
MODEL 5
REMARK VINA RESULT:      -7.9      3.287      6.889
REMARK  2 active torsions:
REMARK  status: ('A' for Active; 'I' for Inactive)
REMARK    1  A    between atoms: C_8  and  N_9 
REMARK    2  A    between atoms: N_9  and  C_10 
ROOT
HETATM    1  N   UNL     1      42.630 -14.274   2.104  1.00  0.00    -0.340 N 
HETATM    2  H   UNL     1      43.479 -14.392   1.575  1.00  0.00     0.167 HD
ENDROOT
BRANCH   1   3
HETATM    3  C   UNL     1      42.810 -14.422   3.489  1.00  0.00     0.143 A 
HETATM    4  C   UNL     1      43.184 -15.661   4.079  1.00  0.00     0.053 A 
HETATM    5  C   UNL     1      43.369 -17.018   3.566  1.00  0.00    -0.032 A 
HETATM    6  C   UNL     1      43.420 -15.624   5.446  1.00  0.00     0.114 A 
HETATM    7  C   UNL     1      43.127 -17.442   2.151  1.00  0.00     0.050 C 
HETATM    8  C   UNL     1      43.792 -17.888   4.564  1.00  0.00    -0.012 A 
HETATM    9  S   UNL     1      43.906 -17.121   6.083  1.00  0.00    -0.074 SA
HETATM   10  C   UNL     1      44.116 -19.343   4.457  1.00  0.00     0.057 C 
HETATM   11  N   UNL     1      43.310 -14.562   6.260  1.00  0.00    -0.234 NA
HETATM   12  C   UNL     1      42.927 -13.467   5.612  1.00  0.00     0.236 A 
HETATM   13  N   UNL     1      42.680 -13.346   4.303  1.00  0.00    -0.223 NA
ENDBRANCH   1   3
BRANCH   1  14
HETATM   14  C   UNL     1      41.555 -13.769   1.352  1.00  0.00     0.036 A 
HETATM   15  C   UNL     1      40.880 -14.631   0.474  1.00  0.00     0.069 A 
HETATM   16  C   UNL     1      39.834 -14.171  -0.331  1.00  0.00     0.104 A 
HETATM   17  C   UNL     1      39.416 -12.844  -0.241  1.00  0.00     0.102 A 
HETATM   18  O   UNL     1      39.206 -15.103  -1.113  1.00  0.00    -0.348 OA
HETATM   19  O   UNL     1      38.338 -12.349  -0.919  1.00  0.00    -0.348 OA
HETATM   20  C   UNL     1      40.049 -11.984   0.651  1.00  0.00     0.042 A 
HETATM   21  C   UNL     1      38.528 -12.388  -2.333  1.00  0.00     0.178 C 
HETATM   22  C   UNL     1      38.225 -13.763  -2.910  1.00  0.00     0.053 C 
HETATM   23  C   UNL     1      39.282 -14.776  -2.501  1.00  0.00     0.178 C 
HETATM   24  C   UNL     1      41.121 -12.440   1.427  1.00  0.00     0.032 A 
ENDBRANCH   1  14
TORSDOF 2
ENDMDL
MODEL 6
REMARK VINA RESULT:      -7.7      3.608      7.127
REMARK  2 active torsions:
REMARK  status: ('A' for Active; 'I' for Inactive)
REMARK    1  A    between atoms: C_8  and  N_9 
REMARK    2  A    between atoms: N_9  and  C_10 
ROOT
HETATM    1  N   UNL     1      42.678 -14.486   2.601  1.00  0.00    -0.340 N 
HETATM    2  H   UNL     1      43.613 -14.225   2.330  1.00  0.00     0.167 HD
ENDROOT
BRANCH   1   3
HETATM    3  C   UNL     1      42.545 -14.731   3.978  1.00  0.00     0.143 A 
HETATM    4  C   UNL     1      42.902 -15.975   4.566  1.00  0.00     0.053 A 
HETATM    5  C   UNL     1      43.346 -17.262   4.033  1.00  0.00    -0.032 A 
HETATM    6  C   UNL     1      42.807 -16.031   5.950  1.00  0.00     0.114 A 
HETATM    7  C   UNL     1      43.488 -17.588   2.579  1.00  0.00     0.050 C 
HETATM    8  C   UNL     1      43.616 -18.170   5.051  1.00  0.00    -0.012 A 
HETATM    9  S   UNL     1      43.289 -17.525   6.594  1.00  0.00    -0.074 SA
HETATM   10  C   UNL     1      44.111 -19.577   4.939  1.00  0.00     0.057 C 
HETATM   11  N   UNL     1      42.397 -15.055   6.774  1.00  0.00    -0.234 NA
HETATM   12  C   UNL     1      42.060 -13.948   6.119  1.00  0.00     0.236 A 
HETATM   13  N   UNL     1      42.113 -13.742   4.799  1.00  0.00    -0.223 NA
ENDBRANCH   1   3
BRANCH   1  14
HETATM   14  C   UNL     1      41.719 -14.309   1.588  1.00  0.00     0.036 A 
HETATM   15  C   UNL     1      41.656 -13.072   0.926  1.00  0.00     0.069 A 
HETATM   16  C   UNL     1      40.693 -12.826  -0.057  1.00  0.00     0.104 A 
HETATM   17  C   UNL     1      39.798 -13.830  -0.424  1.00  0.00     0.102 A 
HETATM   18  O   UNL     1      40.750 -11.609  -0.680  1.00  0.00    -0.348 OA
HETATM   19  O   UNL     1      38.899 -13.697  -1.444  1.00  0.00    -0.348 OA
HETATM   20  C   UNL     1      39.870 -15.074   0.196  1.00  0.00     0.042 A 
HETATM   21  C   UNL     1      37.935 -12.678  -1.181  1.00  0.00     0.178 C 
HETATM   22  C   UNL     1      38.469 -11.292  -1.509  1.00  0.00     0.053 C 
HETATM   23  C   UNL     1      39.540 -10.867  -0.517  1.00  0.00     0.178 C 
HETATM   24  C   UNL     1      40.811 -15.303   1.206  1.00  0.00     0.032 A 
ENDBRANCH   1  14
TORSDOF 2
ENDMDL
MODEL 7
REMARK VINA RESULT:      -7.5      3.461      6.726
REMARK  2 active torsions:
REMARK  status: ('A' for Active; 'I' for Inactive)
REMARK    1  A    between atoms: C_8  and  N_9 
REMARK    2  A    between atoms: N_9  and  C_10 
ROOT
HETATM    1  N   UNL     1      40.485 -14.271   3.559  1.00  0.00    -0.340 N 
HETATM    2  H   UNL     1      39.670 -14.861   3.586  1.00  0.00     0.167 HD
ENDROOT
BRANCH   1   3
HETATM    3  C   UNL     1      41.424 -14.568   4.560  1.00  0.00     0.143 A 
HETATM    4  C   UNL     1      42.324 -15.664   4.456  1.00  0.00     0.053 A 
HETATM    5  C   UNL     1      42.492 -16.756   3.499  1.00  0.00    -0.032 A 
HETATM    6  C   UNL     1      43.258 -15.769   5.479  1.00  0.00     0.114 A 
HETATM    7  C   UNL     1      41.613 -17.001   2.312  1.00  0.00     0.050 C 
HETATM    8  C   UNL     1      43.574 -17.564   3.830  1.00  0.00    -0.012 A 
HETATM    9  S   UNL     1      44.330 -17.069   5.275  1.00  0.00    -0.074 SA
HETATM   10  C   UNL     1      44.099 -18.762   3.106  1.00  0.00     0.057 C 
HETATM   11  N   UNL     1      43.380 -14.969   6.549  1.00  0.00    -0.234 NA
HETATM   12  C   UNL     1      42.473 -13.998   6.562  1.00  0.00     0.236 A 
HETATM   13  N   UNL     1      41.528 -13.762   5.646  1.00  0.00    -0.223 NA
ENDBRANCH   1   3
BRANCH   1  14
HETATM   14  C   UNL     1      40.576 -13.475   2.402  1.00  0.00     0.036 A 
HETATM   15  C   UNL     1      39.897 -13.886   1.245  1.00  0.00     0.069 A 
HETATM   16  C   UNL     1      39.989 -13.159   0.054  1.00  0.00     0.104 A 
HETATM   17  C   UNL     1      40.733 -11.981   0.013  1.00  0.00     0.102 A 
HETATM   18  O   UNL     1      39.247 -13.613  -1.002  1.00  0.00    -0.348 OA
HETATM   19  O   UNL     1      40.786 -11.165  -1.082  1.00  0.00    -0.348 OA
HETATM   20  C   UNL     1      41.383 -11.538   1.162  1.00  0.00     0.042 A 
HETATM   21  C   UNL     1      41.395 -11.807  -2.201  1.00  0.00     0.178 C 
HETATM   22  C   UNL     1      40.415 -12.699  -2.948  1.00  0.00     0.053 C 
HETATM   23  C   UNL     1      40.061 -13.932  -2.131  1.00  0.00     0.178 C 
HETATM   24  C   UNL     1      41.318 -12.290   2.340  1.00  0.00     0.032 A 
ENDBRANCH   1  14
TORSDOF 2
ENDMDL
MODEL 8
REMARK VINA RESULT:      -7.3      3.846      5.868
REMARK  2 active torsions:
REMARK  status: ('A' for Active; 'I' for Inactive)
REMARK    1  A    between atoms: C_8  and  N_9 
REMARK    2  A    between atoms: N_9  and  C_10 
ROOT
HETATM    1  N   UNL     1      42.763 -12.077   4.519  1.00  0.00    -0.340 N 
HETATM    2  H   UNL     1      43.054 -11.500   3.746  1.00  0.00     0.167 HD
ENDROOT
BRANCH   1   3
HETATM    3  C   UNL     1      42.139 -11.355   5.550  1.00  0.00     0.143 A 
HETATM    4  C   UNL     1      42.876 -10.711   6.581  1.00  0.00     0.053 A 
HETATM    5  C   UNL     1      44.291 -10.671   6.948  1.00  0.00    -0.032 A 
HETATM    6  C   UNL     1      42.125  -9.955   7.471  1.00  0.00     0.114 A 
HETATM    7  C   UNL     1      45.380 -11.431   6.256  1.00  0.00     0.050 C 
HETATM    8  C   UNL     1      44.512  -9.841   8.040  1.00  0.00    -0.012 A 
HETATM    9  S   UNL     1      43.065  -9.177   8.649  1.00  0.00    -0.074 SA
HETATM   10  C   UNL     1      45.806  -9.507   8.711  1.00  0.00     0.057 C 
HETATM   11  N   UNL     1      40.793  -9.791   7.471  1.00  0.00    -0.234 NA
HETATM   12  C   UNL     1      40.201 -10.458   6.485  1.00  0.00     0.236 A 
HETATM   13  N   UNL     1      40.790 -11.210   5.549  1.00  0.00    -0.223 NA
ENDBRANCH   1   3
BRANCH   1  14
HETATM   14  C   UNL     1      42.843 -13.458   4.264  1.00  0.00     0.036 A 
HETATM   15  C   UNL     1      42.662 -14.353   5.330  1.00  0.00     0.069 A 
HETATM   16  C   UNL     1      42.777 -15.734   5.143  1.00  0.00     0.104 A 
HETATM   17  C   UNL     1      43.034 -16.246   3.872  1.00  0.00     0.102 A 
HETATM   18  O   UNL     1      42.529 -16.523   6.233  1.00  0.00    -0.348 OA
HETATM   19  O   UNL     1      43.058 -17.584   3.593  1.00  0.00    -0.348 OA
HETATM   20  C   UNL     1      43.179 -15.375   2.796  1.00  0.00     0.042 A 
HETATM   21  C   UNL     1      44.111 -18.257   4.282  1.00  0.00     0.178 C 
HETATM   22  C   UNL     1      43.730 -18.592   5.716  1.00  0.00     0.053 C 
HETATM   23  C   UNL     1      43.653 -17.337   6.571  1.00  0.00     0.178 C 
HETATM   24  C   UNL     1      43.102 -13.992   2.997  1.00  0.00     0.032 A 
ENDBRANCH   1  14
TORSDOF 2
ENDMDL
MODEL 9
REMARK VINA RESULT:      -7.3      3.508      4.549
REMARK  2 active torsions:
REMARK  status: ('A' for Active; 'I' for Inactive)
REMARK    1  A    between atoms: C_8  and  N_9 
REMARK    2  A    between atoms: N_9  and  C_10 
ROOT
HETATM    1  N   UNL     1      42.485 -13.718   5.952  1.00  0.00    -0.340 N 
HETATM    2  H   UNL     1      41.485 -13.770   6.066  1.00  0.00     0.167 HD
ENDROOT
BRANCH   1   3
HETATM    3  C   UNL     1      43.037 -12.509   6.405  1.00  0.00     0.143 A 
HETATM    4  C   UNL     1      42.262 -11.325   6.547  1.00  0.00     0.053 A 
HETATM    5  C   UNL     1      40.883 -10.966   6.219  1.00  0.00    -0.032 A 
HETATM    6  C   UNL     1      42.926 -10.239   7.100  1.00  0.00     0.114 A 
HETATM    7  C   UNL     1      39.899 -11.868   5.541  1.00  0.00     0.050 C 
HETATM    8  C   UNL     1      40.589  -9.664   6.606  1.00  0.00    -0.012 A 
HETATM    9  S   UNL     1      41.938  -8.872   7.285  1.00  0.00    -0.074 SA
HETATM   10  C   UNL     1      39.297  -8.922   6.477  1.00  0.00     0.057 C 
HETATM   11  N   UNL     1      44.211 -10.185   7.487  1.00  0.00    -0.234 NA
HETATM   12  C   UNL     1      44.848 -11.334   7.283  1.00  0.00     0.236 A 
HETATM   13  N   UNL     1      44.341 -12.463   6.777  1.00  0.00    -0.223 NA
ENDBRANCH   1   3
BRANCH   1  14
HETATM   14  C   UNL     1      43.082 -14.940   5.593  1.00  0.00     0.036 A 
HETATM   15  C   UNL     1      42.990 -15.371   4.261  1.00  0.00     0.069 A 
HETATM   16  C   UNL     1      43.525 -16.598   3.858  1.00  0.00     0.104 A 
HETATM   17  C   UNL     1      44.201 -17.399   4.778  1.00  0.00     0.102 A 
HETATM   18  O   UNL     1      43.430 -16.903   2.527  1.00  0.00    -0.348 OA
HETATM   19  O   UNL     1      44.838 -18.559   4.437  1.00  0.00    -0.348 OA
HETATM   20  C   UNL     1      44.335 -16.970   6.095  1.00  0.00     0.042 A 
HETATM   21  C   UNL     1      43.929 -19.551   3.960  1.00  0.00     0.178 C 
HETATM   22  C   UNL     1      43.579 -19.345   2.494  1.00  0.00     0.053 C 
HETATM   23  C   UNL     1      42.707 -18.114   2.305  1.00  0.00     0.178 C 
HETATM   24  C   UNL     1      43.764 -15.759   6.501  1.00  0.00     0.032 A 
ENDBRANCH   1  14
TORSDOF 2
ENDMDL
MODEL 10
REMARK VINA RESULT:      -7.3      3.886      7.104
REMARK  2 active torsions:
REMARK  status: ('A' for Active; 'I' for Inactive)
REMARK    1  A    between atoms: C_8  and  N_9 
REMARK    2  A    between atoms: N_9  and  C_10 
ROOT
HETATM    1  N   UNL     1      41.001 -14.732   4.784  1.00  0.00    -0.340 N 
HETATM    2  H   UNL     1      40.049 -15.052   4.712  1.00  0.00     0.167 HD
ENDROOT
BRANCH   1   3
HETATM    3  C   UNL     1      41.832 -15.606   5.503  1.00  0.00     0.143 A 
HETATM    4  C   UNL     1      42.519 -16.685   4.881  1.00  0.00     0.053 A 
HETATM    5  C   UNL     1      42.518 -17.250   3.533  1.00  0.00    -0.032 A 
HETATM    6  C   UNL     1      43.380 -17.399   5.704  1.00  0.00     0.114 A 
HETATM    7  C   UNL     1      41.652 -16.780   2.405  1.00  0.00     0.050 C 
HETATM    8  C   UNL     1      43.420 -18.301   3.419  1.00  0.00    -0.012 A 
HETATM    9  S   UNL     1      44.202 -18.643   4.895  1.00  0.00    -0.074 SA
HETATM   10  C   UNL     1      43.742 -19.128   2.215  1.00  0.00     0.057 C 
HETATM   11  N   UNL     1      43.609 -17.193   7.011  1.00  0.00    -0.234 NA
HETATM   12  C   UNL     1      42.895 -16.181   7.496  1.00  0.00     0.236 A 
HETATM   13  N   UNL     1      42.043 -15.398   6.826  1.00  0.00    -0.223 NA
ENDBRANCH   1   3
BRANCH   1  14
HETATM   14  C   UNL     1      41.296 -13.630   3.960  1.00  0.00     0.036 A 
HETATM   15  C   UNL     1      40.238 -12.841   3.482  1.00  0.00     0.069 A 
HETATM   16  C   UNL     1      40.470 -11.763   2.623  1.00  0.00     0.104 A 
HETATM   17  C   UNL     1      41.774 -11.429   2.260  1.00  0.00     0.102 A 
HETATM   18  O   UNL     1      39.378 -11.024   2.257  1.00  0.00    -0.348 OA
HETATM   19  O   UNL     1      42.085 -10.330   1.509  1.00  0.00    -0.348 OA
HETATM   20  C   UNL     1      42.838 -12.177   2.754  1.00  0.00     0.042 A 
HETATM   21  C   UNL     1      41.539 -10.406   0.193  1.00  0.00     0.178 C 
HETATM   22  C   UNL     1      40.079  -9.982   0.157  1.00  0.00     0.053 C 
HETATM   23  C   UNL     1      39.191 -11.010   0.841  1.00  0.00     0.178 C 
HETATM   24  C   UNL     1      42.597 -13.279   3.582  1.00  0.00     0.032 A 
ENDBRANCH   1  14
TORSDOF 2
ENDMDL
