MODEL 1
REMARK VINA RESULT:      -9.4      0.000      0.000
REMARK  4 active torsions:
REMARK  status: ('A' for Active; 'I' for Inactive)
REMARK    1  A    between atoms: C_2  and  N_3 
REMARK       I    between atoms: N_3  and  C_4 
REMARK       I    between atoms: C_4  and  N_5 
REMARK    2  A    between atoms: N_5  and  C_6 
REMARK    3  A    between atoms: C_17  and  C_18 
REMARK    4  A    between atoms: C_19  and  O_20 
ROOT
HETATM    1  C   UNL     1      44.230  -9.774   9.684  1.00  0.00     0.120 C 
HETATM    2  C   UNL     1      43.612 -10.444   8.439  1.00  0.00     0.202 C 
HETATM    3  N   UNL     1      44.665 -10.405   7.440  1.00  0.00    -0.332 N 
HETATM    4  C   UNL     1      44.681 -11.126   6.277  1.00  0.00     0.257 C 
HETATM    5  O   UNL     1      45.643 -11.129   5.514  1.00  0.00    -0.267 OA
HETATM    6  C   UNL     1      43.488 -11.939   5.943  1.00  0.00     0.059 A 
HETATM    7  C   UNL     1      42.166 -11.491   6.106  1.00  0.00     0.050 A 
HETATM    8  N   UNL     1      41.778 -10.313   6.780  1.00  0.00    -0.324 N 
HETATM    9  C   UNL     1      42.399  -9.718   7.856  1.00  0.00     0.247 C 
HETATM   10  O   UNL     1      41.892  -8.720   8.368  1.00  0.00    -0.271 OA
HETATM   11  C   UNL     1      43.744 -13.167   5.310  1.00  0.00     0.031 A 
HETATM   12  C   UNL     1      42.703 -13.974   4.829  1.00  0.00    -0.022 A 
HETATM   13  C   UNL     1      41.395 -13.485   4.942  1.00  0.00     0.014 A 
HETATM   14  C   UNL     1      41.130 -12.256   5.557  1.00  0.00     0.031 A 
HETATM   15  C   UNL     1      45.679  -9.430   7.773  1.00  0.00     0.129 C 
HETATM   16  C   UNL     1      45.664  -9.380   9.287  1.00  0.00     0.048 C 
HETATM   17  H   UNL     1      40.854  -9.938   6.603  1.00  0.00     0.169 HD
ENDROOT
BRANCH   1  18
HETATM   18  N   UNL     1      44.224 -10.614  10.890  1.00  0.00    -0.336 N 
HETATM   19  C   UNL     1      43.291 -10.791  11.861  1.00  0.00     0.316 C 
HETATM   20  N   UNL     1      42.120 -10.114  11.708  1.00  0.00    -0.339 N 
HETATM   21  O   UNL     1      43.568 -11.486  12.831  1.00  0.00    -0.247 OA
HETATM   22  H   UNL     1      41.836  -9.912  10.763  1.00  0.00     0.164 HD
HETATM   23  H   UNL     1      45.070 -11.136  11.091  1.00  0.00     0.164 HD
BRANCH  20  24
HETATM   24  C   UNL     1      41.056 -10.075  12.704  1.00  0.00     0.078 C 
HETATM   25  C   UNL     1      39.665 -10.022  12.071  1.00  0.00     0.032 C 
HETATM   26  C   UNL     1      41.256  -8.958  13.722  1.00  0.00     0.032 C 
ENDBRANCH  20  24
ENDBRANCH   1  18
BRANCH  12  27
HETATM   27  C   UNL     1      42.994 -15.288   4.224  1.00  0.00     0.009 A 
HETATM   28  C   UNL     1      42.996 -15.489   2.822  1.00  0.00     0.079 A 
HETATM   29  C   UNL     1      43.240 -16.766   2.300  1.00  0.00     0.039 A 
HETATM   30  C   UNL     1      43.482 -17.846   3.152  1.00  0.00     0.026 A 
HETATM   31  C   UNL     1      43.484 -17.655   4.529  1.00  0.00     0.035 A 
HETATM   32 CL   UNL     1      43.778 -18.987   5.576  1.00  0.00    -0.084 Cl
HETATM   33  C   UNL     1      43.245 -16.391   5.064  1.00  0.00     0.039 A 
BRANCH  28  34
HETATM   34  O   UNL     1      42.725 -14.385   2.052  1.00  0.00    -0.355 OA
HETATM   35  C   UNL     1      41.565 -14.415   1.231  1.00  0.00     0.210 C 
ENDBRANCH  28  34
ENDBRANCH  12  27
TORSDOF 4
ENDMDL
MODEL 2
REMARK VINA RESULT:      -8.7      2.064      2.831
REMARK  4 active torsions:
REMARK  status: ('A' for Active; 'I' for Inactive)
REMARK    1  A    between atoms: C_2  and  N_3 
REMARK       I    between atoms: N_3  and  C_4 
REMARK       I    between atoms: C_4  and  N_5 
REMARK    2  A    between atoms: N_5  and  C_6 
REMARK    3  A    between atoms: C_17  and  C_18 
REMARK    4  A    between atoms: C_19  and  O_20 
ROOT
HETATM    1  C   UNL     1      42.479  -9.307  10.908  1.00  0.00     0.120 C 
HETATM    2  C   UNL     1      42.478  -9.777   9.438  1.00  0.00     0.202 C 
HETATM    3  N   UNL     1      43.844 -10.202   9.187  1.00  0.00    -0.332 N 
HETATM    4  C   UNL     1      44.257 -10.952   8.120  1.00  0.00     0.257 C 
HETATM    5  O   UNL     1      45.407 -11.366   8.008  1.00  0.00    -0.267 OA
HETATM    6  C   UNL     1      43.263 -11.280   7.070  1.00  0.00     0.059 A 
HETATM    7  C   UNL     1      42.331 -10.359   6.563  1.00  0.00     0.050 A 
HETATM    8  N   UNL     1      42.069  -9.080   7.097  1.00  0.00    -0.324 N 
HETATM    9  C   UNL     1      42.141  -8.690   8.417  1.00  0.00     0.247 C 
HETATM   10  O   UNL     1      41.817  -7.544   8.725  1.00  0.00    -0.271 OA
HETATM   11  C   UNL     1      43.387 -12.553   6.489  1.00  0.00     0.031 A 
HETATM   12  C   UNL     1      42.592 -12.941   5.402  1.00  0.00    -0.022 A 
HETATM   13  C   UNL     1      41.712 -11.992   4.866  1.00  0.00     0.014 A 
HETATM   14  C   UNL     1      41.593 -10.716   5.428  1.00  0.00     0.031 A 
HETATM   15  C   UNL     1      44.759  -9.658  10.166  1.00  0.00     0.129 C 
HETATM   16  C   UNL     1      43.918  -9.505  11.416  1.00  0.00     0.048 C 
HETATM   17  H   UNL     1      41.600  -8.398   6.512  1.00  0.00     0.169 HD
ENDROOT
BRANCH   1  18
HETATM   18  N   UNL     1      41.511 -10.001  11.767  1.00  0.00    -0.336 N 
HETATM   19  C   UNL     1      40.844  -9.601  12.881  1.00  0.00     0.316 C 
HETATM   20  N   UNL     1      41.056  -8.319  13.287  1.00  0.00    -0.339 N 
HETATM   21  O   UNL     1      40.151 -10.413  13.482  1.00  0.00    -0.247 OA
HETATM   22  H   UNL     1      41.290  -7.652  12.570  1.00  0.00     0.164 HD
HETATM   23  H   UNL     1      41.313 -10.971  11.547  1.00  0.00     0.164 HD
BRANCH  20  24
HETATM   24  C   UNL     1      40.534  -7.751  14.525  1.00  0.00     0.078 C 
HETATM   25  C   UNL     1      39.844  -6.405  14.304  1.00  0.00     0.032 C 
HETATM   26  C   UNL     1      41.594  -7.670  15.617  1.00  0.00     0.032 C 
ENDBRANCH  20  24
ENDBRANCH   1  18
BRANCH  12  27
HETATM   27  C   UNL     1      42.696 -14.306   4.849  1.00  0.00     0.009 A 
HETATM   28  C   UNL     1      42.570 -15.459   5.662  1.00  0.00     0.079 A 
HETATM   29  C   UNL     1      42.716 -16.732   5.095  1.00  0.00     0.039 A 
HETATM   30  C   UNL     1      42.983 -16.874   3.730  1.00  0.00     0.026 A 
HETATM   31  C   UNL     1      43.103 -15.746   2.927  1.00  0.00     0.035 A 
HETATM   32 CL   UNL     1      43.436 -15.924   1.250  1.00  0.00    -0.084 Cl
HETATM   33  C   UNL     1      42.961 -14.474   3.476  1.00  0.00     0.039 A 
BRANCH  28  34
HETATM   34  O   UNL     1      42.333 -15.238   6.996  1.00  0.00    -0.355 OA
HETATM   35  C   UNL     1      43.105 -15.969   7.940  1.00  0.00     0.210 C 
ENDBRANCH  28  34
ENDBRANCH  12  27
TORSDOF 4
ENDMDL
MODEL 3
REMARK VINA RESULT:      -8.7      5.897      8.980
REMARK  4 active torsions:
REMARK  status: ('A' for Active; 'I' for Inactive)
REMARK    1  A    between atoms: C_2  and  N_3 
REMARK       I    between atoms: N_3  and  C_4 
REMARK       I    between atoms: C_4  and  N_5 
REMARK    2  A    between atoms: N_5  and  C_6 
REMARK    3  A    between atoms: C_17  and  C_18 
REMARK    4  A    between atoms: C_19  and  O_20 
ROOT
HETATM    1  C   UNL     1      40.470 -10.580  -0.563  1.00  0.00     0.120 C 
HETATM    2  C   UNL     1      40.407 -11.684   0.513  1.00  0.00     0.202 C 
HETATM    3  N   UNL     1      40.000 -12.877  -0.207  1.00  0.00    -0.332 N 
HETATM    4  C   UNL     1      40.082 -14.157   0.269  1.00  0.00     0.257 C 
HETATM    5  O   UNL     1      39.816 -15.138  -0.419  1.00  0.00    -0.267 OA
HETATM    6  C   UNL     1      40.522 -14.353   1.671  1.00  0.00     0.059 A 
HETATM    7  C   UNL     1      40.080 -13.564   2.746  1.00  0.00     0.050 A 
HETATM    8  N   UNL     1      39.331 -12.373   2.635  1.00  0.00    -0.324 N 
HETATM    9  C   UNL     1      39.379 -11.443   1.619  1.00  0.00     0.247 C 
HETATM   10  O   UNL     1      38.700 -10.421   1.707  1.00  0.00    -0.271 OA
HETATM   11  C   UNL     1      41.321 -15.485   1.908  1.00  0.00     0.031 A 
HETATM   12  C   UNL     1      41.699 -15.855   3.205  1.00  0.00    -0.022 A 
HETATM   13  C   UNL     1      41.200 -15.096   4.272  1.00  0.00     0.014 A 
HETATM   14  C   UNL     1      40.391 -13.977   4.048  1.00  0.00     0.031 A 
HETATM   15  C   UNL     1      39.402 -12.551  -1.482  1.00  0.00     0.129 C 
HETATM   16  C   UNL     1      40.074 -11.255  -1.888  1.00  0.00     0.048 C 
HETATM   17  H   UNL     1      38.830 -12.039   3.450  1.00  0.00     0.169 HD
ENDROOT
BRANCH   1  18
HETATM   18  N   UNL     1      41.776  -9.916  -0.674  1.00  0.00    -0.336 N 
HETATM   19  C   UNL     1      42.150  -8.757  -1.277  1.00  0.00     0.316 C 
HETATM   20  N   UNL     1      41.159  -8.032  -1.865  1.00  0.00    -0.339 N 
HETATM   21  O   UNL     1      43.339  -8.463  -1.312  1.00  0.00    -0.247 OA
HETATM   22  H   UNL     1      40.238  -8.121  -1.467  1.00  0.00     0.164 HD
HETATM   23  H   UNL     1      42.574 -10.402  -0.282  1.00  0.00     0.164 HD
BRANCH  20  24
HETATM   24  C   UNL     1      41.381  -6.834  -2.667  1.00  0.00     0.078 C 
HETATM   25  C   UNL     1      40.202  -5.864  -2.606  1.00  0.00     0.032 C 
HETATM   26  C   UNL     1      41.768  -7.164  -4.104  1.00  0.00     0.032 C 
ENDBRANCH  20  24
ENDBRANCH   1  18
BRANCH  12  27
HETATM   27  C   UNL     1      42.592 -17.011   3.423  1.00  0.00     0.009 A 
HETATM   28  C   UNL     1      43.475 -17.083   4.527  1.00  0.00     0.079 A 
HETATM   29  C   UNL     1      44.330 -18.184   4.666  1.00  0.00     0.039 A 
HETATM   30  C   UNL     1      44.317 -19.216   3.724  1.00  0.00     0.026 A 
HETATM   31  C   UNL     1      43.449 -19.152   2.640  1.00  0.00     0.035 A 
HETATM   32 CL   UNL     1      43.439 -20.420   1.479  1.00  0.00    -0.084 Cl
HETATM   33  C   UNL     1      42.593 -18.064   2.488  1.00  0.00     0.039 A 
BRANCH  28  34
HETATM   34  O   UNL     1      43.448 -16.020   5.396  1.00  0.00    -0.355 OA
HETATM   35  C   UNL     1      44.380 -16.013   6.469  1.00  0.00     0.210 C 
ENDBRANCH  28  34
ENDBRANCH  12  27
TORSDOF 4
ENDMDL
MODEL 4
REMARK VINA RESULT:      -8.7      3.698      9.342
REMARK  4 active torsions:
REMARK  status: ('A' for Active; 'I' for Inactive)
REMARK    1  A    between atoms: C_2  and  N_3 
REMARK       I    between atoms: N_3  and  C_4 
REMARK       I    between atoms: C_4  and  N_5 
REMARK    2  A    between atoms: N_5  and  C_6 
REMARK    3  A    between atoms: C_17  and  C_18 
REMARK    4  A    between atoms: C_19  and  O_20 
ROOT
HETATM    1  C   UNL     1      42.653 -12.563   6.021  1.00  0.00     0.120 C 
HETATM    2  C   UNL     1      43.134 -11.589   7.118  1.00  0.00     0.202 C 
HETATM    3  N   UNL     1      42.597 -10.299   6.726  1.00  0.00    -0.332 N 
HETATM    4  C   UNL     1      42.521  -9.194   7.530  1.00  0.00     0.257 C 
HETATM    5  O   UNL     1      41.968  -8.156   7.178  1.00  0.00    -0.267 OA
HETATM    6  C   UNL     1      43.127  -9.271   8.881  1.00  0.00     0.059 A 
HETATM    7  C   UNL     1      44.374  -9.863   9.145  1.00  0.00     0.050 A 
HETATM    8  N   UNL     1      45.127 -10.630   8.231  1.00  0.00    -0.324 N 
HETATM    9  C   UNL     1      44.652 -11.442   7.225  1.00  0.00     0.247 C 
HETATM   10  O   UNL     1      45.448 -12.095   6.551  1.00  0.00    -0.271 OA
HETATM   11  C   UNL     1      42.441  -8.586   9.898  1.00  0.00     0.031 A 
HETATM   12  C   UNL     1      42.970  -8.474  11.190  1.00  0.00    -0.022 A 
HETATM   13  C   UNL     1      44.242  -9.014  11.424  1.00  0.00     0.014 A 
HETATM   14  C   UNL     1      44.940  -9.685  10.413  1.00  0.00     0.031 A 
HETATM   15  C   UNL     1      42.220 -10.281   5.331  1.00  0.00     0.129 C 
HETATM   16  C   UNL     1      41.836 -11.715   5.030  1.00  0.00     0.048 C 
HETATM   17  H   UNL     1      46.113 -10.770   8.415  1.00  0.00     0.169 HD
ENDROOT
BRANCH   1  18
HETATM   18  N   UNL     1      41.869 -13.700   6.521  1.00  0.00    -0.336 N 
HETATM   19  C   UNL     1      41.906 -15.024   6.217  1.00  0.00     0.316 C 
HETATM   20  N   UNL     1      42.851 -15.414   5.318  1.00  0.00    -0.339 N 
HETATM   21  O   UNL     1      41.068 -15.769   6.710  1.00  0.00    -0.247 OA
HETATM   22  H   UNL     1      43.693 -14.862   5.281  1.00  0.00     0.164 HD
HETATM   23  H   UNL     1      41.126 -13.493   7.178  1.00  0.00     0.164 HD
BRANCH  20  24
HETATM   24  C   UNL     1      42.961 -16.762   4.773  1.00  0.00     0.078 C 
HETATM   25  C   UNL     1      44.235 -17.474   5.229  1.00  0.00     0.032 C 
HETATM   26  C   UNL     1      42.813 -16.787   3.256  1.00  0.00     0.032 C 
ENDBRANCH  20  24
ENDBRANCH   1  18
BRANCH  12  27
HETATM   27  C   UNL     1      42.201  -7.803  12.258  1.00  0.00     0.009 A 
HETATM   28  C   UNL     1      41.304  -8.508  13.096  1.00  0.00     0.079 A 
HETATM   29  C   UNL     1      40.569  -7.818  14.068  1.00  0.00     0.039 A 
HETATM   30  C   UNL     1      40.714  -6.436  14.220  1.00  0.00     0.026 A 
HETATM   31  C   UNL     1      41.596  -5.740  13.402  1.00  0.00     0.035 A 
HETATM   32 CL   UNL     1      41.770  -4.039  13.586  1.00  0.00    -0.084 Cl
HETATM   33  C   UNL     1      42.335  -6.412  12.431  1.00  0.00     0.039 A 
BRANCH  28  34
HETATM   34  O   UNL     1      41.197  -9.858  12.871  1.00  0.00    -0.355 OA
HETATM   35  C   UNL     1      39.922 -10.463  13.042  1.00  0.00     0.210 C 
ENDBRANCH  28  34
ENDBRANCH  12  27
TORSDOF 4
ENDMDL
MODEL 5
REMARK VINA RESULT:      -8.6      1.611      2.279
REMARK  4 active torsions:
REMARK  status: ('A' for Active; 'I' for Inactive)
REMARK    1  A    between atoms: C_2  and  N_3 
REMARK       I    between atoms: N_3  and  C_4 
REMARK       I    between atoms: C_4  and  N_5 
REMARK    2  A    between atoms: N_5  and  C_6 
REMARK    3  A    between atoms: C_17  and  C_18 
REMARK    4  A    between atoms: C_19  and  O_20 
ROOT
HETATM    1  C   UNL     1      44.101  -9.308   9.631  1.00  0.00     0.120 C 
HETATM    2  C   UNL     1      43.605 -10.176   8.456  1.00  0.00     0.202 C 
HETATM    3  N   UNL     1      44.795 -10.438   7.665  1.00  0.00    -0.332 N 
HETATM    4  C   UNL     1      44.904 -11.391   6.689  1.00  0.00     0.257 C 
HETATM    5  O   UNL     1      45.963 -11.636   6.119  1.00  0.00    -0.267 OA
HETATM    6  C   UNL     1      43.689 -12.157   6.323  1.00  0.00     0.059 A 
HETATM    7  C   UNL     1      42.418 -11.578   6.164  1.00  0.00     0.050 A 
HETATM    8  N   UNL     1      42.071 -10.256   6.513  1.00  0.00    -0.324 N 
HETATM    9  C   UNL     1      42.587  -9.496   7.541  1.00  0.00     0.247 C 
HETATM   10  O   UNL     1      42.126  -8.374   7.749  1.00  0.00    -0.271 OA
HETATM   11  C   UNL     1      43.894 -13.509   5.999  1.00  0.00     0.031 A 
HETATM   12  C   UNL     1      42.852 -14.313   5.516  1.00  0.00    -0.022 A 
HETATM   13  C   UNL     1      41.607 -13.707   5.303  1.00  0.00     0.014 A 
HETATM   14  C   UNL     1      41.396 -12.357   5.608  1.00  0.00     0.031 A 
HETATM   15  C   UNL     1      45.852  -9.501   7.968  1.00  0.00     0.129 C 
HETATM   16  C   UNL     1      45.614  -9.126   9.416  1.00  0.00     0.048 C 
HETATM   17  H   UNL     1      41.234  -9.854   6.110  1.00  0.00     0.169 HD
ENDROOT
BRANCH   1  18
HETATM   18  N   UNL     1      43.816  -9.866  10.960  1.00  0.00    -0.336 N 
HETATM   19  C   UNL     1      42.645 -10.085  11.614  1.00  0.00     0.316 C 
HETATM   20  N   UNL     1      41.505  -9.778  10.936  1.00  0.00    -0.339 N 
HETATM   21  O   UNL     1      42.678 -10.479  12.773  1.00  0.00    -0.247 OA
HETATM   22  H   UNL     1      41.545  -9.848   9.932  1.00  0.00     0.164 HD
HETATM   23  H   UNL     1      44.613 -10.100  11.541  1.00  0.00     0.164 HD
BRANCH  20  24
HETATM   24  C   UNL     1      40.167  -9.822  11.514  1.00  0.00     0.078 C 
HETATM   25  C   UNL     1      39.094 -10.155  10.478  1.00  0.00     0.032 C 
HETATM   26  C   UNL     1      39.830  -8.553  12.290  1.00  0.00     0.032 C 
ENDBRANCH  20  24
ENDBRANCH   1  18
BRANCH  12  27
HETATM   27  C   UNL     1      43.078 -15.746   5.243  1.00  0.00     0.009 A 
HETATM   28  C   UNL     1      43.279 -16.688   6.282  1.00  0.00     0.079 A 
HETATM   29  C   UNL     1      43.528 -18.030   5.967  1.00  0.00     0.039 A 
HETATM   30  C   UNL     1      43.579 -18.449   4.635  1.00  0.00     0.026 A 
HETATM   31  C   UNL     1      43.378 -17.530   3.612  1.00  0.00     0.035 A 
HETATM   32 CL   UNL     1      43.445 -18.047   1.974  1.00  0.00    -0.084 Cl
HETATM   33  C   UNL     1      43.128 -16.192   3.908  1.00  0.00     0.039 A 
BRANCH  28  34
HETATM   34  O   UNL     1      43.240 -16.196   7.563  1.00  0.00    -0.355 OA
HETATM   35  C   UNL     1      44.087 -16.798   8.533  1.00  0.00     0.210 C 
ENDBRANCH  28  34
ENDBRANCH  12  27
TORSDOF 4
ENDMDL
MODEL 6
REMARK VINA RESULT:      -8.3      1.979      2.223
REMARK  4 active torsions:
REMARK  status: ('A' for Active; 'I' for Inactive)
REMARK    1  A    between atoms: C_2  and  N_3 
REMARK       I    between atoms: N_3  and  C_4 
REMARK       I    between atoms: C_4  and  N_5 
REMARK    2  A    between atoms: N_5  and  C_6 
REMARK    3  A    between atoms: C_17  and  C_18 
REMARK    4  A    between atoms: C_19  and  O_20 
ROOT
HETATM    1  C   UNL     1      41.831  -8.768   8.835  1.00  0.00     0.120 C 
HETATM    2  C   UNL     1      41.308  -9.832   7.847  1.00  0.00     0.202 C 
HETATM    3  N   UNL     1      41.696  -9.340   6.538  1.00  0.00    -0.332 N 
HETATM    4  C   UNL     1      41.699 -10.075   5.383  1.00  0.00     0.257 C 
HETATM    5  O   UNL     1      42.130  -9.636   4.321  1.00  0.00    -0.267 OA
HETATM    6  C   UNL     1      41.168 -11.458   5.435  1.00  0.00     0.059 A 
HETATM    7  C   UNL     1      40.000 -11.821   6.126  1.00  0.00     0.050 A 
HETATM    8  N   UNL     1      39.284 -10.993   7.017  1.00  0.00    -0.324 N 
HETATM    9  C   UNL     1      39.790 -10.010   7.840  1.00  0.00     0.247 C 
HETATM   10  O   UNL     1      39.031  -9.418   8.606  1.00  0.00    -0.271 OA
HETATM   11  C   UNL     1      41.830 -12.396   4.625  1.00  0.00     0.031 A 
HETATM   12  C   UNL     1      41.354 -13.707   4.485  1.00  0.00    -0.022 A 
HETATM   13  C   UNL     1      40.155 -14.037   5.129  1.00  0.00     0.014 A 
HETATM   14  C   UNL     1      39.479 -13.105   5.925  1.00  0.00     0.031 A 
HETATM   15  C   UNL     1      42.003  -7.928   6.570  1.00  0.00     0.129 C 
HETATM   16  C   UNL     1      42.512  -7.689   7.976  1.00  0.00     0.048 C 
HETATM   17  H   UNL     1      38.326 -11.236   7.239  1.00  0.00     0.169 HD
ENDROOT
BRANCH   1  18
HETATM   18  N   UNL     1      42.746  -9.290   9.859  1.00  0.00    -0.336 N 
HETATM   19  C   UNL     1      42.518  -9.799  11.098  1.00  0.00     0.316 C 
HETATM   20  N   UNL     1      41.216  -9.894  11.484  1.00  0.00    -0.339 N 
HETATM   21  O   UNL     1      43.474 -10.082  11.809  1.00  0.00    -0.247 OA
HETATM   22  H   UNL     1      40.536 -10.021  10.751  1.00  0.00     0.164 HD
HETATM   23  H   UNL     1      43.738  -9.234   9.660  1.00  0.00     0.164 HD
BRANCH  20  24
HETATM   24  C   UNL     1      40.780 -10.292  12.818  1.00  0.00     0.078 C 
HETATM   25  C   UNL     1      39.358 -10.854  12.824  1.00  0.00     0.032 C 
HETATM   26  C   UNL     1      40.950  -9.174  13.841  1.00  0.00     0.032 C 
ENDBRANCH  20  24
ENDBRANCH   1  18
BRANCH  12  27
HETATM   27  C   UNL     1      42.102 -14.692   3.680  1.00  0.00     0.009 A 
HETATM   28  C   UNL     1      42.137 -14.638   2.265  1.00  0.00     0.079 A 
HETATM   29  C   UNL     1      42.829 -15.621   1.546  1.00  0.00     0.039 A 
HETATM   30  C   UNL     1      43.488 -16.657   2.214  1.00  0.00     0.026 A 
HETATM   31  C   UNL     1      43.460 -16.713   3.602  1.00  0.00     0.035 A 
HETATM   32 CL   UNL     1      44.267 -17.991   4.422  1.00  0.00    -0.084 Cl
HETATM   33  C   UNL     1      42.777 -15.743   4.332  1.00  0.00     0.039 A 
BRANCH  28  34
HETATM   34  O   UNL     1      41.446 -13.606   1.681  1.00  0.00    -0.355 OA
HETATM   35  C   UNL     1      40.294 -13.927   0.913  1.00  0.00     0.210 C 
ENDBRANCH  28  34
ENDBRANCH  12  27
TORSDOF 4
ENDMDL
MODEL 7
REMARK VINA RESULT:      -8.0      2.653      3.801
REMARK  4 active torsions:
REMARK  status: ('A' for Active; 'I' for Inactive)
REMARK    1  A    between atoms: C_2  and  N_3 
REMARK       I    between atoms: N_3  and  C_4 
REMARK       I    between atoms: C_4  and  N_5 
REMARK    2  A    between atoms: N_5  and  C_6 
REMARK    3  A    between atoms: C_17  and  C_18 
REMARK    4  A    between atoms: C_19  and  O_20 
ROOT
HETATM    1  C   UNL     1      41.627  -8.222   7.357  1.00  0.00     0.120 C 
HETATM    2  C   UNL     1      41.166  -9.595   6.826  1.00  0.00     0.202 C 
HETATM    3  N   UNL     1      41.069  -9.420   5.389  1.00  0.00    -0.332 N 
HETATM    4  C   UNL     1      40.970 -10.431   4.472  1.00  0.00     0.257 C 
HETATM    5  O   UNL     1      40.990 -10.231   3.261  1.00  0.00    -0.267 OA
HETATM    6  C   UNL     1      40.845 -11.820   4.975  1.00  0.00     0.059 A 
HETATM    7  C   UNL     1      40.024 -12.189   6.054  1.00  0.00     0.050 A 
HETATM    8  N   UNL     1      39.368 -11.296   6.927  1.00  0.00    -0.324 N 
HETATM    9  C   UNL     1      39.794 -10.048   7.327  1.00  0.00     0.247 C 
HETATM   10  O   UNL     1      39.127  -9.419   8.148  1.00  0.00    -0.271 OA
HETATM   11  C   UNL     1      41.500 -12.805   4.217  1.00  0.00     0.031 A 
HETATM   12  C   UNL     1      41.360 -14.168   4.510  1.00  0.00    -0.022 A 
HETATM   13  C   UNL     1      40.489 -14.525   5.548  1.00  0.00     0.014 A 
HETATM   14  C   UNL     1      39.820 -13.552   6.299  1.00  0.00     0.031 A 
HETATM   15  C   UNL     1      40.998  -8.023   5.026  1.00  0.00     0.129 C 
HETATM   16  C   UNL     1      41.767  -7.314   6.122  1.00  0.00     0.048 C 
HETATM   17  H   UNL     1      38.594 -11.643   7.481  1.00  0.00     0.169 HD
ENDROOT
BRANCH   1  18
HETATM   18  N   UNL     1      42.874  -8.260   8.133  1.00  0.00    -0.336 N 
HETATM   19  C   UNL     1      43.864  -9.187   8.204  1.00  0.00     0.316 C 
HETATM   20  N   UNL     1      43.733 -10.277   7.398  1.00  0.00    -0.339 N 
HETATM   21  O   UNL     1      44.770  -9.028   9.013  1.00  0.00    -0.247 OA
HETATM   22  H   UNL     1      43.224 -10.144   6.539  1.00  0.00     0.164 HD
HETATM   23  H   UNL     1      43.039  -7.495   8.777  1.00  0.00     0.164 HD
BRANCH  20  24
HETATM   24  C   UNL     1      44.622 -11.433   7.427  1.00  0.00     0.078 C 
HETATM   25  C   UNL     1      45.866 -11.235   6.562  1.00  0.00     0.032 C 
HETATM   26  C   UNL     1      43.896 -12.730   7.085  1.00  0.00     0.032 C 
ENDBRANCH  20  24
ENDBRANCH   1  18
BRANCH  12  27
HETATM   27  C   UNL     1      42.108 -15.181   3.739  1.00  0.00     0.009 A 
HETATM   28  C   UNL     1      42.045 -15.250   2.326  1.00  0.00     0.079 A 
HETATM   29  C   UNL     1      42.743 -16.255   1.645  1.00  0.00     0.039 A 
HETATM   30  C   UNL     1      43.505 -17.191   2.348  1.00  0.00     0.026 A 
HETATM   31  C   UNL     1      43.574 -17.126   3.735  1.00  0.00     0.035 A 
HETATM   32 CL   UNL     1      44.508 -18.282   4.599  1.00  0.00    -0.084 Cl
HETATM   33  C   UNL     1      42.886 -16.132   4.427  1.00  0.00     0.039 A 
BRANCH  28  34
HETATM   34  O   UNL     1      41.256 -14.311   1.708  1.00  0.00    -0.355 OA
HETATM   35  C   UNL     1      40.216 -14.773   0.855  1.00  0.00     0.210 C 
ENDBRANCH  28  34
ENDBRANCH  12  27
TORSDOF 4
ENDMDL
MODEL 8
REMARK VINA RESULT:      -8.0      3.227      5.947
REMARK  4 active torsions:
REMARK  status: ('A' for Active; 'I' for Inactive)
REMARK    1  A    between atoms: C_2  and  N_3 
REMARK       I    between atoms: N_3  and  C_4 
REMARK       I    between atoms: C_4  and  N_5 
REMARK    2  A    between atoms: N_5  and  C_6 
REMARK    3  A    between atoms: C_17  and  C_18 
REMARK    4  A    between atoms: C_19  and  O_20 
ROOT
HETATM    1  C   UNL     1      40.471  -9.499   5.222  1.00  0.00     0.120 C 
HETATM    2  C   UNL     1      41.247 -10.773   5.616  1.00  0.00     0.202 C 
HETATM    3  N   UNL     1      40.218 -11.752   5.915  1.00  0.00    -0.332 N 
HETATM    4  C   UNL     1      40.419 -13.101   6.035  1.00  0.00     0.257 C 
HETATM    5  O   UNL     1      39.496 -13.895   6.192  1.00  0.00    -0.267 OA
HETATM    6  C   UNL     1      41.809 -13.609   5.962  1.00  0.00     0.059 A 
HETATM    7  C   UNL     1      42.900 -12.993   6.597  1.00  0.00     0.050 A 
HETATM    8  N   UNL     1      42.880 -11.726   7.217  1.00  0.00    -0.324 N 
HETATM    9  C   UNL     1      42.121 -10.631   6.863  1.00  0.00     0.247 C 
HETATM   10  O   UNL     1      42.269  -9.573   7.474  1.00  0.00    -0.271 OA
HETATM   11  C   UNL     1      41.973 -14.849   5.320  1.00  0.00     0.031 A 
HETATM   12  C   UNL     1      43.214 -15.500   5.292  1.00  0.00    -0.022 A 
HETATM   13  C   UNL     1      44.278 -14.906   5.983  1.00  0.00     0.014 A 
HETATM   14  C   UNL     1      44.121 -13.679   6.638  1.00  0.00     0.031 A 
HETATM   15  C   UNL     1      38.941 -11.124   6.164  1.00  0.00     0.129 C 
HETATM   16  C   UNL     1      38.979  -9.860   5.330  1.00  0.00     0.048 C 
HETATM   17  H   UNL     1      43.614 -11.497   7.876  1.00  0.00     0.169 HD
ENDROOT
BRANCH   1  18
HETATM   18  N   UNL     1      40.797  -8.979   3.887  1.00  0.00    -0.336 N 
HETATM   19  C   UNL     1      40.587  -9.489   2.645  1.00  0.00     0.316 C 
HETATM   20  N   UNL     1      39.926 -10.677   2.581  1.00  0.00    -0.339 N 
HETATM   21  O   UNL     1      41.047  -8.898   1.675  1.00  0.00    -0.247 OA
HETATM   22  H   UNL     1      39.275 -10.872   3.324  1.00  0.00     0.164 HD
HETATM   23  H   UNL     1      41.312  -8.107   3.846  1.00  0.00     0.164 HD
BRANCH  20  24
HETATM   24  C   UNL     1      39.722 -11.440   1.354  1.00  0.00     0.078 C 
HETATM   25  C   UNL     1      38.252 -11.787   1.120  1.00  0.00     0.032 C 
HETATM   26  C   UNL     1      40.612 -12.677   1.287  1.00  0.00     0.032 C 
ENDBRANCH  20  24
ENDBRANCH   1  18
BRANCH  12  27
HETATM   27  C   UNL     1      43.375 -16.770   4.558  1.00  0.00     0.009 A 
HETATM   28  C   UNL     1      43.080 -16.885   3.178  1.00  0.00     0.079 A 
HETATM   29  C   UNL     1      43.212 -18.123   2.537  1.00  0.00     0.039 A 
HETATM   30  C   UNL     1      43.636 -19.249   3.248  1.00  0.00     0.026 A 
HETATM   31  C   UNL     1      43.931 -19.141   4.602  1.00  0.00     0.035 A 
HETATM   32 CL   UNL     1      44.447 -20.529   5.477  1.00  0.00    -0.084 Cl
HETATM   33  C   UNL     1      43.805 -17.917   5.254  1.00  0.00     0.039 A 
BRANCH  28  34
HETATM   34  O   UNL     1      42.645 -15.742   2.553  1.00  0.00    -0.355 OA
HETATM   35  C   UNL     1      43.491 -15.156   1.573  1.00  0.00     0.210 C 
ENDBRANCH  28  34
ENDBRANCH  12  27
TORSDOF 4
ENDMDL
MODEL 9
REMARK VINA RESULT:      -7.7      4.344      8.890
REMARK  4 active torsions:
REMARK  status: ('A' for Active; 'I' for Inactive)
REMARK    1  A    between atoms: C_2  and  N_3 
REMARK       I    between atoms: N_3  and  C_4 
REMARK       I    between atoms: C_4  and  N_5 
REMARK    2  A    between atoms: N_5  and  C_6 
REMARK    3  A    between atoms: C_17  and  C_18 
REMARK    4  A    between atoms: C_19  and  O_20 
ROOT
HETATM    1  C   UNL     1      40.847 -11.933   5.505  1.00  0.00     0.120 C 
HETATM    2  C   UNL     1      41.124 -10.610   6.250  1.00  0.00     0.202 C 
HETATM    3  N   UNL     1      39.904 -10.342   6.990  1.00  0.00    -0.332 N 
HETATM    4  C   UNL     1      39.777  -9.437   8.008  1.00  0.00     0.257 C 
HETATM    5  O   UNL     1      38.747  -9.320   8.665  1.00  0.00    -0.267 OA
HETATM    6  C   UNL     1      40.941  -8.576   8.326  1.00  0.00     0.059 A 
HETATM    7  C   UNL     1      41.746  -7.960   7.353  1.00  0.00     0.050 A 
HETATM    8  N   UNL     1      41.698  -8.218   5.966  1.00  0.00    -0.324 N 
HETATM    9  C   UNL     1      41.385  -9.407   5.344  1.00  0.00     0.247 C 
HETATM   10  O   UNL     1      41.451  -9.479   4.117  1.00  0.00    -0.271 OA
HETATM   11  C   UNL     1      41.130  -8.284   9.687  1.00  0.00     0.031 A 
HETATM   12  C   UNL     1      42.116  -7.382  10.112  1.00  0.00    -0.022 A 
HETATM   13  C   UNL     1      42.869  -6.728   9.128  1.00  0.00     0.014 A 
HETATM   14  C   UNL     1      42.678  -7.001   7.769  1.00  0.00     0.031 A 
HETATM   15  C   UNL     1      38.786 -11.092   6.463  1.00  0.00     0.129 C 
HETATM   16  C   UNL     1      39.415 -12.346   5.892  1.00  0.00     0.048 C 
HETATM   17  H   UNL     1      42.105  -7.539   5.334  1.00  0.00     0.169 HD
ENDROOT
BRANCH   1  18
HETATM   18  N   UNL     1      41.807 -13.006   5.798  1.00  0.00    -0.336 N 
HETATM   19  C   UNL     1      43.004 -12.995   6.441  1.00  0.00     0.316 C 
HETATM   20  N   UNL     1      43.404 -11.799   6.955  1.00  0.00    -0.339 N 
HETATM   21  O   UNL     1      43.671 -14.022   6.472  1.00  0.00    -0.247 OA
HETATM   22  H   UNL     1      42.677 -11.159   7.228  1.00  0.00     0.164 HD
HETATM   23  H   UNL     1      41.595 -13.926   5.429  1.00  0.00     0.164 HD
BRANCH  20  24
HETATM   24  C   UNL     1      44.709 -11.561   7.563  1.00  0.00     0.078 C 
HETATM   25  C   UNL     1      44.662 -10.477   8.639  1.00  0.00     0.032 C 
HETATM   26  C   UNL     1      45.789 -11.280   6.524  1.00  0.00     0.032 C 
ENDBRANCH  20  24
ENDBRANCH   1  18
BRANCH  12  27
HETATM   27  C   UNL     1      42.338  -7.140  11.551  1.00  0.00     0.009 A 
HETATM   28  C   UNL     1      43.097  -8.024  12.356  1.00  0.00     0.079 A 
HETATM   29  C   UNL     1      43.244  -7.769  13.725  1.00  0.00     0.039 A 
HETATM   30  C   UNL     1      42.648  -6.646  14.306  1.00  0.00     0.026 A 
HETATM   31  C   UNL     1      41.906  -5.773  13.520  1.00  0.00     0.035 A 
HETATM   32 CL   UNL     1      41.169  -4.394  14.237  1.00  0.00    -0.084 Cl
HETATM   33  C   UNL     1      41.750  -6.012  12.157  1.00  0.00     0.039 A 
BRANCH  28  34
HETATM   34  O   UNL     1      43.629  -9.118  11.719  1.00  0.00    -0.355 OA
HETATM   35  C   UNL     1      43.119 -10.400  12.059  1.00  0.00     0.210 C 
ENDBRANCH  28  34
ENDBRANCH  12  27
TORSDOF 4
ENDMDL
MODEL 10
REMARK VINA RESULT:      -7.6      4.104      9.401
REMARK  4 active torsions:
REMARK  status: ('A' for Active; 'I' for Inactive)
REMARK    1  A    between atoms: C_2  and  N_3 
REMARK       I    between atoms: N_3  and  C_4 
REMARK       I    between atoms: C_4  and  N_5 
REMARK    2  A    between atoms: N_5  and  C_6 
REMARK    3  A    between atoms: C_17  and  C_18 
REMARK    4  A    between atoms: C_19  and  O_20 
ROOT
HETATM    1  C   UNL     1      41.563 -13.705   1.499  1.00  0.00     0.120 C 
HETATM    2  C   UNL     1      41.196 -13.145   2.889  1.00  0.00     0.202 C 
HETATM    3  N   UNL     1      42.275 -13.579   3.758  1.00  0.00    -0.332 N 
HETATM    4  C   UNL     1      42.530 -13.089   5.010  1.00  0.00     0.257 C 
HETATM    5  O   UNL     1      43.515 -13.422   5.662  1.00  0.00    -0.267 OA
HETATM    6  C   UNL     1      41.577 -12.110   5.585  1.00  0.00     0.059 A 
HETATM    7  C   UNL     1      40.180 -12.232   5.490  1.00  0.00     0.050 A 
HETATM    8  N   UNL     1      39.492 -13.166   4.686  1.00  0.00    -0.324 N 
HETATM    9  C   UNL     1      39.890 -13.685   3.474  1.00  0.00     0.247 C 
HETATM   10  O   UNL     1      39.138 -14.448   2.869  1.00  0.00    -0.271 OA
HETATM   11  C   UNL     1      42.145 -11.093   6.370  1.00  0.00     0.031 A 
HETATM   12  C   UNL     1      41.348 -10.179   7.073  1.00  0.00    -0.022 A 
HETATM   13  C   UNL     1      39.959 -10.351   7.020  1.00  0.00     0.014 A 
HETATM   14  C   UNL     1      39.383 -11.370   6.253  1.00  0.00     0.031 A 
HETATM   15  C   UNL     1      43.018 -14.674   3.177  1.00  0.00     0.129 C 
HETATM   16  C   UNL     1      42.893 -14.458   1.683  1.00  0.00     0.048 C 
HETATM   17  H   UNL     1      38.520 -13.360   4.896  1.00  0.00     0.169 HD
ENDROOT
BRANCH   1  18
HETATM   18  N   UNL     1      41.669 -12.688   0.444  1.00  0.00    -0.336 N 
HETATM   19  C   UNL     1      40.942 -12.480  -0.684  1.00  0.00     0.316 C 
HETATM   20  N   UNL     1      39.892 -13.321  -0.893  1.00  0.00    -0.339 N 
HETATM   21  O   UNL     1      41.296 -11.605  -1.466  1.00  0.00    -0.247 OA
HETATM   22  H   UNL     1      39.455 -13.710  -0.073  1.00  0.00     0.164 HD
HETATM   23  H   UNL     1      42.441 -12.034   0.512  1.00  0.00     0.164 HD
BRANCH  20  24
HETATM   24  C   UNL     1      39.079 -13.337  -2.103  1.00  0.00     0.078 C 
HETATM   25  C   UNL     1      37.671 -12.789  -1.868  1.00  0.00     0.032 C 
HETATM   26  C   UNL     1      39.047 -14.711  -2.763  1.00  0.00     0.032 C 
ENDBRANCH  20  24
ENDBRANCH   1  18
BRANCH  12  27
HETATM   27  C   UNL     1      41.968  -9.081   7.840  1.00  0.00     0.009 A 
HETATM   28  C   UNL     1      42.108  -7.776   7.308  1.00  0.00     0.079 A 
HETATM   29  C   UNL     1      42.740  -6.779   8.063  1.00  0.00     0.039 A 
HETATM   30  C   UNL     1      43.234  -7.061   9.339  1.00  0.00     0.026 A 
HETATM   31  C   UNL     1      43.096  -8.339   9.867  1.00  0.00     0.035 A 
HETATM   32 CL   UNL     1      43.709  -8.686  11.436  1.00  0.00    -0.084 Cl
HETATM   33  C   UNL     1      42.470  -9.342   9.130  1.00  0.00     0.039 A 
BRANCH  28  34
HETATM   34  O   UNL     1      41.621  -7.583   6.039  1.00  0.00    -0.355 OA
HETATM   35  C   UNL     1      41.657  -6.266   5.505  1.00  0.00     0.210 C 
ENDBRANCH  28  34
ENDBRANCH  12  27
TORSDOF 4
ENDMDL
