MODEL 1
REMARK VINA RESULT:      -7.4      0.000      0.000
REMARK  4 active torsions:
REMARK  status: ('A' for Active; 'I' for Inactive)
REMARK    1  A    between atoms: C_5  and  C_6 
REMARK       I    between atoms: C_6  and  N_7 
REMARK    2  A    between atoms: N_7  and  N_8 
REMARK       I    between atoms: N_8  and  C_9 
REMARK    3  A    between atoms: C_9  and  C_10 
REMARK    4  A    between atoms: C_13  and  C_14 
ROOT
HETATM    1  N   UNL     1      43.428 -14.832   4.251  1.00  0.00    -0.263 N 
HETATM    2  C   UNL     1      42.534 -14.463   5.234  1.00  0.00     0.270 C 
HETATM    3  O   UNL     1      41.590 -15.174   5.574  1.00  0.00    -0.266 OA
HETATM    4  H   UNL     1      44.327 -14.375   4.104  1.00  0.00     0.190 HD
ENDROOT
BRANCH   2   5
HETATM    5  C   UNL     1      42.780 -13.156   5.899  1.00  0.00     0.033 A 
HETATM    6  C   UNL     1      41.829 -12.133   5.908  1.00  0.00     0.017 A 
HETATM    7  C   UNL     1      42.110 -10.925   6.557  1.00  0.00     0.010 A 
HETATM    8  C   UNL     1      43.333 -10.705   7.229  1.00  0.00    -0.035 A 
HETATM    9  C   UNL     1      44.278 -11.743   7.191  1.00  0.00     0.010 A 
HETATM   10  C   UNL     1      44.000 -12.957   6.550  1.00  0.00     0.017 A 
BRANCH   8  11
HETATM   11  C   UNL     1      43.576  -9.346   7.888  1.00  0.00     0.141 C 
HETATM   12  S   UNL     1      42.300  -8.888   9.116  1.00  0.00    -0.149 SA
HETATM   13  C   UNL     1      42.751 -10.010  10.465  1.00  0.00     0.076 C 
HETATM   14  C   UNL     1      44.131  -9.697  11.019  1.00  0.00     0.020 C 
HETATM   15  C   UNL     1      45.257 -10.009  10.045  1.00  0.00     0.076 C 
HETATM   16  S   UNL     1      45.241  -8.992   8.539  1.00  0.00    -0.149 SA
ENDBRANCH   8  11
ENDBRANCH   2   5
BRANCH   1  17
HETATM   17  N   UNL     1      43.287 -16.103   3.681  1.00  0.00    -0.262 N 
HETATM   18  C   UNL     1      43.974 -17.163   4.231  1.00  0.00     0.286 C 
HETATM   19  O   UNL     1      44.737 -17.013   5.187  1.00  0.00    -0.264 OA
HETATM   20  H   UNL     1      42.580 -16.202   2.957  1.00  0.00     0.190 HD
BRANCH  18  21
HETATM   21  C   UNL     1      43.738 -18.450   3.616  1.00  0.00     0.102 A 
HETATM   22  N   UNL     1      44.058 -19.625   4.265  1.00  0.00    -0.361 N 
HETATM   23  C   UNL     1      43.753 -20.702   3.477  1.00  0.00     0.088 A 
HETATM   24  H   UNL     1      44.465 -19.661   5.192  1.00  0.00     0.165 HD
HETATM   25  C   UNL     1      43.224 -20.227   2.301  1.00  0.00     0.019 A 
HETATM   26  C   UNL     1      43.213 -18.812   2.385  1.00  0.00     0.036 A 
ENDBRANCH  18  21
ENDBRANCH   1  17
TORSDOF 4
ENDMDL
MODEL 2
REMARK VINA RESULT:      -7.2      1.295      1.517
REMARK  4 active torsions:
REMARK  status: ('A' for Active; 'I' for Inactive)
REMARK    1  A    between atoms: C_5  and  C_6 
REMARK       I    between atoms: C_6  and  N_7 
REMARK    2  A    between atoms: N_7  and  N_8 
REMARK       I    between atoms: N_8  and  C_9 
REMARK    3  A    between atoms: C_9  and  C_10 
REMARK    4  A    between atoms: C_13  and  C_14 
ROOT
HETATM    1  N   UNL     1      43.315 -14.470   5.579  1.00  0.00    -0.263 N 
HETATM    2  C   UNL     1      43.144 -13.182   5.114  1.00  0.00     0.270 C 
HETATM    3  O   UNL     1      42.936 -12.927   3.929  1.00  0.00    -0.266 OA
HETATM    4  H   UNL     1      43.269 -14.725   6.564  1.00  0.00     0.190 HD
ENDROOT
BRANCH   2   5
HETATM    5  C   UNL     1      43.193 -12.098   6.129  1.00  0.00     0.033 A 
HETATM    6  C   UNL     1      42.286 -11.037   6.132  1.00  0.00     0.017 A 
HETATM    7  C   UNL     1      42.372 -10.047   7.119  1.00  0.00     0.010 A 
HETATM    8  C   UNL     1      43.349 -10.091   8.138  1.00  0.00    -0.035 A 
HETATM    9  C   UNL     1      44.260 -11.160   8.103  1.00  0.00     0.010 A 
HETATM   10  C   UNL     1      44.173 -12.158   7.123  1.00  0.00     0.017 A 
BRANCH   8  11
HETATM   11  C   UNL     1      43.397  -8.955   9.160  1.00  0.00     0.141 C 
HETATM   12  S   UNL     1      41.766  -8.197   9.492  1.00  0.00    -0.149 SA
HETATM   13  C   UNL     1      41.006  -9.514  10.476  1.00  0.00     0.076 C 
HETATM   14  C   UNL     1      41.744  -9.735  11.787  1.00  0.00     0.020 C 
HETATM   15  C   UNL     1      43.134 -10.326  11.604  1.00  0.00     0.076 C 
HETATM   16  S   UNL     1      44.294  -9.241  10.721  1.00  0.00    -0.149 SA
ENDBRANCH   8  11
ENDBRANCH   2   5
BRANCH   1  17
HETATM   17  N   UNL     1      43.168 -15.521   4.666  1.00  0.00    -0.262 N 
HETATM   18  C   UNL     1      43.894 -16.677   4.853  1.00  0.00     0.286 C 
HETATM   19  O   UNL     1      44.697 -16.793   5.781  1.00  0.00    -0.264 OA
HETATM   20  H   UNL     1      42.431 -15.423   3.973  1.00  0.00     0.190 HD
BRANCH  18  21
HETATM   21  C   UNL     1      43.650 -17.733   3.897  1.00  0.00     0.102 A 
HETATM   22  N   UNL     1      44.169 -18.999   4.077  1.00  0.00    -0.361 N 
HETATM   23  C   UNL     1      43.811 -19.812   3.036  1.00  0.00     0.088 A 
HETATM   24  H   UNL     1      44.737 -19.264   4.873  1.00  0.00     0.165 HD
HETATM   25  C   UNL     1      43.045 -19.072   2.166  1.00  0.00     0.019 A 
HETATM   26  C   UNL     1      42.943 -17.765   2.704  1.00  0.00     0.036 A 
ENDBRANCH  18  21
ENDBRANCH   1  17
TORSDOF 4
ENDMDL
MODEL 3
REMARK VINA RESULT:      -7.2      5.939      8.939
REMARK  4 active torsions:
REMARK  status: ('A' for Active; 'I' for Inactive)
REMARK    1  A    between atoms: C_5  and  C_6 
REMARK       I    between atoms: C_6  and  N_7 
REMARK    2  A    between atoms: N_7  and  N_8 
REMARK       I    between atoms: N_8  and  C_9 
REMARK    3  A    between atoms: C_9  and  C_10 
REMARK    4  A    between atoms: C_13  and  C_14 
ROOT
HETATM    1  N   UNL     1      42.480  -9.401  10.907  1.00  0.00    -0.263 N 
HETATM    2  C   UNL     1      42.771  -9.823  12.188  1.00  0.00     0.270 C 
HETATM    3  O   UNL     1      43.306 -10.905  12.425  1.00  0.00    -0.266 OA
HETATM    4  H   UNL     1      42.246  -8.439  10.670  1.00  0.00     0.190 HD
ENDROOT
BRANCH   2   5
HETATM    5  C   UNL     1      42.431  -8.885  13.290  1.00  0.00     0.033 A 
HETATM    6  C   UNL     1      41.397  -9.138  14.193  1.00  0.00     0.017 A 
HETATM    7  C   UNL     1      41.125  -8.224  15.218  1.00  0.00     0.010 A 
HETATM    8  C   UNL     1      41.883  -7.043  15.386  1.00  0.00    -0.035 A 
HETATM    9  C   UNL     1      42.907  -6.804  14.454  1.00  0.00     0.010 A 
HETATM   10  C   UNL     1      43.188  -7.719  13.431  1.00  0.00     0.017 A 
BRANCH   8  11
HETATM   11  C   UNL     1      41.503  -6.080  16.511  1.00  0.00     0.141 C 
HETATM   12  S   UNL     1      41.482  -4.325  15.999  1.00  0.00    -0.149 SA
HETATM   13  C   UNL     1      39.966  -4.310  15.008  1.00  0.00     0.076 C 
HETATM   14  C   UNL     1      38.739  -4.612  15.851  1.00  0.00     0.020 C 
HETATM   15  C   UNL     1      38.693  -6.045  16.359  1.00  0.00     0.076 C 
HETATM   16  S   UNL     1      40.032  -6.468  17.514  1.00  0.00    -0.149 SA
ENDBRANCH   8  11
ENDBRANCH   2   5
BRANCH   1  17
HETATM   17  N   UNL     1      42.885 -10.214   9.842  1.00  0.00    -0.262 N 
HETATM   18  C   UNL     1      43.999  -9.857   9.113  1.00  0.00     0.286 C 
HETATM   19  O   UNL     1      44.623  -8.821   9.352  1.00  0.00    -0.264 OA
HETATM   20  H   UNL     1      42.403 -11.103   9.738  1.00  0.00     0.190 HD
BRANCH  18  21
HETATM   21  C   UNL     1      44.380 -10.773   8.061  1.00  0.00     0.102 A 
HETATM   22  N   UNL     1      43.638 -11.903   7.790  1.00  0.00    -0.361 N 
HETATM   23  C   UNL     1      44.206 -12.611   6.766  1.00  0.00     0.088 A 
HETATM   24  H   UNL     1      42.797 -12.157   8.296  1.00  0.00     0.165 HD
HETATM   25  C   UNL     1      45.331 -11.935   6.359  1.00  0.00     0.019 A 
HETATM   26  C   UNL     1      45.443 -10.779   7.171  1.00  0.00     0.036 A 
ENDBRANCH  18  21
ENDBRANCH   1  17
TORSDOF 4
ENDMDL
MODEL 4
REMARK VINA RESULT:      -7.0      4.798      9.326
REMARK  4 active torsions:
REMARK  status: ('A' for Active; 'I' for Inactive)
REMARK    1  A    between atoms: C_5  and  C_6 
REMARK       I    between atoms: C_6  and  N_7 
REMARK    2  A    between atoms: N_7  and  N_8 
REMARK       I    between atoms: N_8  and  C_9 
REMARK    3  A    between atoms: C_9  and  C_10 
REMARK    4  A    between atoms: C_13  and  C_14 
ROOT
HETATM    1  N   UNL     1      42.874 -10.746   7.885  1.00  0.00    -0.263 N 
HETATM    2  C   UNL     1      43.903 -11.481   7.332  1.00  0.00     0.270 C 
HETATM    3  O   UNL     1      45.005 -11.588   7.868  1.00  0.00    -0.266 OA
HETATM    4  H   UNL     1      41.904 -10.817   7.583  1.00  0.00     0.190 HD
ENDROOT
BRANCH   2   5
HETATM    5  C   UNL     1      43.610 -12.174   6.050  1.00  0.00     0.033 A 
HETATM    6  C   UNL     1      43.292 -13.532   5.992  1.00  0.00     0.017 A 
HETATM    7  C   UNL     1      43.015 -14.133   4.758  1.00  0.00     0.010 A 
HETATM    8  C   UNL     1      43.028 -13.399   3.551  1.00  0.00    -0.035 A 
HETATM    9  C   UNL     1      43.366 -12.038   3.635  1.00  0.00     0.010 A 
HETATM   10  C   UNL     1      43.637 -11.430   4.868  1.00  0.00     0.017 A 
BRANCH   8  11
HETATM   11  C   UNL     1      42.745 -14.134   2.240  1.00  0.00     0.141 C 
HETATM   12  S   UNL     1      42.604 -15.948   2.432  1.00  0.00    -0.149 SA
HETATM   13  C   UNL     1      40.987 -16.049   3.241  1.00  0.00     0.076 C 
HETATM   14  C   UNL     1      39.874 -15.542   2.339  1.00  0.00     0.020 C 
HETATM   15  C   UNL     1      39.936 -14.044   2.088  1.00  0.00     0.076 C 
HETATM   16  S   UNL     1      41.410 -13.503   1.172  1.00  0.00    -0.149 SA
ENDBRANCH   8  11
ENDBRANCH   2   5
BRANCH   1  17
HETATM   17  N   UNL     1      43.084 -10.169   9.143  1.00  0.00    -0.262 N 
HETATM   18  C   UNL     1      42.120  -9.335   9.666  1.00  0.00     0.286 C 
HETATM   19  O   UNL     1      41.098  -9.054   9.038  1.00  0.00    -0.264 OA
HETATM   20  H   UNL     1      43.890 -10.499   9.667  1.00  0.00     0.190 HD
BRANCH  18  21
HETATM   21  C   UNL     1      42.388  -8.819  10.990  1.00  0.00     0.102 A 
HETATM   22  N   UNL     1      41.366  -8.406  11.819  1.00  0.00    -0.361 N 
HETATM   23  C   UNL     1      41.872  -7.950  13.006  1.00  0.00     0.088 A 
HETATM   24  H   UNL     1      40.386  -8.440  11.563  1.00  0.00     0.165 HD
HETATM   25  C   UNL     1      43.240  -8.069  12.955  1.00  0.00     0.019 A 
HETATM   26  C   UNL     1      43.568  -8.614  11.688  1.00  0.00     0.036 A 
ENDBRANCH  18  21
ENDBRANCH   1  17
TORSDOF 4
ENDMDL
MODEL 5
REMARK VINA RESULT:      -7.0      2.724      4.174
REMARK  4 active torsions:
REMARK  status: ('A' for Active; 'I' for Inactive)
REMARK    1  A    between atoms: C_5  and  C_6 
REMARK       I    between atoms: C_6  and  N_7 
REMARK    2  A    between atoms: N_7  and  N_8 
REMARK       I    between atoms: N_8  and  C_9 
REMARK    3  A    between atoms: C_9  and  C_10 
REMARK    4  A    between atoms: C_13  and  C_14 
ROOT
HETATM    1  N   UNL     1      43.410 -12.691   7.715  1.00  0.00    -0.263 N 
HETATM    2  C   UNL     1      44.230 -11.582   7.757  1.00  0.00     0.270 C 
HETATM    3  O   UNL     1      45.194 -11.440   7.006  1.00  0.00    -0.266 OA
HETATM    4  H   UNL     1      42.496 -12.734   8.162  1.00  0.00     0.190 HD
ENDROOT
BRANCH   2   5
HETATM    5  C   UNL     1      43.878 -10.534   8.750  1.00  0.00     0.033 A 
HETATM    6  C   UNL     1      44.606 -10.344   9.926  1.00  0.00     0.017 A 
HETATM    7  C   UNL     1      44.235  -9.334  10.823  1.00  0.00     0.010 A 
HETATM    8  C   UNL     1      43.143  -8.474  10.569  1.00  0.00    -0.035 A 
HETATM    9  C   UNL     1      42.417  -8.697   9.387  1.00  0.00     0.010 A 
HETATM   10  C   UNL     1      42.788  -9.700   8.482  1.00  0.00     0.017 A 
BRANCH   8  11
HETATM   11  C   UNL     1      42.783  -7.416  11.612  1.00  0.00     0.141 C 
HETATM   12  S   UNL     1      41.050  -6.840  11.505  1.00  0.00    -0.149 SA
HETATM   13  C   UNL     1      40.199  -8.290  12.177  1.00  0.00     0.076 C 
HETATM   14  C   UNL     1      40.568  -8.536  13.631  1.00  0.00     0.020 C 
HETATM   15  C   UNL     1      42.009  -8.980  13.821  1.00  0.00     0.076 C 
HETATM   16  S   UNL     1      43.241  -7.730  13.348  1.00  0.00    -0.149 SA
ENDBRANCH   8  11
ENDBRANCH   2   5
BRANCH   1  17
HETATM   17  N   UNL     1      43.651 -13.646   6.720  1.00  0.00    -0.262 N 
HETATM   18  C   UNL     1      43.341 -14.965   6.969  1.00  0.00     0.286 C 
HETATM   19  O   UNL     1      42.894 -15.329   8.058  1.00  0.00    -0.264 OA
HETATM   20  H   UNL     1      43.930 -13.294   5.808  1.00  0.00     0.190 HD
BRANCH  18  21
HETATM   21  C   UNL     1      43.574 -15.882   5.876  1.00  0.00     0.102 A 
HETATM   22  N   UNL     1      44.309 -17.036   6.051  1.00  0.00    -0.361 N 
HETATM   23  C   UNL     1      44.399 -17.726   4.872  1.00  0.00     0.088 A 
HETATM   24  H   UNL     1      44.720 -17.311   6.935  1.00  0.00     0.165 HD
HETATM   25  C   UNL     1      43.712 -17.018   3.915  1.00  0.00     0.019 A 
HETATM   26  C   UNL     1      43.192 -15.858   4.543  1.00  0.00     0.036 A 
ENDBRANCH  18  21
ENDBRANCH   1  17
TORSDOF 4
ENDMDL
MODEL 6
REMARK VINA RESULT:      -6.7      6.346      9.290
REMARK  4 active torsions:
REMARK  status: ('A' for Active; 'I' for Inactive)
REMARK    1  A    between atoms: C_5  and  C_6 
REMARK       I    between atoms: C_6  and  N_7 
REMARK    2  A    between atoms: N_7  and  N_8 
REMARK       I    between atoms: N_8  and  C_9 
REMARK    3  A    between atoms: C_9  and  C_10 
REMARK    4  A    between atoms: C_13  and  C_14 
ROOT
HETATM    1  N   UNL     1      42.199  -9.551  11.288  1.00  0.00    -0.263 N 
HETATM    2  C   UNL     1      42.435  -8.270  11.742  1.00  0.00     0.270 C 
HETATM    3  O   UNL     1      43.126  -7.463  11.123  1.00  0.00    -0.266 OA
HETATM    4  H   UNL     1      41.468 -10.156  11.658  1.00  0.00     0.190 HD
ENDROOT
BRANCH   2   5
HETATM    5  C   UNL     1      41.784  -7.890  13.023  1.00  0.00     0.033 A 
HETATM    6  C   UNL     1      40.769  -6.934  13.089  1.00  0.00     0.017 A 
HETATM    7  C   UNL     1      40.183  -6.620  14.322  1.00  0.00     0.010 A 
HETATM    8  C   UNL     1      40.575  -7.259  15.519  1.00  0.00    -0.035 A 
HETATM    9  C   UNL     1      41.609  -8.205  15.428  1.00  0.00     0.010 A 
HETATM   10  C   UNL     1      42.194  -8.529  14.196  1.00  0.00     0.017 A 
BRANCH   8  11
HETATM   11  C   UNL     1      39.909  -6.839  16.829  1.00  0.00     0.141 C 
HETATM   12  S   UNL     1      40.419  -7.845  18.268  1.00  0.00    -0.149 SA
HETATM   13  C   UNL     1      42.095  -7.207  18.515  1.00  0.00     0.076 C 
HETATM   14  C   UNL     1      42.087  -5.735  18.896  1.00  0.00     0.020 C 
HETATM   15  C   UNL     1      41.633  -4.822  17.768  1.00  0.00     0.076 C 
HETATM   16  S   UNL     1      39.905  -5.068  17.262  1.00  0.00    -0.149 SA
ENDBRANCH   8  11
ENDBRANCH   2   5
BRANCH   1  17
HETATM   17  N   UNL     1      42.709  -9.906  10.033  1.00  0.00    -0.262 N 
HETATM   18  C   UNL     1      43.887 -10.618   9.967  1.00  0.00     0.286 C 
HETATM   19  O   UNL     1      44.519 -10.918  10.981  1.00  0.00    -0.264 OA
HETATM   20  H   UNL     1      42.113  -9.724   9.231  1.00  0.00     0.190 HD
BRANCH  18  21
HETATM   21  C   UNL     1      44.322 -10.988   8.639  1.00  0.00     0.102 A 
HETATM   22  N   UNL     1      43.535 -11.768   7.817  1.00  0.00    -0.361 N 
HETATM   23  C   UNL     1      44.167 -11.990   6.623  1.00  0.00     0.088 A 
HETATM   24  H   UNL     1      42.623 -12.121   8.083  1.00  0.00     0.165 HD
HETATM   25  C   UNL     1      45.380 -11.344   6.662  1.00  0.00     0.019 A 
HETATM   26  C   UNL     1      45.480 -10.713   7.927  1.00  0.00     0.036 A 
ENDBRANCH  18  21
ENDBRANCH   1  17
TORSDOF 4
ENDMDL
MODEL 7
REMARK VINA RESULT:      -6.6      5.863      7.294
REMARK  4 active torsions:
REMARK  status: ('A' for Active; 'I' for Inactive)
REMARK    1  A    between atoms: C_5  and  C_6 
REMARK       I    between atoms: C_6  and  N_7 
REMARK    2  A    between atoms: N_7  and  N_8 
REMARK       I    between atoms: N_8  and  C_9 
REMARK    3  A    between atoms: C_9  and  C_10 
REMARK    4  A    between atoms: C_13  and  C_14 
ROOT
HETATM    1  N   UNL     1      42.551 -15.223   1.099  1.00  0.00    -0.263 N 
HETATM    2  C   UNL     1      41.211 -14.920   0.966  1.00  0.00     0.270 C 
HETATM    3  O   UNL     1      40.322 -15.751   1.144  1.00  0.00    -0.266 OA
HETATM    4  H   UNL     1      43.284 -14.519   1.174  1.00  0.00     0.190 HD
ENDROOT
BRANCH   2   5
HETATM    5  C   UNL     1      40.880 -13.513   0.618  1.00  0.00     0.033 A 
HETATM    6  C   UNL     1      41.428 -12.427   1.303  1.00  0.00     0.017 A 
HETATM    7  C   UNL     1      41.088 -11.121   0.928  1.00  0.00     0.010 A 
HETATM    8  C   UNL     1      40.211 -10.858  -0.148  1.00  0.00    -0.035 A 
HETATM    9  C   UNL     1      39.661 -11.968  -0.810  1.00  0.00     0.010 A 
HETATM   10  C   UNL     1      40.003 -13.277  -0.443  1.00  0.00     0.017 A 
BRANCH   8  11
HETATM   11  C   UNL     1      39.866  -9.405  -0.476  1.00  0.00     0.141 C 
HETATM   12  S   UNL     1      41.181  -8.218  -0.021  1.00  0.00    -0.149 SA
HETATM   13  C   UNL     1      42.391  -8.585  -1.318  1.00  0.00     0.076 C 
HETATM   14  C   UNL     1      41.855  -8.251  -2.700  1.00  0.00     0.020 C 
HETATM   15  C   UNL     1      40.724  -9.164  -3.145  1.00  0.00     0.076 C 
HETATM   16  S   UNL     1      39.217  -9.029  -2.137  1.00  0.00    -0.149 SA
ENDBRANCH   8  11
ENDBRANCH   2   5
BRANCH   1  17
HETATM   17  N   UNL     1      42.892 -16.510   1.530  1.00  0.00    -0.262 N 
HETATM   18  C   UNL     1      43.274 -16.699   2.840  1.00  0.00     0.286 C 
HETATM   19  O   UNL     1      43.360 -15.757   3.630  1.00  0.00    -0.264 OA
HETATM   20  H   UNL     1      42.718 -17.270   0.878  1.00  0.00     0.190 HD
BRANCH  18  21
HETATM   21  C   UNL     1      43.563 -18.063   3.219  1.00  0.00     0.102 A 
HETATM   22  N   UNL     1      44.061 -18.371   4.468  1.00  0.00    -0.361 N 
HETATM   23  C   UNL     1      44.263 -19.720   4.581  1.00  0.00     0.088 A 
HETATM   24  H   UNL     1      44.250 -17.678   5.184  1.00  0.00     0.165 HD
HETATM   25  C   UNL     1      43.888 -20.303   3.394  1.00  0.00     0.019 A 
HETATM   26  C   UNL     1      43.448 -19.264   2.536  1.00  0.00     0.036 A 
ENDBRANCH  18  21
ENDBRANCH   1  17
TORSDOF 4
ENDMDL
MODEL 8
REMARK VINA RESULT:      -6.5     16.739     19.285
REMARK  4 active torsions:
REMARK  status: ('A' for Active; 'I' for Inactive)
REMARK    1  A    between atoms: C_5  and  C_6 
REMARK       I    between atoms: C_6  and  N_7 
REMARK    2  A    between atoms: N_7  and  N_8 
REMARK       I    between atoms: N_8  and  C_9 
REMARK    3  A    between atoms: C_9  and  C_10 
REMARK    4  A    between atoms: C_13  and  C_14 
ROOT
HETATM    1  N   UNL     1      49.225 -29.747   2.357  1.00  0.00    -0.263 N 
HETATM    2  C   UNL     1      49.010 -30.987   2.922  1.00  0.00     0.270 C 
HETATM    3  O   UNL     1      48.197 -31.791   2.470  1.00  0.00    -0.266 OA
HETATM    4  H   UNL     1      50.030 -29.161   2.571  1.00  0.00     0.190 HD
ENDROOT
BRANCH   2   5
HETATM    5  C   UNL     1      49.840 -31.328   4.108  1.00  0.00     0.033 A 
HETATM    6  C   UNL     1      49.426 -32.255   5.067  1.00  0.00     0.017 A 
HETATM    7  C   UNL     1      50.252 -32.546   6.159  1.00  0.00     0.010 A 
HETATM    8  C   UNL     1      51.518 -31.940   6.321  1.00  0.00    -0.035 A 
HETATM    9  C   UNL     1      51.904 -31.000   5.351  1.00  0.00     0.010 A 
HETATM   10  C   UNL     1      51.085 -30.710   4.251  1.00  0.00     0.017 A 
BRANCH   8  11
HETATM   11  C   UNL     1      52.347 -32.288   7.557  1.00  0.00     0.141 C 
HETATM   12  S   UNL     1      52.665 -34.079   7.747  1.00  0.00    -0.149 SA
HETATM   13  C   UNL     1      53.889 -34.318   6.434  1.00  0.00     0.076 C 
HETATM   14  C   UNL     1      55.166 -33.539   6.706  1.00  0.00     0.020 C 
HETATM   15  C   UNL     1      54.986 -32.032   6.611  1.00  0.00     0.076 C 
HETATM   16  S   UNL     1      53.870 -31.336   7.867  1.00  0.00    -0.149 SA
ENDBRANCH   8  11
ENDBRANCH   2   5
BRANCH   1  17
HETATM   17  N   UNL     1      48.537 -29.437   1.178  1.00  0.00    -0.262 N 
HETATM   18  C   UNL     1      47.492 -28.540   1.228  1.00  0.00     0.286 C 
HETATM   19  O   UNL     1      47.125 -28.034   2.290  1.00  0.00    -0.264 OA
HETATM   20  H   UNL     1      48.929 -29.800   0.313  1.00  0.00     0.190 HD
BRANCH  18  21
HETATM   21  C   UNL     1      46.865 -28.236  -0.039  1.00  0.00     0.102 A 
HETATM   22  N   UNL     1      45.500 -28.070  -0.142  1.00  0.00    -0.361 N 
HETATM   23  C   UNL     1      45.149 -27.803  -1.438  1.00  0.00     0.088 A 
HETATM   24  H   UNL     1      44.864 -28.145   0.644  1.00  0.00     0.165 HD
HETATM   25  C   UNL     1      46.299 -27.791  -2.192  1.00  0.00     0.019 A 
HETATM   26  C   UNL     1      47.379 -28.063  -1.315  1.00  0.00     0.036 A 
ENDBRANCH  18  21
ENDBRANCH   1  17
TORSDOF 4
ENDMDL
MODEL 9
REMARK VINA RESULT:      -6.4      7.498      8.881
REMARK  4 active torsions:
REMARK  status: ('A' for Active; 'I' for Inactive)
REMARK    1  A    between atoms: C_5  and  C_6 
REMARK       I    between atoms: C_6  and  N_7 
REMARK    2  A    between atoms: N_7  and  N_8 
REMARK       I    between atoms: N_8  and  C_9 
REMARK    3  A    between atoms: C_9  and  C_10 
REMARK    4  A    between atoms: C_13  and  C_14 
ROOT
HETATM    1  N   UNL     1      41.458 -14.316   0.237  1.00  0.00    -0.263 N 
HETATM    2  C   UNL     1      40.230 -14.429  -0.382  1.00  0.00     0.270 C 
HETATM    3  O   UNL     1      39.508 -15.416  -0.249  1.00  0.00    -0.266 OA
HETATM    4  H   UNL     1      41.968 -13.438   0.322  1.00  0.00     0.190 HD
ENDROOT
BRANCH   2   5
HETATM    5  C   UNL     1      39.795 -13.274  -1.211  1.00  0.00     0.033 A 
HETATM    6  C   UNL     1      38.494 -13.158  -1.705  1.00  0.00     0.017 A 
HETATM    7  C   UNL     1      38.136 -12.044  -2.473  1.00  0.00     0.010 A 
HETATM    8  C   UNL     1      39.052 -11.006  -2.756  1.00  0.00    -0.035 A 
HETATM    9  C   UNL     1      40.358 -11.155  -2.261  1.00  0.00     0.010 A 
HETATM   10  C   UNL     1      40.721 -12.264  -1.486  1.00  0.00     0.017 A 
BRANCH   8  11
HETATM   11  C   UNL     1      38.591  -9.837  -3.628  1.00  0.00     0.141 C 
HETATM   12  S   UNL     1      36.836  -9.385  -3.382  1.00  0.00    -0.149 SA
HETATM   13  C   UNL     1      36.946  -8.584  -1.762  1.00  0.00     0.076 C 
HETATM   14  C   UNL     1      37.796  -7.326  -1.813  1.00  0.00     0.020 C 
HETATM   15  C   UNL     1      39.271  -7.603  -2.057  1.00  0.00     0.076 C 
HETATM   16  S   UNL     1      39.631  -8.341  -3.679  1.00  0.00    -0.149 SA
ENDBRANCH   8  11
ENDBRANCH   2   5
BRANCH   1  17
HETATM   17  N   UNL     1      41.849 -15.339   1.108  1.00  0.00    -0.262 N 
HETATM   18  C   UNL     1      42.922 -15.129   1.948  1.00  0.00     0.286 C 
HETATM   19  O   UNL     1      43.567 -14.080   1.923  1.00  0.00    -0.264 OA
HETATM   20  H   UNL     1      41.237 -16.148   1.165  1.00  0.00     0.190 HD
BRANCH  18  21
HETATM   21  C   UNL     1      43.232 -16.214   2.851  1.00  0.00     0.102 A 
HETATM   22  N   UNL     1      43.429 -15.993   4.199  1.00  0.00    -0.361 N 
HETATM   23  C   UNL     1      43.720 -17.167   4.837  1.00  0.00     0.088 A 
HETATM   24  H   UNL     1      43.367 -15.078   4.632  1.00  0.00     0.165 HD
HETATM   25  C   UNL     1      43.710 -18.171   3.898  1.00  0.00     0.019 A 
HETATM   26  C   UNL     1      43.404 -17.575   2.649  1.00  0.00     0.036 A 
ENDBRANCH  18  21
ENDBRANCH   1  17
TORSDOF 4
ENDMDL
MODEL 10
REMARK VINA RESULT:      -6.4      3.697      5.924
REMARK  4 active torsions:
REMARK  status: ('A' for Active; 'I' for Inactive)
REMARK    1  A    between atoms: C_5  and  C_6 
REMARK       I    between atoms: C_6  and  N_7 
REMARK    2  A    between atoms: N_7  and  N_8 
REMARK       I    between atoms: N_8  and  C_9 
REMARK    3  A    between atoms: C_9  and  C_10 
REMARK    4  A    between atoms: C_13  and  C_14 
ROOT
HETATM    1  N   UNL     1      42.781 -10.902   7.913  1.00  0.00    -0.263 N 
HETATM    2  C   UNL     1      43.820 -10.599   8.769  1.00  0.00     0.270 C 
HETATM    3  O   UNL     1      44.939 -11.096   8.657  1.00  0.00    -0.266 OA
HETATM    4  H   UNL     1      41.926 -10.353   7.847  1.00  0.00     0.190 HD
ENDROOT
BRANCH   2   5
HETATM    5  C   UNL     1      43.531  -9.606   9.838  1.00  0.00     0.033 A 
HETATM    6  C   UNL     1      43.694  -9.900  11.193  1.00  0.00     0.017 A 
HETATM    7  C   UNL     1      43.416  -8.924  12.158  1.00  0.00     0.010 A 
HETATM    8  C   UNL     1      42.988  -7.625  11.804  1.00  0.00    -0.035 A 
HETATM    9  C   UNL     1      42.817  -7.360  10.435  1.00  0.00     0.010 A 
HETATM   10  C   UNL     1      43.100  -8.331   9.465  1.00  0.00     0.017 A 
BRANCH   8  11
HETATM   11  C   UNL     1      42.676  -6.625  12.918  1.00  0.00     0.141 C 
HETATM   12  S   UNL     1      41.312  -5.476  12.511  1.00  0.00    -0.149 SA
HETATM   13  C   UNL     1      39.902  -6.603  12.655  1.00  0.00     0.076 C 
HETATM   14  C   UNL     1      39.734  -7.115  14.076  1.00  0.00     0.020 C 
HETATM   15  C   UNL     1      40.850  -8.049  14.518  1.00  0.00     0.076 C 
HETATM   16  S   UNL     1      42.485  -7.261  14.615  1.00  0.00    -0.149 SA
ENDBRANCH   8  11
ENDBRANCH   2   5
BRANCH   1  17
HETATM   17  N   UNL     1      43.049 -11.751   6.833  1.00  0.00    -0.262 N 
HETATM   18  C   UNL     1      42.193 -11.751   5.753  1.00  0.00     0.286 C 
HETATM   19  O   UNL     1      41.179 -11.052   5.732  1.00  0.00    -0.264 OA
HETATM   20  H   UNL     1      43.941 -12.239   6.847  1.00  0.00     0.190 HD
BRANCH  18  21
HETATM   21  C   UNL     1      42.565 -12.618   4.658  1.00  0.00     0.102 A 
HETATM   22  N   UNL     1      42.537 -13.991   4.789  1.00  0.00    -0.361 N 
HETATM   23  C   UNL     1      42.942 -14.588   3.626  1.00  0.00     0.088 A 
HETATM   24  H   UNL     1      42.259 -14.468   5.638  1.00  0.00     0.165 HD
HETATM   25  C   UNL     1      43.235 -13.595   2.722  1.00  0.00     0.019 A 
HETATM   26  C   UNL     1      42.999 -12.356   3.367  1.00  0.00     0.036 A 
ENDBRANCH  18  21
ENDBRANCH   1  17
TORSDOF 4
ENDMDL
