MODEL 1
REMARK VINA RESULT:      -7.8      0.000      0.000
REMARK  6 active torsions:
REMARK  status: ('A' for Active; 'I' for Inactive)
REMARK    1  A    between atoms: C_2  and  C_3 
REMARK    2  A    between atoms: C_3  and  O_4 
REMARK    3  A    between atoms: O_4  and  C_5 
REMARK    4  A    between atoms: C_6  and  O_7 
REMARK    5  A    between atoms: C_10  and  C_11 
REMARK    6  A    between atoms: C_25  and  O_26 
ROOT
HETATM    1  C   UNL     1      39.580 -14.591   1.629  1.00  0.00     0.269 C 
HETATM    2  N   UNL     1      38.835 -13.687   2.583  1.00  0.00    -0.061 N 
HETATM    3  H   UNL     1      38.157 -14.267   3.087  1.00  0.00     0.278 HD
HETATM    4  H   UNL     1      38.301 -13.003   2.035  1.00  0.00     0.278 HD
HETATM    5  C   UNL     1      39.699 -12.970   3.593  1.00  0.00     0.238 C 
HETATM    6  C   UNL     1      40.429 -13.975   4.502  1.00  0.00     0.069 C 
HETATM    7  C   UNL     1      41.040 -15.059   3.683  1.00  0.00    -0.019 A 
HETATM    8  C   UNL     1      40.644 -15.311   2.383  1.00  0.00     0.052 A 
HETATM    9  N   UNL     1      41.396 -16.354   1.905  1.00  0.00    -0.356 N 
HETATM   10  H   UNL     1      41.355 -16.757   0.976  1.00  0.00     0.166 HD
HETATM   11  C   UNL     1      42.247 -16.802   2.894  1.00  0.00     0.043 A 
HETATM   12  C   UNL     1      42.037 -16.009   4.023  1.00  0.00     0.002 A 
HETATM   13  C   UNL     1      43.178 -17.845   2.874  1.00  0.00     0.033 A 
HETATM   14  C   UNL     1      43.899 -18.101   4.048  1.00  0.00     0.039 A 
HETATM   15  C   UNL     1      43.701 -17.339   5.198  1.00  0.00     0.069 A 
HETATM   16  C   UNL     1      42.780 -16.283   5.187  1.00  0.00     0.051 A 
ENDROOT
BRANCH   1  17
HETATM   17  C   UNL     1      40.038 -13.826   0.404  1.00  0.00    -0.019 A 
HETATM   18  C   UNL     1      39.729 -14.346  -0.863  1.00  0.00     0.049 A 
HETATM   19  C   UNL     1      40.095 -13.658  -2.022  1.00  0.00     0.102 A 
HETATM   20  C   UNL     1      40.749 -12.422  -1.959  1.00  0.00     0.102 A 
HETATM   21  C   UNL     1      41.053 -11.897  -0.702  1.00  0.00     0.040 A 
HETATM   22  C   UNL     1      40.698 -12.588   0.467  1.00  0.00     0.012 A 
BRANCH  19  23
HETATM   23  O   UNL     1      39.706 -14.187  -3.226  1.00  0.00    -0.353 OA
HETATM   24  C   UNL     1      38.298 -14.422  -3.234  1.00  0.00     0.210 C 
ENDBRANCH  19  23
BRANCH  20  25
HETATM   25  O   UNL     1      41.035 -11.830  -3.157  1.00  0.00    -0.348 OA
BRANCH  25  26
HETATM   26  C   UNL     1      40.651 -10.467  -3.341  1.00  0.00     0.175 C 
BRANCH  26  27
HETATM   27  C   UNL     1      39.127 -10.414  -3.389  1.00  0.00     0.022 C 
HETATM   28  C   UNL     1      38.559  -9.453  -2.361  1.00  0.00     0.007 C 
ENDBRANCH  26  27
ENDBRANCH  25  26
ENDBRANCH  20  25
ENDBRANCH   1  17
BRANCH  15  29
HETATM   29  O   UNL     1      44.339 -17.512   6.397  1.00  0.00    -0.356 OA
HETATM   30  C   UNL     1      43.865 -16.743   7.497  1.00  0.00     0.210 C 
ENDBRANCH  15  29
TORSDOF 6
ENDMDL
MODEL 2
REMARK VINA RESULT:      -7.7      2.079      8.248
REMARK  6 active torsions:
REMARK  status: ('A' for Active; 'I' for Inactive)
REMARK    1  A    between atoms: C_2  and  C_3 
REMARK    2  A    between atoms: C_3  and  O_4 
REMARK    3  A    between atoms: O_4  and  C_5 
REMARK    4  A    between atoms: C_6  and  O_7 
REMARK    5  A    between atoms: C_10  and  C_11 
REMARK    6  A    between atoms: C_25  and  O_26 
ROOT
HETATM    1  C   UNL     1      41.887 -13.245   2.201  1.00  0.00     0.269 C 
HETATM    2  N   UNL     1      41.231 -12.466   3.319  1.00  0.00    -0.061 N 
HETATM    3  H   UNL     1      41.398 -11.472   3.136  1.00  0.00     0.278 HD
HETATM    4  H   UNL     1      41.705 -12.696   4.199  1.00  0.00     0.278 HD
HETATM    5  C   UNL     1      39.744 -12.686   3.466  1.00  0.00     0.238 C 
HETATM    6  C   UNL     1      38.996 -12.246   2.195  1.00  0.00     0.069 C 
HETATM    7  C   UNL     1      39.679 -12.782   0.984  1.00  0.00    -0.019 A 
HETATM    8  C   UNL     1      40.984 -13.236   1.017  1.00  0.00     0.052 A 
HETATM    9  N   UNL     1      41.315 -13.668  -0.243  1.00  0.00    -0.356 N 
HETATM   10  H   UNL     1      42.196 -14.076  -0.533  1.00  0.00     0.166 HD
HETATM   11  C   UNL     1      40.250 -13.465  -1.095  1.00  0.00     0.043 A 
HETATM   12  C   UNL     1      39.213 -12.902  -0.350  1.00  0.00     0.002 A 
HETATM   13  C   UNL     1      40.129 -13.732  -2.463  1.00  0.00     0.033 A 
HETATM   14  C   UNL     1      38.923 -13.394  -3.092  1.00  0.00     0.039 A 
HETATM   15  C   UNL     1      37.875 -12.814  -2.379  1.00  0.00     0.069 A 
HETATM   16  C   UNL     1      38.010 -12.578  -1.005  1.00  0.00     0.051 A 
ENDROOT
BRANCH   1  17
HETATM   17  C   UNL     1      42.334 -14.610   2.683  1.00  0.00    -0.019 A 
HETATM   18  C   UNL     1      42.781 -14.739   4.007  1.00  0.00     0.049 A 
HETATM   19  C   UNL     1      43.167 -15.983   4.509  1.00  0.00     0.102 A 
HETATM   20  C   UNL     1      43.093 -17.140   3.724  1.00  0.00     0.102 A 
HETATM   21  C   UNL     1      42.643 -17.020   2.409  1.00  0.00     0.040 A 
HETATM   22  C   UNL     1      42.265 -15.770   1.894  1.00  0.00     0.012 A 
BRANCH  19  23
HETATM   23  O   UNL     1      43.531 -16.052   5.830  1.00  0.00    -0.353 OA
HETATM   24  C   UNL     1      42.383 -15.923   6.669  1.00  0.00     0.210 C 
ENDBRANCH  19  23
BRANCH  20  25
HETATM   25  O   UNL     1      43.474 -18.305   4.330  1.00  0.00    -0.348 OA
BRANCH  25  26
HETATM   26  C   UNL     1      44.427 -19.129   3.658  1.00  0.00     0.175 C 
BRANCH  26  27
HETATM   27  C   UNL     1      43.716 -20.408   3.226  1.00  0.00     0.022 C 
HETATM   28  C   UNL     1      43.593 -20.507   1.716  1.00  0.00     0.007 C 
ENDBRANCH  26  27
ENDBRANCH  25  26
ENDBRANCH  20  25
ENDBRANCH   1  17
BRANCH  15  29
HETATM   29  O   UNL     1      36.666 -12.434  -2.896  1.00  0.00    -0.356 OA
HETATM   30  C   UNL     1      36.401 -11.036  -2.957  1.00  0.00     0.210 C 
ENDBRANCH  15  29
TORSDOF 6
ENDMDL
MODEL 3
REMARK VINA RESULT:      -7.5      3.072      8.266
REMARK  6 active torsions:
REMARK  status: ('A' for Active; 'I' for Inactive)
REMARK    1  A    between atoms: C_2  and  C_3 
REMARK    2  A    between atoms: C_3  and  O_4 
REMARK    3  A    between atoms: O_4  and  C_5 
REMARK    4  A    between atoms: C_6  and  O_7 
REMARK    5  A    between atoms: C_10  and  C_11 
REMARK    6  A    between atoms: C_25  and  O_26 
ROOT
HETATM    1  C   UNL     1      40.283 -14.156   3.970  1.00  0.00     0.269 C 
HETATM    2  N   UNL     1      40.250 -15.661   4.106  1.00  0.00    -0.061 N 
HETATM    3  H   UNL     1      39.266 -15.946   4.091  1.00  0.00     0.278 HD
HETATM    4  H   UNL     1      40.626 -15.914   5.025  1.00  0.00     0.278 HD
HETATM    5  C   UNL     1      40.986 -16.417   3.025  1.00  0.00     0.238 C 
HETATM    6  C   UNL     1      40.370 -16.137   1.642  1.00  0.00     0.069 C 
HETATM    7  C   UNL     1      40.149 -14.675   1.464  1.00  0.00    -0.019 A 
HETATM    8  C   UNL     1      40.124 -13.799   2.533  1.00  0.00     0.052 A 
HETATM    9  N   UNL     1      39.911 -12.536   2.042  1.00  0.00    -0.356 N 
HETATM   10  H   UNL     1      39.863 -11.676   2.577  1.00  0.00     0.166 HD
HETATM   11  C   UNL     1      39.764 -12.592   0.672  1.00  0.00     0.043 A 
HETATM   12  C   UNL     1      39.901 -13.926   0.285  1.00  0.00     0.002 A 
HETATM   13  C   UNL     1      39.516 -11.568  -0.248  1.00  0.00     0.033 A 
HETATM   14  C   UNL     1      39.383 -11.919  -1.598  1.00  0.00     0.039 A 
HETATM   15  C   UNL     1      39.498 -13.244  -2.014  1.00  0.00     0.069 A 
HETATM   16  C   UNL     1      39.770 -14.250  -1.078  1.00  0.00     0.051 A 
ENDROOT
BRANCH   1  17
HETATM   17  C   UNL     1      41.499 -13.577   4.666  1.00  0.00    -0.019 A 
HETATM   18  C   UNL     1      41.907 -14.145   5.883  1.00  0.00     0.049 A 
HETATM   19  C   UNL     1      43.043 -13.671   6.542  1.00  0.00     0.102 A 
HETATM   20  C   UNL     1      43.824 -12.644   6.001  1.00  0.00     0.102 A 
HETATM   21  C   UNL     1      43.428 -12.080   4.788  1.00  0.00     0.040 A 
HETATM   22  C   UNL     1      42.279 -12.542   4.125  1.00  0.00     0.012 A 
BRANCH  19  23
HETATM   23  O   UNL     1      43.425 -14.313   7.693  1.00  0.00    -0.353 OA
HETATM   24  C   UNL     1      42.793 -15.589   7.784  1.00  0.00     0.210 C 
ENDBRANCH  19  23
BRANCH  20  25
HETATM   25  O   UNL     1      44.927 -12.281   6.723  1.00  0.00    -0.348 OA
BRANCH  25  26
HETATM   26  C   UNL     1      44.856 -11.082   7.496  1.00  0.00     0.175 C 
BRANCH  26  27
HETATM   27  C   UNL     1      46.266 -10.505   7.593  1.00  0.00     0.022 C 
HETATM   28  C   UNL     1      46.269  -9.110   8.192  1.00  0.00     0.007 C 
ENDBRANCH  26  27
ENDBRANCH  25  26
ENDBRANCH  20  25
ENDBRANCH   1  17
BRANCH  15  29
HETATM   29  O   UNL     1      39.372 -13.696  -3.300  1.00  0.00    -0.356 OA
HETATM   30  C   UNL     1      38.331 -14.633  -3.556  1.00  0.00     0.210 C 
ENDBRANCH  15  29
TORSDOF 6
ENDMDL
MODEL 4
REMARK VINA RESULT:      -7.4      6.213      9.110
REMARK  6 active torsions:
REMARK  status: ('A' for Active; 'I' for Inactive)
REMARK    1  A    between atoms: C_2  and  C_3 
REMARK    2  A    between atoms: C_3  and  O_4 
REMARK    3  A    between atoms: O_4  and  C_5 
REMARK    4  A    between atoms: C_6  and  O_7 
REMARK    5  A    between atoms: C_10  and  C_11 
REMARK    6  A    between atoms: C_25  and  O_26 
ROOT
HETATM    1  C   UNL     1      43.989 -11.031   6.242  1.00  0.00     0.269 C 
HETATM    2  N   UNL     1      45.470 -10.862   5.994  1.00  0.00    -0.061 N 
HETATM    3  H   UNL     1      45.621  -9.894   5.694  1.00  0.00     0.278 HD
HETATM    4  H   UNL     1      45.742 -11.468   5.212  1.00  0.00     0.278 HD
HETATM    5  C   UNL     1      46.354 -11.139   7.187  1.00  0.00     0.238 C 
HETATM    6  C   UNL     1      46.040 -10.169   8.341  1.00  0.00     0.069 C 
HETATM    7  C   UNL     1      44.567 -10.079   8.550  1.00  0.00    -0.019 A 
HETATM    8  C   UNL     1      43.662 -10.484   7.588  1.00  0.00     0.052 A 
HETATM    9  N   UNL     1      42.398 -10.284   8.083  1.00  0.00    -0.356 N 
HETATM   10  H   UNL     1      41.523 -10.503   7.622  1.00  0.00     0.166 HD
HETATM   11  C   UNL     1      42.479  -9.720   9.339  1.00  0.00     0.043 A 
HETATM   12  C   UNL     1      43.831  -9.575   9.652  1.00  0.00     0.002 A 
HETATM   13  C   UNL     1      41.462  -9.327  10.215  1.00  0.00     0.033 A 
HETATM   14  C   UNL     1      41.836  -8.748  11.436  1.00  0.00     0.039 A 
HETATM   15  C   UNL     1      43.178  -8.573  11.770  1.00  0.00     0.069 A 
HETATM   16  C   UNL     1      44.179  -8.997  10.887  1.00  0.00     0.051 A 
ENDROOT
BRANCH   1  17
HETATM   17  C   UNL     1      43.556 -12.460   5.983  1.00  0.00    -0.019 A 
HETATM   18  C   UNL     1      43.051 -12.787   4.715  1.00  0.00     0.049 A 
HETATM   19  C   UNL     1      42.676 -14.098   4.417  1.00  0.00     0.102 A 
HETATM   20  C   UNL     1      42.819 -15.128   5.354  1.00  0.00     0.102 A 
HETATM   21  C   UNL     1      43.327 -14.811   6.614  1.00  0.00     0.040 A 
HETATM   22  C   UNL     1      43.695 -13.492   6.926  1.00  0.00     0.012 A 
BRANCH  19  23
HETATM   23  O   UNL     1      42.252 -14.364   3.140  1.00  0.00    -0.353 OA
HETATM   24  C   UNL     1      43.320 -14.177   2.212  1.00  0.00     0.210 C 
ENDBRANCH  19  23
BRANCH  20  25
HETATM   25  O   UNL     1      42.441 -16.376   4.940  1.00  0.00    -0.348 OA
BRANCH  25  26
HETATM   26  C   UNL     1      43.468 -17.332   4.672  1.00  0.00     0.175 C 
BRANCH  26  27
HETATM   27  C   UNL     1      43.356 -17.737   3.205  1.00  0.00     0.022 C 
HETATM   28  C   UNL     1      43.994 -19.089   2.939  1.00  0.00     0.007 C 
ENDBRANCH  26  27
ENDBRANCH  25  26
ENDBRANCH  20  25
ENDBRANCH   1  17
BRANCH  15  29
HETATM   29  O   UNL     1      43.651  -8.009  12.924  1.00  0.00    -0.356 OA
HETATM   30  C   UNL     1      42.697  -7.734  13.946  1.00  0.00     0.210 C 
ENDBRANCH  15  29
TORSDOF 6
ENDMDL
MODEL 5
REMARK VINA RESULT:      -7.3      1.583      2.007
REMARK  6 active torsions:
REMARK  status: ('A' for Active; 'I' for Inactive)
REMARK    1  A    between atoms: C_2  and  C_3 
REMARK    2  A    between atoms: C_3  and  O_4 
REMARK    3  A    between atoms: O_4  and  C_5 
REMARK    4  A    between atoms: C_6  and  O_7 
REMARK    5  A    between atoms: C_10  and  C_11 
REMARK    6  A    between atoms: C_25  and  O_26 
ROOT
HETATM    1  C   UNL     1      40.038 -14.239   2.616  1.00  0.00     0.269 C 
HETATM    2  N   UNL     1      39.758 -13.547   3.930  1.00  0.00    -0.061 N 
HETATM    3  H   UNL     1      39.060 -14.109   4.428  1.00  0.00     0.278 HD
HETATM    4  H   UNL     1      39.331 -12.635   3.735  1.00  0.00     0.278 HD
HETATM    5  C   UNL     1      40.960 -13.367   4.827  1.00  0.00     0.238 C 
HETATM    6  C   UNL     1      41.557 -14.729   5.225  1.00  0.00     0.069 C 
HETATM    7  C   UNL     1      41.688 -15.603   4.025  1.00  0.00    -0.019 A 
HETATM    8  C   UNL     1      40.997 -15.353   2.855  1.00  0.00     0.052 A 
HETATM    9  N   UNL     1      41.336 -16.323   1.946  1.00  0.00    -0.356 N 
HETATM   10  H   UNL     1      41.011 -16.400   0.989  1.00  0.00     0.166 HD
HETATM   11  C   UNL     1      42.211 -17.216   2.529  1.00  0.00     0.043 A 
HETATM   12  C   UNL     1      42.442 -16.789   3.838  1.00  0.00     0.002 A 
HETATM   13  C   UNL     1      42.810 -18.364   2.000  1.00  0.00     0.033 A 
HETATM   14  C   UNL     1      43.649 -19.111   2.838  1.00  0.00     0.039 A 
HETATM   15  C   UNL     1      43.886 -18.721   4.155  1.00  0.00     0.069 A 
HETATM   16  C   UNL     1      43.295 -17.553   4.656  1.00  0.00     0.051 A 
ENDROOT
BRANCH   1  17
HETATM   17  C   UNL     1      40.437 -13.237   1.552  1.00  0.00    -0.019 A 
HETATM   18  C   UNL     1      40.186 -13.553   0.207  1.00  0.00     0.049 A 
HETATM   19  C   UNL     1      40.501 -12.646  -0.807  1.00  0.00     0.102 A 
HETATM   20  C   UNL     1      41.044 -11.389  -0.517  1.00  0.00     0.102 A 
HETATM   21  C   UNL     1      41.290 -11.066   0.818  1.00  0.00     0.040 A 
HETATM   22  C   UNL     1      40.988 -11.978   1.842  1.00  0.00     0.012 A 
BRANCH  19  23
HETATM   23  O   UNL     1      40.169 -12.989  -2.093  1.00  0.00    -0.353 OA
HETATM   24  C   UNL     1      39.486 -14.242  -2.113  1.00  0.00     0.210 C 
ENDBRANCH  19  23
BRANCH  20  25
HETATM   25  O   UNL     1      41.288 -10.577  -1.589  1.00  0.00    -0.348 OA
BRANCH  25  26
HETATM   26  C   UNL     1      40.616  -9.318  -1.642  1.00  0.00     0.175 C 
BRANCH  26  27
HETATM   27  C   UNL     1      41.588  -8.293  -2.219  1.00  0.00     0.022 C 
HETATM   28  C   UNL     1      42.866  -8.201  -1.404  1.00  0.00     0.007 C 
ENDBRANCH  26  27
ENDBRANCH  25  26
ENDBRANCH  20  25
ENDBRANCH   1  17
BRANCH  15  29
HETATM   29  O   UNL     1      44.673 -19.382   5.059  1.00  0.00    -0.356 OA
HETATM   30  C   UNL     1      44.303 -20.718   5.381  1.00  0.00     0.210 C 
ENDBRANCH  15  29
TORSDOF 6
ENDMDL
MODEL 6
REMARK VINA RESULT:      -7.3      2.986      8.238
REMARK  6 active torsions:
REMARK  status: ('A' for Active; 'I' for Inactive)
REMARK    1  A    between atoms: C_2  and  C_3 
REMARK    2  A    between atoms: C_3  and  O_4 
REMARK    3  A    between atoms: O_4  and  C_5 
REMARK    4  A    between atoms: C_6  and  O_7 
REMARK    5  A    between atoms: C_10  and  C_11 
REMARK    6  A    between atoms: C_25  and  O_26 
ROOT
HETATM    1  C   UNL     1      39.763 -15.278   2.321  1.00  0.00     0.269 C 
HETATM    2  N   UNL     1      39.669 -15.521   0.832  1.00  0.00    -0.061 N 
HETATM    3  H   UNL     1      38.674 -15.536   0.588  1.00  0.00     0.278 HD
HETATM    4  H   UNL     1      40.045 -16.454   0.629  1.00  0.00     0.278 HD
HETATM    5  C   UNL     1      40.361 -14.492  -0.030  1.00  0.00     0.238 C 
HETATM    6  C   UNL     1      39.741 -13.098   0.176  1.00  0.00     0.069 C 
HETATM    7  C   UNL     1      39.578 -12.817   1.630  1.00  0.00    -0.019 A 
HETATM    8  C   UNL     1      39.602 -13.820   2.580  1.00  0.00     0.052 A 
HETATM    9  N   UNL     1      39.436 -13.242   3.813  1.00  0.00    -0.356 N 
HETATM   10  H   UNL     1      39.430 -13.714   4.710  1.00  0.00     0.166 HD
HETATM   11  C   UNL     1      39.270 -11.881   3.666  1.00  0.00     0.043 A 
HETATM   12  C   UNL     1      39.348 -11.589   2.303  1.00  0.00     0.002 A 
HETATM   13  C   UNL     1      39.055 -10.891   4.631  1.00  0.00     0.033 A 
HETATM   14  C   UNL     1      38.891  -9.571   4.190  1.00  0.00     0.039 A 
HETATM   15  C   UNL     1      38.946  -9.250   2.834  1.00  0.00     0.069 A 
HETATM   16  C   UNL     1      39.188 -10.255   1.888  1.00  0.00     0.051 A 
ENDROOT
BRANCH   1  17
HETATM   17  C   UNL     1      41.009 -15.920   2.897  1.00  0.00    -0.019 A 
HETATM   18  C   UNL     1      41.074 -16.129   4.283  1.00  0.00     0.049 A 
HETATM   19  C   UNL     1      42.185 -16.752   4.856  1.00  0.00     0.102 A 
HETATM   20  C   UNL     1      43.248 -17.213   4.070  1.00  0.00     0.102 A 
HETATM   21  C   UNL     1      43.186 -17.014   2.691  1.00  0.00     0.040 A 
HETATM   22  C   UNL     1      42.078 -16.377   2.108  1.00  0.00     0.012 A 
BRANCH  19  23
HETATM   23  O   UNL     1      42.157 -16.986   6.207  1.00  0.00    -0.353 OA
HETATM   24  C   UNL     1      41.867 -15.781   6.915  1.00  0.00     0.210 C 
ENDBRANCH  19  23
BRANCH  20  25
HETATM   25  O   UNL     1      44.269 -17.829   4.739  1.00  0.00    -0.348 OA
BRANCH  25  26
HETATM   26  C   UNL     1      44.872 -18.973   4.134  1.00  0.00     0.175 C 
BRANCH  26  27
HETATM   27  C   UNL     1      44.023 -20.191   4.486  1.00  0.00     0.022 C 
HETATM   28  C   UNL     1      43.697 -20.246   5.968  1.00  0.00     0.007 C 
ENDBRANCH  26  27
ENDBRANCH  25  26
ENDBRANCH  20  25
ENDBRANCH   1  17
BRANCH  15  29
HETATM   29  O   UNL     1      38.787  -8.001   2.297  1.00  0.00    -0.356 OA
HETATM   30  C   UNL     1      39.962  -7.214   2.136  1.00  0.00     0.210 C 
ENDBRANCH  15  29
TORSDOF 6
ENDMDL
MODEL 7
REMARK VINA RESULT:      -7.2      3.489      8.128
REMARK  6 active torsions:
REMARK  status: ('A' for Active; 'I' for Inactive)
REMARK    1  A    between atoms: C_2  and  C_3 
REMARK    2  A    between atoms: C_3  and  O_4 
REMARK    3  A    between atoms: O_4  and  C_5 
REMARK    4  A    between atoms: C_6  and  O_7 
REMARK    5  A    between atoms: C_10  and  C_11 
REMARK    6  A    between atoms: C_25  and  O_26 
ROOT
HETATM    1  C   UNL     1      40.806 -14.835   4.736  1.00  0.00     0.269 C 
HETATM    2  N   UNL     1      41.210 -16.291   4.729  1.00  0.00    -0.061 N 
HETATM    3  H   UNL     1      40.348 -16.846   4.702  1.00  0.00     0.278 HD
HETATM    4  H   UNL     1      41.680 -16.504   5.616  1.00  0.00     0.278 HD
HETATM    5  C   UNL     1      42.087 -16.707   3.572  1.00  0.00     0.238 C 
HETATM    6  C   UNL     1      41.361 -16.499   2.230  1.00  0.00     0.069 C 
HETATM    7  C   UNL     1      40.724 -15.152   2.194  1.00  0.00    -0.019 A 
HETATM    8  C   UNL     1      40.493 -14.417   3.341  1.00  0.00     0.052 A 
HETATM    9  N   UNL     1      39.909 -13.231   2.975  1.00  0.00    -0.356 N 
HETATM   10  H   UNL     1      39.640 -12.471   3.589  1.00  0.00     0.166 HD
HETATM   11  C   UNL     1      39.728 -13.209   1.608  1.00  0.00     0.043 A 
HETATM   12  C   UNL     1      40.225 -14.408   1.095  1.00  0.00     0.002 A 
HETATM   13  C   UNL     1      39.162 -12.224   0.792  1.00  0.00     0.033 A 
HETATM   14  C   UNL     1      39.079 -12.481  -0.584  1.00  0.00     0.039 A 
HETATM   15  C   UNL     1      39.551 -13.676  -1.124  1.00  0.00     0.069 A 
HETATM   16  C   UNL     1      40.137 -14.638  -0.291  1.00  0.00     0.051 A 
ENDROOT
BRANCH   1  17
HETATM   17  C   UNL     1      41.833 -13.992   5.466  1.00  0.00    -0.019 A 
HETATM   18  C   UNL     1      41.597 -12.615   5.598  1.00  0.00     0.049 A 
HETATM   19  C   UNL     1      42.494 -11.804   6.295  1.00  0.00     0.102 A 
HETATM   20  C   UNL     1      43.633 -12.338   6.908  1.00  0.00     0.102 A 
HETATM   21  C   UNL     1      43.870 -13.707   6.787  1.00  0.00     0.040 A 
HETATM   22  C   UNL     1      42.979 -14.528   6.077  1.00  0.00     0.012 A 
BRANCH  19  23
HETATM   23  O   UNL     1      42.171 -10.479   6.443  1.00  0.00    -0.353 OA
HETATM   24  C   UNL     1      41.925  -9.881   5.171  1.00  0.00     0.210 C 
ENDBRANCH  19  23
BRANCH  20  25
HETATM   25  O   UNL     1      44.425 -11.451   7.584  1.00  0.00    -0.348 OA
BRANCH  25  26
HETATM   26  C   UNL     1      45.652 -11.047   6.973  1.00  0.00     0.175 C 
BRANCH  26  27
HETATM   27  C   UNL     1      46.256  -9.938   7.829  1.00  0.00     0.022 C 
HETATM   28  C   UNL     1      45.455  -9.698   9.096  1.00  0.00     0.007 C 
ENDBRANCH  26  27
ENDBRANCH  25  26
ENDBRANCH  20  25
ENDBRANCH   1  17
BRANCH  15  29
HETATM   29  O   UNL     1      39.507 -14.033  -2.445  1.00  0.00    -0.356 OA
HETATM   30  C   UNL     1      38.629 -15.097  -2.798  1.00  0.00     0.210 C 
ENDBRANCH  15  29
TORSDOF 6
ENDMDL
MODEL 8
REMARK VINA RESULT:      -7.2     15.242     18.329
REMARK  6 active torsions:
REMARK  status: ('A' for Active; 'I' for Inactive)
REMARK    1  A    between atoms: C_2  and  C_3 
REMARK    2  A    between atoms: C_3  and  O_4 
REMARK    3  A    between atoms: O_4  and  C_5 
REMARK    4  A    between atoms: C_6  and  O_7 
REMARK    5  A    between atoms: C_10  and  C_11 
REMARK    6  A    between atoms: C_25  and  O_26 
ROOT
HETATM    1  C   UNL     1      44.641 -29.363   1.902  1.00  0.00     0.269 C 
HETATM    2  N   UNL     1      43.800 -30.542   2.335  1.00  0.00    -0.061 N 
HETATM    3  H   UNL     1      42.818 -30.251   2.284  1.00  0.00     0.278 HD
HETATM    4  H   UNL     1      44.005 -30.745   3.319  1.00  0.00     0.278 HD
HETATM    5  C   UNL     1      43.975 -31.792   1.507  1.00  0.00     0.238 C 
HETATM    6  C   UNL     1      43.569 -31.543   0.043  1.00  0.00     0.069 C 
HETATM    7  C   UNL     1      44.172 -30.272  -0.449  1.00  0.00    -0.019 A 
HETATM    8  C   UNL     1      44.658 -29.307   0.413  1.00  0.00     0.052 A 
HETATM    9  N   UNL     1      45.151 -28.273  -0.341  1.00  0.00    -0.356 N 
HETATM   10  H   UNL     1      45.594 -27.428   0.001  1.00  0.00     0.166 HD
HETATM   11  C   UNL     1      44.956 -28.544  -1.679  1.00  0.00     0.043 A 
HETATM   12  C   UNL     1      44.336 -29.791  -1.773  1.00  0.00     0.002 A 
HETATM   13  C   UNL     1      45.278 -27.782  -2.807  1.00  0.00     0.033 A 
HETATM   14  C   UNL     1      44.935 -28.297  -4.065  1.00  0.00     0.039 A 
HETATM   15  C   UNL     1      44.299 -29.531  -4.191  1.00  0.00     0.069 A 
HETATM   16  C   UNL     1      44.009 -30.288  -3.048  1.00  0.00     0.051 A 
ENDROOT
BRANCH   1  17
HETATM   17  C   UNL     1      45.996 -29.387   2.580  1.00  0.00    -0.019 A 
HETATM   18  C   UNL     1      46.223 -30.337   3.588  1.00  0.00     0.049 A 
HETATM   19  C   UNL     1      47.467 -30.424   4.215  1.00  0.00     0.102 A 
HETATM   20  C   UNL     1      48.531 -29.594   3.841  1.00  0.00     0.102 A 
HETATM   21  C   UNL     1      48.313 -28.652   2.835  1.00  0.00     0.040 A 
HETATM   22  C   UNL     1      47.061 -28.550   2.208  1.00  0.00     0.012 A 
BRANCH  19  23
HETATM   23  O   UNL     1      47.644 -31.417   5.145  1.00  0.00    -0.353 OA
HETATM   24  C   UNL     1      46.568 -31.417   6.083  1.00  0.00     0.210 C 
ENDBRANCH  19  23
BRANCH  20  25
HETATM   25  O   UNL     1      49.708 -29.787   4.508  1.00  0.00    -0.348 OA
BRANCH  25  26
HETATM   26  C   UNL     1      50.760 -30.473   3.828  1.00  0.00     0.175 C 
BRANCH  26  27
HETATM   27  C   UNL     1      51.140 -31.692   4.664  1.00  0.00     0.022 C 
HETATM   28  C   UNL     1      51.938 -31.308   5.897  1.00  0.00     0.007 C 
ENDBRANCH  26  27
ENDBRANCH  25  26
ENDBRANCH  20  25
ENDBRANCH   1  17
BRANCH  15  29
HETATM   29  O   UNL     1      43.910 -30.118  -5.364  1.00  0.00    -0.356 OA
HETATM   30  C   UNL     1      44.172 -31.510  -5.508  1.00  0.00     0.210 C 
ENDBRANCH  15  29
TORSDOF 6
ENDMDL
MODEL 9
REMARK VINA RESULT:      -6.9      3.858      6.340
REMARK  6 active torsions:
REMARK  status: ('A' for Active; 'I' for Inactive)
REMARK    1  A    between atoms: C_2  and  C_3 
REMARK    2  A    between atoms: C_3  and  O_4 
REMARK    3  A    between atoms: O_4  and  C_5 
REMARK    4  A    between atoms: C_6  and  O_7 
REMARK    5  A    between atoms: C_10  and  C_11 
REMARK    6  A    between atoms: C_25  and  O_26 
ROOT
HETATM    1  C   UNL     1      42.048 -13.087   2.930  1.00  0.00     0.269 C 
HETATM    2  N   UNL     1      41.396 -13.032   1.567  1.00  0.00    -0.061 N 
HETATM    3  H   UNL     1      42.148 -12.990   0.871  1.00  0.00     0.278 HD
HETATM    4  H   UNL     1      40.866 -12.157   1.494  1.00  0.00     0.278 HD
HETATM    5  C   UNL     1      40.500 -14.202   1.238  1.00  0.00     0.238 C 
HETATM    6  C   UNL     1      41.296 -15.520   1.234  1.00  0.00     0.069 C 
HETATM    7  C   UNL     1      42.159 -15.602   2.446  1.00  0.00    -0.019 A 
HETATM    8  C   UNL     1      42.476 -14.488   3.200  1.00  0.00     0.052 A 
HETATM    9  N   UNL     1      43.271 -14.893   4.242  1.00  0.00    -0.356 N 
HETATM   10  H   UNL     1      43.648 -14.311   4.981  1.00  0.00     0.166 HD
HETATM   11  C   UNL     1      43.500 -16.250   4.148  1.00  0.00     0.043 A 
HETATM   12  C   UNL     1      42.818 -16.717   3.023  1.00  0.00     0.002 A 
HETATM   13  C   UNL     1      44.257 -17.093   4.968  1.00  0.00     0.033 A 
HETATM   14  C   UNL     1      44.340 -18.447   4.615  1.00  0.00     0.039 A 
HETATM   15  C   UNL     1      43.685 -18.942   3.488  1.00  0.00     0.069 A 
HETATM   16  C   UNL     1      42.912 -18.083   2.696  1.00  0.00     0.051 A 
ENDROOT
BRANCH   1  17
HETATM   17  C   UNL     1      41.160 -12.451   3.980  1.00  0.00    -0.019 A 
HETATM   18  C   UNL     1      41.021 -11.055   3.982  1.00  0.00     0.049 A 
HETATM   19  C   UNL     1      40.185 -10.425   4.906  1.00  0.00     0.102 A 
HETATM   20  C   UNL     1      39.438 -11.162   5.833  1.00  0.00     0.102 A 
HETATM   21  C   UNL     1      39.566 -12.551   5.831  1.00  0.00     0.040 A 
HETATM   22  C   UNL     1      40.415 -13.191   4.913  1.00  0.00     0.012 A 
BRANCH  19  23
HETATM   23  O   UNL     1      40.043  -9.064   4.812  1.00  0.00    -0.353 OA
HETATM   24  C   UNL     1      41.318  -8.425   4.872  1.00  0.00     0.210 C 
ENDBRANCH  19  23
BRANCH  20  25
HETATM   25  O   UNL     1      38.635 -10.439   6.670  1.00  0.00    -0.348 OA
BRANCH  25  26
HETATM   26  C   UNL     1      38.938 -10.452   8.066  1.00  0.00     0.175 C 
BRANCH  26  27
HETATM   27  C   UNL     1      39.973  -9.362   8.329  1.00  0.00     0.022 C 
HETATM   28  C   UNL     1      39.380  -7.971   8.195  1.00  0.00     0.007 C 
ENDBRANCH  26  27
ENDBRANCH  25  26
ENDBRANCH  20  25
ENDBRANCH   1  17
BRANCH  15  29
HETATM   29  O   UNL     1      43.711 -20.237   3.049  1.00  0.00    -0.356 OA
HETATM   30  C   UNL     1      43.588 -20.445   1.645  1.00  0.00     0.210 C 
ENDBRANCH  15  29
TORSDOF 6
ENDMDL
MODEL 10
REMARK VINA RESULT:      -6.7      2.386      8.565
REMARK  6 active torsions:
REMARK  status: ('A' for Active; 'I' for Inactive)
REMARK    1  A    between atoms: C_2  and  C_3 
REMARK    2  A    between atoms: C_3  and  O_4 
REMARK    3  A    between atoms: O_4  and  C_5 
REMARK    4  A    between atoms: C_6  and  O_7 
REMARK    5  A    between atoms: C_10  and  C_11 
REMARK    6  A    between atoms: C_25  and  O_26 
ROOT
HETATM    1  C   UNL     1      39.934 -13.120   0.658  1.00  0.00     0.269 C 
HETATM    2  N   UNL     1      39.087 -13.975  -0.256  1.00  0.00    -0.061 N 
HETATM    3  H   UNL     1      38.164 -13.534  -0.319  1.00  0.00     0.278 HD
HETATM    4  H   UNL     1      38.956 -14.893   0.183  1.00  0.00     0.278 HD
HETATM    5  C   UNL     1      39.631 -14.151  -1.655  1.00  0.00     0.238 C 
HETATM    6  C   UNL     1      39.736 -12.795  -2.377  1.00  0.00     0.069 C 
HETATM    7  C   UNL     1      40.373 -11.785  -1.486  1.00  0.00    -0.019 A 
HETATM    8  C   UNL     1      40.458 -11.961  -0.118  1.00  0.00     0.052 A 
HETATM    9  N   UNL     1      41.100 -10.871   0.412  1.00  0.00    -0.356 N 
HETATM   10  H   UNL     1      41.332 -10.716   1.386  1.00  0.00     0.166 HD
HETATM   11  C   UNL     1      41.399  -9.977  -0.595  1.00  0.00     0.043 A 
HETATM   12  C   UNL     1      40.946 -10.526  -1.796  1.00  0.00     0.002 A 
HETATM   13  C   UNL     1      42.030  -8.731  -0.533  1.00  0.00     0.033 A 
HETATM   14  C   UNL     1      42.181  -8.013  -1.728  1.00  0.00     0.039 A 
HETATM   15  C   UNL     1      41.723  -8.525  -2.941  1.00  0.00     0.069 A 
HETATM   16  C   UNL     1      41.117  -9.787  -2.982  1.00  0.00     0.051 A 
ENDROOT
BRANCH   1  17
HETATM   17  C   UNL     1      40.970 -13.959   1.377  1.00  0.00    -0.019 A 
HETATM   18  C   UNL     1      41.149 -13.765   2.756  1.00  0.00     0.049 A 
HETATM   19  C   UNL     1      42.064 -14.541   3.470  1.00  0.00     0.102 A 
HETATM   20  C   UNL     1      42.805 -15.551   2.846  1.00  0.00     0.102 A 
HETATM   21  C   UNL     1      42.627 -15.754   1.478  1.00  0.00     0.040 A 
HETATM   22  C   UNL     1      41.718 -14.970   0.750  1.00  0.00     0.012 A 
BRANCH  19  23
HETATM   23  O   UNL     1      42.143 -14.346   4.825  1.00  0.00    -0.353 OA
HETATM   24  C   UNL     1      41.793 -13.002   5.156  1.00  0.00     0.210 C 
ENDBRANCH  19  23
BRANCH  20  25
HETATM   25  O   UNL     1      43.652 -16.262   3.651  1.00  0.00    -0.348 OA
BRANCH  25  26
HETATM   26  C   UNL     1      43.283 -17.597   3.999  1.00  0.00     0.175 C 
BRANCH  26  27
HETATM   27  C   UNL     1      44.145 -18.549   3.174  1.00  0.00     0.022 C 
HETATM   28  C   UNL     1      43.305 -19.508   2.351  1.00  0.00     0.007 C 
ENDBRANCH  26  27
ENDBRANCH  25  26
ENDBRANCH  20  25
ENDBRANCH   1  17
BRANCH  15  29
HETATM   29  O   UNL     1      41.808  -7.904  -4.157  1.00  0.00    -0.356 OA
HETATM   30  C   UNL     1      42.858  -6.957  -4.327  1.00  0.00     0.210 C 
ENDBRANCH  15  29
TORSDOF 6
ENDMDL
