MODEL 1
REMARK VINA RESULT:      -9.8      0.000      0.000
REMARK  5 active torsions:
REMARK  status: ('A' for Active; 'I' for Inactive)
REMARK    1  A    between atoms: C_3  and  O_4 
REMARK    2  A    between atoms: C_6  and  N_7 
REMARK       I    between atoms: N_7  and  C_8 
REMARK    3  A    between atoms: C_8  and  C_9 
REMARK    4  A    between atoms: C_12  and  C_13 
REMARK    5  A    between atoms: C_18  and  C_19 
ROOT
HETATM    1  C   UNL     1      40.751 -13.978   2.176  1.00  0.00     0.096 C 
HETATM    2  C   UNL     1      41.621 -14.723   2.949  1.00  0.00     0.138 C 
HETATM    3  N   UNL     1      41.995 -13.903   3.991  1.00  0.00    -0.240 N 
HETATM    4  C   UNL     1      42.949 -14.269   5.025  1.00  0.00     0.221 C 
HETATM    5  C   UNL     1      43.173 -15.792   5.037  1.00  0.00     0.066 C 
HETATM    6  C   UNL     1      43.328 -16.316   3.606  1.00  0.00     0.118 C 
HETATM    7  N   UNL     1      42.122 -15.986   2.834  1.00  0.00    -0.365 N 
HETATM    8  N   UNL     1      41.570 -12.639   3.851  1.00  0.00    -0.181 NA
HETATM    9  C   UNL     1      40.788 -12.693   2.769  1.00  0.00     0.160 C 
HETATM   10  H   UNL     1      42.162 -16.392   1.896  1.00  0.00     0.161 HD
ENDROOT
BRANCH   1  11
HETATM   11  C   UNL     1      39.996 -14.361   0.993  1.00  0.00     0.261 C 
HETATM   12  N   UNL     1      39.638 -13.285   0.202  1.00  0.00    -0.323 N 
HETATM   13  H   UNL     1      40.039 -12.394   0.475  1.00  0.00     0.169 HD
HETATM   14  O   UNL     1      39.765 -15.541   0.759  1.00  0.00    -0.267 OA
BRANCH  12  15
HETATM   15  C   UNL     1      38.866 -13.297  -0.976  1.00  0.00     0.037 A 
HETATM   16  C   UNL     1      38.971 -14.272  -1.970  1.00  0.00     0.066 A 
HETATM   17  C   UNL     1      38.155 -14.208  -3.098  1.00  0.00     0.067 A 
HETATM   18  C   UNL     1      37.228 -13.184  -3.260  1.00  0.00     0.036 A 
HETATM   19  C   UNL     1      37.114 -12.209  -2.271  1.00  0.00     0.005 A 
HETATM   20  C   UNL     1      37.926 -12.268  -1.134  1.00  0.00     0.029 A 
BRANCH  17  21
HETATM   21  O   UNL     1      38.292 -15.188  -4.038  1.00  0.00    -0.361 OA
HETATM   22  H   UNL     1      38.401 -16.042  -3.589  1.00  0.00     0.217 HD
ENDBRANCH  17  21
ENDBRANCH  12  15
ENDBRANCH   1  11
BRANCH   4  23
HETATM   23  C   UNL     1      42.500 -13.810   6.394  1.00  0.00     0.409 C 
HETATM   24  F   UNL     1      41.174 -13.992   6.589  1.00  0.00    -0.169 F 
HETATM   25  F   UNL     1      43.135 -14.546   7.348  1.00  0.00    -0.169 F 
HETATM   26  F   UNL     1      42.796 -12.522   6.660  1.00  0.00    -0.169 F 
ENDBRANCH   4  23
BRANCH   6  27
HETATM   27  C   UNL     1      43.558 -17.814   3.580  1.00  0.00    -0.035 A 
HETATM   28  C   UNL     1      43.266 -18.581   2.436  1.00  0.00     0.012 A 
HETATM   29  C   UNL     1      43.464 -19.963   2.437  1.00  0.00     0.043 A 
HETATM   30  C   UNL     1      43.952 -20.584   3.579  1.00  0.00     0.116 A 
HETATM   31  F   UNL     1      44.139 -21.911   3.581  1.00  0.00    -0.206 F 
HETATM   32  C   UNL     1      44.246 -19.851   4.721  1.00  0.00     0.043 A 
HETATM   33  C   UNL     1      44.050 -18.469   4.723  1.00  0.00     0.012 A 
ENDBRANCH   6  27
TORSDOF 5
ENDMDL
MODEL 2
REMARK VINA RESULT:      -9.6      4.037      7.214
REMARK  5 active torsions:
REMARK  status: ('A' for Active; 'I' for Inactive)
REMARK    1  A    between atoms: C_3  and  O_4 
REMARK    2  A    between atoms: C_6  and  N_7 
REMARK       I    between atoms: N_7  and  C_8 
REMARK    3  A    between atoms: C_8  and  C_9 
REMARK    4  A    between atoms: C_12  and  C_13 
REMARK    5  A    between atoms: C_18  and  C_19 
ROOT
HETATM    1  C   UNL     1      42.492 -12.307   3.411  1.00  0.00     0.096 C 
HETATM    2  C   UNL     1      42.176 -13.640   3.225  1.00  0.00     0.138 C 
HETATM    3  N   UNL     1      41.092 -13.654   2.375  1.00  0.00    -0.240 N 
HETATM    4  C   UNL     1      40.396 -14.857   1.950  1.00  0.00     0.221 C 
HETATM    5  C   UNL     1      41.251 -16.105   2.237  1.00  0.00     0.066 C 
HETATM    6  C   UNL     1      41.873 -16.011   3.633  1.00  0.00     0.118 C 
HETATM    7  N   UNL     1      42.700 -14.799   3.717  1.00  0.00    -0.365 N 
HETATM    8  N   UNL     1      40.584 -12.436   2.141  1.00  0.00    -0.181 NA
HETATM    9  C   UNL     1      41.453 -11.617   2.742  1.00  0.00     0.160 C 
HETATM   10  H   UNL     1      43.192 -14.750   4.612  1.00  0.00     0.161 HD
ENDROOT
BRANCH   1  11
HETATM   11  C   UNL     1      43.588 -11.706   4.154  1.00  0.00     0.261 C 
HETATM   12  N   UNL     1      43.378 -11.690   5.520  1.00  0.00    -0.323 N 
HETATM   13  H   UNL     1      42.558 -12.196   5.838  1.00  0.00     0.169 HD
HETATM   14  O   UNL     1      44.588 -11.306   3.570  1.00  0.00    -0.267 OA
BRANCH  12  15
HETATM   15  C   UNL     1      44.207 -11.140   6.517  1.00  0.00     0.037 A 
HETATM   16  C   UNL     1      45.603 -11.138   6.460  1.00  0.00     0.066 A 
HETATM   17  C   UNL     1      46.342 -10.558   7.490  1.00  0.00     0.067 A 
HETATM   18  C   UNL     1      45.715  -9.975   8.586  1.00  0.00     0.036 A 
HETATM   19  C   UNL     1      44.324  -9.969   8.648  1.00  0.00     0.005 A 
HETATM   20  C   UNL     1      43.574 -10.545   7.618  1.00  0.00     0.029 A 
BRANCH  17  21
HETATM   21  O   UNL     1      47.702 -10.578   7.384  1.00  0.00    -0.361 OA
HETATM   22  H   UNL     1      47.945 -10.644   6.446  1.00  0.00     0.217 HD
ENDBRANCH  17  21
ENDBRANCH  12  15
ENDBRANCH   1  11
BRANCH   4  23
HETATM   23  C   UNL     1      40.039 -14.812   0.480  1.00  0.00     0.409 C 
HETATM   24  F   UNL     1      39.223 -13.777   0.180  1.00  0.00    -0.169 F 
HETATM   25  F   UNL     1      41.171 -14.637  -0.254  1.00  0.00    -0.169 F 
HETATM   26  F   UNL     1      39.472 -15.948   0.025  1.00  0.00    -0.169 F 
ENDBRANCH   4  23
BRANCH   6  27
HETATM   27  C   UNL     1      42.718 -17.229   3.953  1.00  0.00    -0.035 A 
HETATM   28  C   UNL     1      43.178 -18.089   2.937  1.00  0.00     0.012 A 
HETATM   29  C   UNL     1      43.937 -19.217   3.251  1.00  0.00     0.043 A 
HETATM   30  C   UNL     1      44.237 -19.494   4.579  1.00  0.00     0.116 A 
HETATM   31  F   UNL     1      44.963 -20.579   4.881  1.00  0.00    -0.206 F 
HETATM   32  C   UNL     1      43.794 -18.663   5.600  1.00  0.00     0.043 A 
HETATM   33  C   UNL     1      43.035 -17.533   5.288  1.00  0.00     0.012 A 
ENDBRANCH   6  27
TORSDOF 5
ENDMDL
MODEL 3
REMARK VINA RESULT:      -9.2      4.007      7.526
REMARK  5 active torsions:
REMARK  status: ('A' for Active; 'I' for Inactive)
REMARK    1  A    between atoms: C_3  and  O_4 
REMARK    2  A    between atoms: C_6  and  N_7 
REMARK       I    between atoms: N_7  and  C_8 
REMARK    3  A    between atoms: C_8  and  C_9 
REMARK    4  A    between atoms: C_12  and  C_13 
REMARK    5  A    between atoms: C_18  and  C_19 
ROOT
HETATM    1  C   UNL     1      41.608 -14.466   2.590  1.00  0.00     0.096 C 
HETATM    2  C   UNL     1      42.098 -13.275   3.093  1.00  0.00     0.138 C 
HETATM    3  N   UNL     1      41.675 -12.296   2.221  1.00  0.00    -0.240 N 
HETATM    4  C   UNL     1      42.011 -10.887   2.340  1.00  0.00     0.221 C 
HETATM    5  C   UNL     1      42.545 -10.577   3.750  1.00  0.00     0.066 C 
HETATM    6  C   UNL     1      43.535 -11.660   4.191  1.00  0.00     0.118 C 
HETATM    7  N   UNL     1      42.864 -12.967   4.178  1.00  0.00    -0.365 N 
HETATM    8  N   UNL     1      41.102 -12.784   1.112  1.00  0.00    -0.181 NA
HETATM    9  C   UNL     1      41.031 -14.097   1.351  1.00  0.00     0.160 C 
HETATM   10  H   UNL     1      43.478 -13.700   4.543  1.00  0.00     0.161 HD
ENDROOT
BRANCH   1  11
HETATM   11  C   UNL     1      41.687 -15.811   3.139  1.00  0.00     0.261 C 
HETATM   12  N   UNL     1      42.918 -16.408   2.942  1.00  0.00    -0.323 N 
HETATM   13  H   UNL     1      43.635 -15.805   2.553  1.00  0.00     0.169 HD
HETATM   14  O   UNL     1      40.735 -16.294   3.739  1.00  0.00    -0.267 OA
BRANCH  12  15
HETATM   15  C   UNL     1      43.313 -17.713   3.297  1.00  0.00     0.037 A 
HETATM   16  C   UNL     1      43.340 -18.791   2.410  1.00  0.00     0.066 A 
HETATM   17  C   UNL     1      43.757 -20.046   2.850  1.00  0.00     0.067 A 
HETATM   18  C   UNL     1      44.151 -20.253   4.167  1.00  0.00     0.036 A 
HETATM   19  C   UNL     1      44.131 -19.182   5.058  1.00  0.00     0.005 A 
HETATM   20  C   UNL     1      43.717 -17.918   4.624  1.00  0.00     0.029 A 
BRANCH  17  21
HETATM   21  O   UNL     1      43.771 -21.065   1.942  1.00  0.00    -0.361 OA
HETATM   22  H   UNL     1      43.953 -20.700   1.062  1.00  0.00     0.217 HD
ENDBRANCH  17  21
ENDBRANCH  12  15
ENDBRANCH   1  11
BRANCH   4  23
HETATM   23  C   UNL     1      40.825  -9.997   2.039  1.00  0.00     0.409 C 
HETATM   24  F   UNL     1      39.671 -10.490   2.543  1.00  0.00    -0.169 F 
HETATM   25  F   UNL     1      41.013  -8.782   2.621  1.00  0.00    -0.169 F 
HETATM   26  F   UNL     1      40.647  -9.757   0.724  1.00  0.00    -0.169 F 
ENDBRANCH   4  23
BRANCH   6  27
HETATM   27  C   UNL     1      44.088 -11.383   5.575  1.00  0.00    -0.035 A 
HETATM   28  C   UNL     1      43.237 -11.106   6.662  1.00  0.00     0.012 A 
HETATM   29  C   UNL     1      43.764 -10.832   7.926  1.00  0.00     0.043 A 
HETATM   30  C   UNL     1      45.141 -10.830   8.108  1.00  0.00     0.116 A 
HETATM   31  F   UNL     1      45.647 -10.565   9.320  1.00  0.00    -0.206 F 
HETATM   32  C   UNL     1      46.002 -11.098   7.052  1.00  0.00     0.043 A 
HETATM   33  C   UNL     1      45.478 -11.374   5.788  1.00  0.00     0.012 A 
ENDBRANCH   6  27
TORSDOF 5
ENDMDL
MODEL 4
REMARK VINA RESULT:      -9.0      3.587      7.737
REMARK  5 active torsions:
REMARK  status: ('A' for Active; 'I' for Inactive)
REMARK    1  A    between atoms: C_3  and  O_4 
REMARK    2  A    between atoms: C_6  and  N_7 
REMARK       I    between atoms: N_7  and  C_8 
REMARK    3  A    between atoms: C_8  and  C_9 
REMARK    4  A    between atoms: C_12  and  C_13 
REMARK    5  A    between atoms: C_18  and  C_19 
ROOT
HETATM    1  C   UNL     1      42.526 -14.085   2.499  1.00  0.00     0.096 C 
HETATM    2  C   UNL     1      41.538 -13.474   1.750  1.00  0.00     0.138 C 
HETATM    3  N   UNL     1      41.370 -12.222   2.300  1.00  0.00    -0.240 N 
HETATM    4  C   UNL     1      40.386 -11.251   1.850  1.00  0.00     0.221 C 
HETATM    5  C   UNL     1      39.848 -11.633   0.459  1.00  0.00     0.066 C 
HETATM    6  C   UNL     1      39.553 -13.135   0.400  1.00  0.00     0.118 C 
HETATM    7  N   UNL     1      40.782 -13.884   0.692  1.00  0.00    -0.365 N 
HETATM    8  N   UNL     1      42.047 -12.048   3.444  1.00  0.00    -0.181 NA
HETATM    9  C   UNL     1      42.774 -13.165   3.546  1.00  0.00     0.160 C 
HETATM   10  H   UNL     1      40.635 -14.891   0.582  1.00  0.00     0.161 HD
ENDROOT
BRANCH   1  11
HETATM   11  C   UNL     1      43.156 -15.384   2.325  1.00  0.00     0.261 C 
HETATM   12  N   UNL     1      42.720 -16.328   3.237  1.00  0.00    -0.323 N 
HETATM   13  H   UNL     1      41.947 -16.037   3.825  1.00  0.00     0.169 HD
HETATM   14  O   UNL     1      43.956 -15.570   1.417  1.00  0.00    -0.267 OA
BRANCH  12  15
HETATM   15  C   UNL     1      43.160 -17.659   3.381  1.00  0.00     0.037 A 
HETATM   16  C   UNL     1      43.109 -18.613   2.362  1.00  0.00     0.066 A 
HETATM   17  C   UNL     1      43.579 -19.905   2.594  1.00  0.00     0.067 A 
HETATM   18  C   UNL     1      44.101 -20.271   3.829  1.00  0.00     0.036 A 
HETATM   19  C   UNL     1      44.158 -19.324   4.850  1.00  0.00     0.005 A 
HETATM   20  C   UNL     1      43.693 -18.024   4.625  1.00  0.00     0.029 A 
BRANCH  17  21
HETATM   21  O   UNL     1      43.513 -20.798   1.564  1.00  0.00    -0.361 OA
HETATM   22  H   UNL     1      44.182 -20.565   0.901  1.00  0.00     0.217 HD
ENDBRANCH  17  21
ENDBRANCH  12  15
ENDBRANCH   1  11
BRANCH   4  23
HETATM   23  C   UNL     1      40.954  -9.850   1.808  1.00  0.00     0.409 C 
HETATM   24  F   UNL     1      42.149  -9.797   1.178  1.00  0.00    -0.169 F 
HETATM   25  F   UNL     1      40.112  -9.042   1.108  1.00  0.00    -0.169 F 
HETATM   26  F   UNL     1      41.089  -9.282   3.024  1.00  0.00    -0.169 F 
ENDBRANCH   4  23
BRANCH   6  27
HETATM   27  C   UNL     1      39.013 -13.546  -0.957  1.00  0.00    -0.035 A 
HETATM   28  C   UNL     1      38.006 -12.802  -1.601  1.00  0.00     0.012 A 
HETATM   29  C   UNL     1      37.507 -13.207  -2.840  1.00  0.00     0.043 A 
HETATM   30  C   UNL     1      38.007 -14.356  -3.439  1.00  0.00     0.116 A 
HETATM   31  F   UNL     1      37.526 -14.746  -4.627  1.00  0.00    -0.206 F 
HETATM   32  C   UNL     1      39.000 -15.108  -2.824  1.00  0.00     0.043 A 
HETATM   33  C   UNL     1      39.503 -14.705  -1.585  1.00  0.00     0.012 A 
ENDBRANCH   6  27
TORSDOF 5
ENDMDL
MODEL 5
REMARK VINA RESULT:      -8.8      4.370      7.922
REMARK  5 active torsions:
REMARK  status: ('A' for Active; 'I' for Inactive)
REMARK    1  A    between atoms: C_3  and  O_4 
REMARK    2  A    between atoms: C_6  and  N_7 
REMARK       I    between atoms: N_7  and  C_8 
REMARK    3  A    between atoms: C_8  and  C_9 
REMARK    4  A    between atoms: C_12  and  C_13 
REMARK    5  A    between atoms: C_18  and  C_19 
ROOT
HETATM    1  C   UNL     1      42.497 -12.583   5.596  1.00  0.00     0.096 C 
HETATM    2  C   UNL     1      42.317 -13.761   4.897  1.00  0.00     0.138 C 
HETATM    3  N   UNL     1      41.529 -13.439   3.813  1.00  0.00    -0.240 N 
HETATM    4  C   UNL     1      41.049 -14.397   2.831  1.00  0.00     0.221 C 
HETATM    5  C   UNL     1      41.846 -15.711   2.925  1.00  0.00     0.066 C 
HETATM    6  C   UNL     1      42.029 -16.116   4.392  1.00  0.00     0.118 C 
HETATM    7  N   UNL     1      42.733 -15.043   5.107  1.00  0.00    -0.365 N 
HETATM    8  N   UNL     1      41.050 -12.188   3.858  1.00  0.00    -0.181 NA
HETATM    9  C   UNL     1      41.664 -11.659   4.920  1.00  0.00     0.160 C 
HETATM   10  H   UNL     1      42.940 -15.317   6.071  1.00  0.00     0.161 HD
ENDROOT
BRANCH   1  11
HETATM   11  C   UNL     1      43.298 -12.317   6.780  1.00  0.00     0.261 C 
HETATM   12  N   UNL     1      43.197 -11.012   7.225  1.00  0.00    -0.323 N 
HETATM   13  H   UNL     1      42.501 -10.446   6.752  1.00  0.00     0.169 HD
HETATM   14  O   UNL     1      43.946 -13.213   7.306  1.00  0.00    -0.267 OA
BRANCH  12  15
HETATM   15  C   UNL     1      43.874 -10.411   8.305  1.00  0.00     0.037 A 
HETATM   16  C   UNL     1      43.375 -10.356   9.608  1.00  0.00     0.066 A 
HETATM   17  C   UNL     1      44.123  -9.750  10.616  1.00  0.00     0.067 A 
HETATM   18  C   UNL     1      45.369  -9.192  10.352  1.00  0.00     0.036 A 
HETATM   19  C   UNL     1      45.876  -9.246   9.055  1.00  0.00     0.005 A 
HETATM   20  C   UNL     1      45.134  -9.855   8.038  1.00  0.00     0.029 A 
BRANCH  17  21
HETATM   21  O   UNL     1      43.594  -9.728  11.873  1.00  0.00    -0.361 OA
HETATM   22  H   UNL     1      42.790  -9.184  11.868  1.00  0.00     0.217 HD
ENDBRANCH  17  21
ENDBRANCH  12  15
ENDBRANCH   1  11
BRANCH   4  23
HETATM   23  C   UNL     1      41.133 -13.852   1.423  1.00  0.00     0.409 C 
HETATM   24  F   UNL     1      42.232 -13.087   1.232  1.00  0.00    -0.169 F 
HETATM   25  F   UNL     1      41.224 -14.886   0.543  1.00  0.00    -0.169 F 
HETATM   26  F   UNL     1      40.050 -13.141   1.051  1.00  0.00    -0.169 F 
ENDBRANCH   4  23
BRANCH   6  27
HETATM   27  C   UNL     1      42.805 -17.412   4.522  1.00  0.00    -0.035 A 
HETATM   28  C   UNL     1      43.050 -17.996   5.779  1.00  0.00     0.012 A 
HETATM   29  C   UNL     1      43.784 -19.179   5.882  1.00  0.00     0.043 A 
HETATM   30  C   UNL     1      44.278 -19.781   4.733  1.00  0.00     0.116 A 
HETATM   31  F   UNL     1      44.985 -20.915   4.832  1.00  0.00    -0.206 F 
HETATM   32  C   UNL     1      44.051 -19.225   3.480  1.00  0.00     0.043 A 
HETATM   33  C   UNL     1      43.316 -18.043   3.374  1.00  0.00     0.012 A 
ENDBRANCH   6  27
TORSDOF 5
ENDMDL
MODEL 6
REMARK VINA RESULT:      -8.8      3.863      7.223
REMARK  5 active torsions:
REMARK  status: ('A' for Active; 'I' for Inactive)
REMARK    1  A    between atoms: C_3  and  O_4 
REMARK    2  A    between atoms: C_6  and  N_7 
REMARK       I    between atoms: N_7  and  C_8 
REMARK    3  A    between atoms: C_8  and  C_9 
REMARK    4  A    between atoms: C_12  and  C_13 
REMARK    5  A    between atoms: C_18  and  C_19 
ROOT
HETATM    1  C   UNL     1      43.306 -14.996   5.837  1.00  0.00     0.096 C 
HETATM    2  C   UNL     1      42.563 -14.220   4.967  1.00  0.00     0.138 C 
HETATM    3  N   UNL     1      42.559 -12.952   5.505  1.00  0.00    -0.240 N 
HETATM    4  C   UNL     1      41.846 -11.820   4.937  1.00  0.00     0.221 C 
HETATM    5  C   UNL     1      41.442 -12.113   3.480  1.00  0.00     0.066 C 
HETATM    6  C   UNL     1      40.880 -13.533   3.362  1.00  0.00     0.118 C 
HETATM    7  N   UNL     1      41.895 -14.496   3.811  1.00  0.00    -0.365 N 
HETATM    8  N   UNL     1      43.094 -12.893   6.733  1.00  0.00    -0.181 NA
HETATM    9  C   UNL     1      43.577 -14.125   6.920  1.00  0.00     0.160 C 
HETATM   10  H   UNL     1      41.578 -15.458   3.669  1.00  0.00     0.161 HD
ENDROOT
BRANCH   1  11
HETATM   11  C   UNL     1      43.698 -16.393   5.734  1.00  0.00     0.261 C 
HETATM   12  N   UNL     1      43.407 -16.953   4.504  1.00  0.00    -0.323 N 
HETATM   13  H   UNL     1      43.073 -16.302   3.801  1.00  0.00     0.169 HD
HETATM   14  O   UNL     1      44.261 -16.950   6.669  1.00  0.00    -0.267 OA
BRANCH  12  15
HETATM   15  C   UNL     1      43.605 -18.285   4.091  1.00  0.00     0.037 A 
HETATM   16  C   UNL     1      43.951 -19.327   4.953  1.00  0.00     0.066 A 
HETATM   17  C   UNL     1      44.114 -20.619   4.456  1.00  0.00     0.067 A 
HETATM   18  C   UNL     1      43.938 -20.898   3.105  1.00  0.00     0.036 A 
HETATM   19  C   UNL     1      43.590 -19.864   2.238  1.00  0.00     0.005 A 
HETATM   20  C   UNL     1      43.420 -18.566   2.730  1.00  0.00     0.029 A 
BRANCH  17  21
HETATM   21  O   UNL     1      44.446 -21.603   5.340  1.00  0.00    -0.361 OA
HETATM   22  H   UNL     1      44.215 -21.313   6.237  1.00  0.00     0.217 HD
ENDBRANCH  17  21
ENDBRANCH  12  15
ENDBRANCH   1  11
BRANCH   4  23
HETATM   23  C   UNL     1      42.669 -10.551   4.991  1.00  0.00     0.409 C 
HETATM   24  F   UNL     1      43.986 -10.783   4.796  1.00  0.00    -0.169 F 
HETATM   25  F   UNL     1      42.273  -9.714   3.993  1.00  0.00    -0.169 F 
HETATM   26  F   UNL     1      42.523  -9.858   6.138  1.00  0.00    -0.169 F 
ENDBRANCH   4  23
BRANCH   6  27
HETATM   27  C   UNL     1      40.464 -13.853   1.940  1.00  0.00    -0.035 A 
HETATM   28  C   UNL     1      40.309 -12.839   0.975  1.00  0.00     0.012 A 
HETATM   29  C   UNL     1      39.905 -13.150  -0.324  1.00  0.00     0.043 A 
HETATM   30  C   UNL     1      39.651 -14.473  -0.665  1.00  0.00     0.116 A 
HETATM   31  F   UNL     1      39.260 -14.771  -1.911  1.00  0.00    -0.206 F 
HETATM   32  C   UNL     1      39.795 -15.492   0.268  1.00  0.00     0.043 A 
HETATM   33  C   UNL     1      40.200 -15.183   1.568  1.00  0.00     0.012 A 
ENDBRANCH   6  27
TORSDOF 5
ENDMDL
MODEL 7
REMARK VINA RESULT:      -8.8      1.847      2.657
REMARK  5 active torsions:
REMARK  status: ('A' for Active; 'I' for Inactive)
REMARK    1  A    between atoms: C_3  and  O_4 
REMARK    2  A    between atoms: C_6  and  N_7 
REMARK       I    between atoms: N_7  and  C_8 
REMARK    3  A    between atoms: C_8  and  C_9 
REMARK    4  A    between atoms: C_12  and  C_13 
REMARK    5  A    between atoms: C_18  and  C_19 
ROOT
HETATM    1  C   UNL     1      41.339 -11.608   1.271  1.00  0.00     0.096 C 
HETATM    2  C   UNL     1      41.926 -12.448   2.200  1.00  0.00     0.138 C 
HETATM    3  N   UNL     1      42.160 -11.671   3.314  1.00  0.00    -0.240 N 
HETATM    4  C   UNL     1      42.816 -12.142   4.522  1.00  0.00     0.221 C 
HETATM    5  C   UNL     1      42.849 -13.681   4.553  1.00  0.00     0.066 C 
HETATM    6  C   UNL     1      43.247 -14.230   3.179  1.00  0.00     0.118 C 
HETATM    7  N   UNL     1      42.285 -13.763   2.172  1.00  0.00    -0.365 N 
HETATM    8  N   UNL     1      41.928 -10.367   3.111  1.00  0.00    -0.181 NA
HETATM    9  C   UNL     1      41.399 -10.333   1.884  1.00  0.00     0.160 C 
HETATM   10  H   UNL     1      42.479 -14.177   1.257  1.00  0.00     0.161 HD
ENDROOT
BRANCH   1  11
HETATM   11  C   UNL     1      40.819 -11.906  -0.053  1.00  0.00     0.261 C 
HETATM   12  N   UNL     1      39.739 -12.769  -0.034  1.00  0.00    -0.323 N 
HETATM   13  H   UNL     1      39.377 -12.989   0.888  1.00  0.00     0.169 HD
HETATM   14  O   UNL     1      41.309 -11.381  -1.046  1.00  0.00    -0.267 OA
BRANCH  12  15
HETATM   15  C   UNL     1      39.035 -13.299  -1.134  1.00  0.00     0.037 A 
HETATM   16  C   UNL     1      37.958 -12.661  -1.753  1.00  0.00     0.066 A 
HETATM   17  C   UNL     1      37.330 -13.258  -2.845  1.00  0.00     0.067 A 
HETATM   18  C   UNL     1      37.754 -14.487  -3.338  1.00  0.00     0.036 A 
HETATM   19  C   UNL     1      38.830 -15.127  -2.727  1.00  0.00     0.005 A 
HETATM   20  C   UNL     1      39.469 -14.534  -1.634  1.00  0.00     0.029 A 
BRANCH  17  21
HETATM   21  O   UNL     1      36.286 -12.591  -3.419  1.00  0.00    -0.361 OA
HETATM   22  H   UNL     1      35.494 -12.713  -2.871  1.00  0.00     0.217 HD
ENDBRANCH  17  21
ENDBRANCH  12  15
ENDBRANCH   1  11
BRANCH   4  23
HETATM   23  C   UNL     1      42.138 -11.623   5.771  1.00  0.00     0.409 C 
HETATM   24  F   UNL     1      42.371 -10.308   5.975  1.00  0.00    -0.169 F 
HETATM   25  F   UNL     1      40.790 -11.761   5.643  1.00  0.00    -0.169 F 
HETATM   26  F   UNL     1      42.476 -12.294   6.891  1.00  0.00    -0.169 F 
ENDBRANCH   4  23
BRANCH   6  27
HETATM   27  C   UNL     1      43.297 -15.745   3.175  1.00  0.00    -0.035 A 
HETATM   28  C   UNL     1      43.582 -16.473   4.347  1.00  0.00     0.012 A 
HETATM   29  C   UNL     1      43.645 -17.867   4.320  1.00  0.00     0.043 A 
HETATM   30  C   UNL     1      43.427 -18.540   3.125  1.00  0.00     0.116 A 
HETATM   31  F   UNL     1      43.490 -19.878   3.099  1.00  0.00    -0.206 F 
HETATM   32  C   UNL     1      43.145 -17.846   1.955  1.00  0.00     0.043 A 
HETATM   33  C   UNL     1      43.081 -16.452   1.979  1.00  0.00     0.012 A 
ENDBRANCH   6  27
TORSDOF 5
ENDMDL
MODEL 8
REMARK VINA RESULT:      -8.8      2.230      5.254
REMARK  5 active torsions:
REMARK  status: ('A' for Active; 'I' for Inactive)
REMARK    1  A    between atoms: C_3  and  O_4 
REMARK    2  A    between atoms: C_6  and  N_7 
REMARK       I    between atoms: N_7  and  C_8 
REMARK    3  A    between atoms: C_8  and  C_9 
REMARK    4  A    between atoms: C_12  and  C_13 
REMARK    5  A    between atoms: C_18  and  C_19 
ROOT
HETATM    1  C   UNL     1      41.473 -15.020   2.227  1.00  0.00     0.096 C 
HETATM    2  C   UNL     1      41.983 -14.800   3.493  1.00  0.00     0.138 C 
HETATM    3  N   UNL     1      42.295 -16.045   3.994  1.00  0.00    -0.240 N 
HETATM    4  C   UNL     1      42.816 -16.288   5.329  1.00  0.00     0.221 C 
HETATM    5  C   UNL     1      43.345 -14.981   5.947  1.00  0.00     0.066 C 
HETATM    6  C   UNL     1      42.362 -13.836   5.685  1.00  0.00     0.118 C 
HETATM    7  N   UNL     1      42.179 -13.674   4.237  1.00  0.00    -0.365 N 
HETATM    8  N   UNL     1      41.865 -17.052   3.220  1.00  0.00    -0.181 NA
HETATM    9  C   UNL     1      41.397 -16.431   2.134  1.00  0.00     0.160 C 
HETATM   10  H   UNL     1      41.588 -12.865   4.028  1.00  0.00     0.161 HD
ENDROOT
BRANCH   1  11
HETATM   11  C   UNL     1      41.049 -14.064   1.216  1.00  0.00     0.261 C 
HETATM   12  N   UNL     1      39.979 -14.507   0.461  1.00  0.00    -0.323 N 
HETATM   13  H   UNL     1      39.556 -15.374   0.777  1.00  0.00     0.169 HD
HETATM   14  O   UNL     1      41.602 -12.975   1.120  1.00  0.00    -0.267 OA
BRANCH  12  15
HETATM   15  C   UNL     1      39.359 -13.859  -0.625  1.00  0.00     0.037 A 
HETATM   16  C   UNL     1      39.201 -14.429  -1.890  1.00  0.00     0.066 A 
HETATM   17  C   UNL     1      38.562 -13.715  -2.902  1.00  0.00     0.067 A 
HETATM   18  C   UNL     1      38.075 -12.432  -2.680  1.00  0.00     0.036 A 
HETATM   19  C   UNL     1      38.226 -11.856  -1.421  1.00  0.00     0.005 A 
HETATM   20  C   UNL     1      38.861 -12.568  -0.398  1.00  0.00     0.029 A 
BRANCH  17  21
HETATM   21  O   UNL     1      38.428 -14.319  -4.118  1.00  0.00    -0.361 OA
HETATM   22  H   UNL     1      37.606 -14.013  -4.534  1.00  0.00     0.217 HD
ENDBRANCH  17  21
ENDBRANCH  12  15
ENDBRANCH   1  11
BRANCH   4  23
HETATM   23  C   UNL     1      43.914 -17.329   5.324  1.00  0.00     0.409 C 
HETATM   24  F   UNL     1      44.969 -16.968   6.089  1.00  0.00    -0.169 F 
HETATM   25  F   UNL     1      43.437 -18.491   5.849  1.00  0.00    -0.169 F 
HETATM   26  F   UNL     1      44.367 -17.635   4.092  1.00  0.00    -0.169 F 
ENDBRANCH   4  23
BRANCH   6  27
HETATM   27  C   UNL     1      42.849 -12.532   6.288  1.00  0.00    -0.035 A 
HETATM   28  C   UNL     1      42.107 -11.342   6.157  1.00  0.00     0.012 A 
HETATM   29  C   UNL     1      42.580 -10.147   6.700  1.00  0.00     0.043 A 
HETATM   30  C   UNL     1      43.795 -10.133   7.373  1.00  0.00     0.116 A 
HETATM   31  F   UNL     1      44.250  -8.984   7.892  1.00  0.00    -0.206 F 
HETATM   32  C   UNL     1      44.546 -11.292   7.515  1.00  0.00     0.043 A 
HETATM   33  C   UNL     1      44.075 -12.490   6.974  1.00  0.00     0.012 A 
ENDBRANCH   6  27
TORSDOF 5
ENDMDL
MODEL 9
REMARK VINA RESULT:      -8.8      4.040      7.059
REMARK  5 active torsions:
REMARK  status: ('A' for Active; 'I' for Inactive)
REMARK    1  A    between atoms: C_3  and  O_4 
REMARK    2  A    between atoms: C_6  and  N_7 
REMARK       I    between atoms: N_7  and  C_8 
REMARK    3  A    between atoms: C_8  and  C_9 
REMARK    4  A    between atoms: C_12  and  C_13 
REMARK    5  A    between atoms: C_18  and  C_19 
ROOT
HETATM    1  C   UNL     1      40.153 -12.224   4.161  1.00  0.00     0.096 C 
HETATM    2  C   UNL     1      40.470 -13.398   3.503  1.00  0.00     0.138 C 
HETATM    3  N   UNL     1      39.836 -13.327   2.282  1.00  0.00    -0.240 N 
HETATM    4  C   UNL     1      39.858 -14.382   1.282  1.00  0.00     0.221 C 
HETATM    5  C   UNL     1      40.983 -15.389   1.584  1.00  0.00     0.066 C 
HETATM    6  C   UNL     1      41.005 -15.724   3.079  1.00  0.00     0.118 C 
HETATM    7  N   UNL     1      41.207 -14.491   3.851  1.00  0.00    -0.365 N 
HETATM    8  N   UNL     1      39.002 -12.283   2.176  1.00  0.00    -0.181 NA
HETATM    9  C   UNL     1      39.220 -11.596   3.301  1.00  0.00     0.160 C 
HETATM   10  H   UNL     1      41.306 -14.693   4.849  1.00  0.00     0.161 HD
ENDROOT
BRANCH   1  11
HETATM   11  C   UNL     1      40.603 -11.731   5.453  1.00  0.00     0.261 C 
HETATM   12  N   UNL     1      41.785 -11.017   5.383  1.00  0.00    -0.323 N 
HETATM   13  H   UNL     1      42.122 -10.829   4.446  1.00  0.00     0.169 HD
HETATM   14  O   UNL     1      39.935 -11.929   6.460  1.00  0.00    -0.267 OA
BRANCH  12  15
HETATM   15  C   UNL     1      42.517 -10.451   6.445  1.00  0.00     0.037 A 
HETATM   16  C   UNL     1      43.580 -11.088   7.090  1.00  0.00     0.066 A 
HETATM   17  C   UNL     1      44.255 -10.443   8.125  1.00  0.00     0.067 A 
HETATM   18  C   UNL     1      43.890  -9.166   8.537  1.00  0.00     0.036 A 
HETATM   19  C   UNL     1      42.833  -8.523   7.898  1.00  0.00     0.005 A 
HETATM   20  C   UNL     1      42.153  -9.160   6.855  1.00  0.00     0.029 A 
BRANCH  17  21
HETATM   21  O   UNL     1      45.290 -11.106   8.718  1.00  0.00    -0.361 OA
HETATM   22  H   UNL     1      46.125 -10.685   8.458  1.00  0.00     0.217 HD
ENDBRANCH  17  21
ENDBRANCH  12  15
ENDBRANCH   1  11
BRANCH   4  23
HETATM   23  C   UNL     1      40.032 -13.830  -0.116  1.00  0.00     0.409 C 
HETATM   24  F   UNL     1      38.890 -13.295  -0.604  1.00  0.00    -0.169 F 
HETATM   25  F   UNL     1      40.950 -12.825  -0.094  1.00  0.00    -0.169 F 
HETATM   26  F   UNL     1      40.492 -14.735  -1.003  1.00  0.00    -0.169 F 
ENDBRANCH   4  23
BRANCH   6  27
HETATM   27  C   UNL     1      42.098 -16.721   3.412  1.00  0.00    -0.035 A 
HETATM   28  C   UNL     1      42.586 -17.623   2.447  1.00  0.00     0.012 A 
HETATM   29  C   UNL     1      43.578 -18.549   2.777  1.00  0.00     0.043 A 
HETATM   30  C   UNL     1      44.084 -18.579   4.070  1.00  0.00     0.116 A 
HETATM   31  F   UNL     1      45.035 -19.469   4.387  1.00  0.00    -0.206 F 
HETATM   32  C   UNL     1      43.620 -17.700   5.041  1.00  0.00     0.043 A 
HETATM   33  C   UNL     1      42.629 -16.773   4.713  1.00  0.00     0.012 A 
ENDBRANCH   6  27
TORSDOF 5
ENDMDL
MODEL 10
REMARK VINA RESULT:      -8.5      4.398      7.109
REMARK  5 active torsions:
REMARK  status: ('A' for Active; 'I' for Inactive)
REMARK    1  A    between atoms: C_3  and  O_4 
REMARK    2  A    between atoms: C_6  and  N_7 
REMARK       I    between atoms: N_7  and  C_8 
REMARK    3  A    between atoms: C_8  and  C_9 
REMARK    4  A    between atoms: C_12  and  C_13 
REMARK    5  A    between atoms: C_18  and  C_19 
ROOT
HETATM    1  C   UNL     1      40.102 -12.309   4.230  1.00  0.00     0.096 C 
HETATM    2  C   UNL     1      40.439 -13.459   3.541  1.00  0.00     0.138 C 
HETATM    3  N   UNL     1      39.832 -13.351   2.309  1.00  0.00    -0.240 N 
HETATM    4  C   UNL     1      39.881 -14.372   1.276  1.00  0.00     0.221 C 
HETATM    5  C   UNL     1      41.003 -15.384   1.570  1.00  0.00     0.066 C 
HETATM    6  C   UNL     1      40.995 -15.768   3.053  1.00  0.00     0.118 C 
HETATM    7  N   UNL     1      41.174 -14.560   3.869  1.00  0.00    -0.365 N 
HETATM    8  N   UNL     1      38.995 -12.308   2.219  1.00  0.00    -0.181 NA
HETATM    9  C   UNL     1      39.185 -11.657   3.371  1.00  0.00     0.160 C 
HETATM   10  H   UNL     1      41.252 -14.794   4.862  1.00  0.00     0.161 HD
ENDROOT
BRANCH   1  11
HETATM   11  C   UNL     1      40.521 -11.856   5.547  1.00  0.00     0.261 C 
HETATM   12  N   UNL     1      39.862 -10.716   5.968  1.00  0.00    -0.323 N 
HETATM   13  H   UNL     1      39.102 -10.411   5.370  1.00  0.00     0.169 HD
HETATM   14  O   UNL     1      41.352 -12.490   6.186  1.00  0.00    -0.267 OA
BRANCH  12  15
HETATM   15  C   UNL     1      40.063  -9.991   7.159  1.00  0.00     0.037 A 
HETATM   16  C   UNL     1      39.217 -10.059   8.267  1.00  0.00     0.066 A 
HETATM   17  C   UNL     1      39.502  -9.313   9.410  1.00  0.00     0.067 A 
HETATM   18  C   UNL     1      40.622  -8.491   9.471  1.00  0.00     0.036 A 
HETATM   19  C   UNL     1      41.473  -8.420   8.371  1.00  0.00     0.005 A 
HETATM   20  C   UNL     1      41.197  -9.168   7.222  1.00  0.00     0.029 A 
BRANCH  17  21
HETATM   21  O   UNL     1      38.648  -9.420  10.468  1.00  0.00    -0.361 OA
HETATM   22  H   UNL     1      39.139  -9.744  11.239  1.00  0.00     0.217 HD
ENDBRANCH  17  21
ENDBRANCH  12  15
ENDBRANCH   1  11
BRANCH   4  23
HETATM   23  C   UNL     1      40.082 -13.774  -0.099  1.00  0.00     0.409 C 
HETATM   24  F   UNL     1      41.010 -12.790  -0.101  1.00  0.00    -0.169 F 
HETATM   25  F   UNL     1      40.538 -14.736  -0.947  1.00  0.00    -0.169 F 
HETATM   26  F   UNL     1      38.951 -13.294  -0.653  1.00  0.00    -0.169 F 
ENDBRANCH   4  23
BRANCH   6  27
HETATM   27  C   UNL     1      42.085 -16.771   3.377  1.00  0.00    -0.035 A 
HETATM   28  C   UNL     1      42.539 -17.696   2.417  1.00  0.00     0.012 A 
HETATM   29  C   UNL     1      43.529 -18.626   2.740  1.00  0.00     0.043 A 
HETATM   30  C   UNL     1      44.067 -18.638   4.020  1.00  0.00     0.116 A 
HETATM   31  F   UNL     1      45.015 -19.533   4.330  1.00  0.00    -0.206 F 
HETATM   32  C   UNL     1      43.636 -17.737   4.985  1.00  0.00     0.043 A 
HETATM   33  C   UNL     1      42.647 -16.805   4.665  1.00  0.00     0.012 A 
ENDBRANCH   6  27
TORSDOF 5
ENDMDL
