MODEL 1
REMARK VINA RESULT:      -8.6      0.000      0.000
REMARK  6 active torsions:
REMARK  status: ('A' for Active; 'I' for Inactive)
REMARK    1  A    between atoms: C_2  and  N_3 
REMARK    2  A    between atoms: C_2  and  C_15 
REMARK    3  A    between atoms: C_5  and  C_6 
REMARK       I    between atoms: C_15  and  N_16 
REMARK    4  A    between atoms: N_16  and  C_17 
REMARK    5  A    between atoms: C_20  and  O_21 
REMARK    6  A    between atoms: O_21  and  C_22 
ROOT
HETATM    1  C   UNL     1      43.332 -12.200   3.782  1.00  0.00     0.253 C 
HETATM    2  N   UNL     1      43.117 -12.431   5.128  1.00  0.00    -0.325 N 
HETATM    3  O   UNL     1      43.965 -11.252   3.319  1.00  0.00    -0.271 OA
HETATM    4  H   UNL     1      42.491 -13.175   5.411  1.00  0.00     0.169 HD
ENDROOT
BRANCH   1   5
HETATM    5  C   UNL     1      42.874 -13.312   2.799  1.00  0.00     0.276 C 
HETATM    6  C   UNL     1      41.949 -12.886   1.663  1.00  0.00     0.050 C 
BRANCH   5   7
HETATM    7  N   UNL     1      42.250 -14.527   3.520  1.00  0.00    -0.049 N 
HETATM    8  H   UNL     1      42.428 -14.390   4.521  1.00  0.00     0.281 HD
HETATM    9  C   UNL     1      42.830 -15.882   3.150  1.00  0.00     0.238 C 
HETATM   10  C   UNL     1      41.764 -16.508   2.261  1.00  0.00     0.041 C 
HETATM   11  C   UNL     1      40.458 -16.034   2.861  1.00  0.00     0.030 C 
HETATM   12  C   UNL     1      40.737 -14.624   3.347  1.00  0.00     0.237 C 
BRANCH   9  13
HETATM   13  C   UNL     1      43.112 -16.702   4.378  1.00  0.00     0.042 A 
HETATM   14  N   UNL     1      43.670 -17.969   4.328  1.00  0.00    -0.363 N 
HETATM   15  C   UNL     1      44.034 -18.720   3.143  1.00  0.00     0.155 C 
HETATM   16  C   UNL     1      43.801 -18.467   5.598  1.00  0.00     0.090 A 
HETATM   17  C   UNL     1      43.309 -17.539   6.482  1.00  0.00     0.019 A 
HETATM   18  C   UNL     1      42.867 -16.436   5.722  1.00  0.00     0.028 A 
ENDBRANCH   9  13
ENDBRANCH   5   7
ENDBRANCH   1   5
BRANCH   2  19
HETATM   19  C   UNL     1      43.626 -11.667   6.208  1.00  0.00     0.035 A 
HETATM   20  C   UNL     1      44.899 -11.838   6.758  1.00  0.00     0.032 A 
HETATM   21  C   UNL     1      45.310 -11.068   7.850  1.00  0.00     0.039 A 
HETATM   22  C   UNL     1      44.462 -10.112   8.400  1.00  0.00     0.076 A 
HETATM   23  C   UNL     1      43.184  -9.940   7.869  1.00  0.00     0.039 A 
HETATM   24  C   UNL     1      42.774 -10.707   6.771  1.00  0.00     0.032 A 
BRANCH  22  25
HETATM   25  O   UNL     1      44.934  -9.456   9.513  1.00  0.00    -0.311 OA
BRANCH  25  26
HETATM   26  C   UNL     1      44.194  -9.507  10.668  1.00  0.00     0.076 A 
HETATM   27  C   UNL     1      43.727  -8.294  11.176  1.00  0.00     0.037 A 
HETATM   28  C   UNL     1      42.927  -8.281  12.318  1.00  0.00     0.003 A 
HETATM   29  C   UNL     1      42.581  -9.482  12.939  1.00  0.00     0.000 A 
HETATM   30  C   UNL     1      43.027 -10.696  12.415  1.00  0.00     0.003 A 
HETATM   31  C   UNL     1      43.827 -10.712  11.272  1.00  0.00     0.037 A 
ENDBRANCH  25  26
ENDBRANCH  22  25
ENDBRANCH   2  19
TORSDOF 6
ENDMDL
MODEL 2
REMARK VINA RESULT:      -8.5      2.668      9.284
REMARK  6 active torsions:
REMARK  status: ('A' for Active; 'I' for Inactive)
REMARK    1  A    between atoms: C_2  and  N_3 
REMARK    2  A    between atoms: C_2  and  C_15 
REMARK    3  A    between atoms: C_5  and  C_6 
REMARK       I    between atoms: C_15  and  N_16 
REMARK    4  A    between atoms: N_16  and  C_17 
REMARK    5  A    between atoms: C_20  and  O_21 
REMARK    6  A    between atoms: O_21  and  C_22 
ROOT
HETATM    1  C   UNL     1      42.532 -12.169   6.242  1.00  0.00     0.253 C 
HETATM    2  N   UNL     1      42.840 -13.169   7.146  1.00  0.00    -0.325 N 
HETATM    3  O   UNL     1      42.430 -12.323   5.026  1.00  0.00    -0.271 OA
HETATM    4  H   UNL     1      43.011 -12.927   8.115  1.00  0.00     0.169 HD
ENDROOT
BRANCH   1   5
HETATM    5  C   UNL     1      42.131 -10.790   6.834  1.00  0.00     0.276 C 
HETATM    6  C   UNL     1      42.108  -9.609   5.868  1.00  0.00     0.050 C 
BRANCH   5   7
HETATM    7  N   UNL     1      42.968 -10.404   8.072  1.00  0.00    -0.049 N 
HETATM    8  H   UNL     1      43.004 -11.239   8.667  1.00  0.00     0.281 HD
HETATM    9  C   UNL     1      42.404  -9.280   8.926  1.00  0.00     0.238 C 
HETATM   10  C   UNL     1      43.286  -8.086   8.590  1.00  0.00     0.041 C 
HETATM   11  C   UNL     1      44.661  -8.686   8.390  1.00  0.00     0.030 C 
HETATM   12  C   UNL     1      44.410 -10.033   7.739  1.00  0.00     0.237 C 
BRANCH   9  13
HETATM   13  C   UNL     1      42.446  -9.637  10.385  1.00  0.00     0.042 A 
HETATM   14  N   UNL     1      41.522  -9.166  11.304  1.00  0.00    -0.363 N 
HETATM   15  C   UNL     1      40.420  -8.258  11.052  1.00  0.00     0.155 C 
HETATM   16  C   UNL     1      41.819  -9.654  12.550  1.00  0.00     0.090 A 
HETATM   17  C   UNL     1      42.949 -10.427  12.456  1.00  0.00     0.019 A 
HETATM   18  C   UNL     1      43.351 -10.411  11.104  1.00  0.00     0.028 A 
ENDBRANCH   9  13
ENDBRANCH   5   7
ENDBRANCH   1   5
BRANCH   2  19
HETATM   19  C   UNL     1      43.031 -14.542   6.854  1.00  0.00     0.035 A 
HETATM   20  C   UNL     1      42.002 -15.486   6.812  1.00  0.00     0.032 A 
HETATM   21  C   UNL     1      42.282 -16.832   6.554  1.00  0.00     0.039 A 
HETATM   22  C   UNL     1      43.590 -17.250   6.326  1.00  0.00     0.076 A 
HETATM   23  C   UNL     1      44.627 -16.320   6.376  1.00  0.00     0.039 A 
HETATM   24  C   UNL     1      44.347 -14.972   6.629  1.00  0.00     0.032 A 
BRANCH  22  25
HETATM   25  O   UNL     1      43.768 -18.602   6.148  1.00  0.00    -0.311 OA
BRANCH  25  26
HETATM   26  C   UNL     1      43.800 -19.097   4.867  1.00  0.00     0.076 A 
HETATM   27  C   UNL     1      43.968 -20.475   4.725  1.00  0.00     0.037 A 
HETATM   28  C   UNL     1      43.958 -21.047   3.453  1.00  0.00     0.003 A 
HETATM   29  C   UNL     1      43.765 -20.244   2.329  1.00  0.00     0.000 A 
HETATM   30  C   UNL     1      43.571 -18.869   2.475  1.00  0.00     0.003 A 
HETATM   31  C   UNL     1      43.579 -18.293   3.746  1.00  0.00     0.037 A 
ENDBRANCH  25  26
ENDBRANCH  22  25
ENDBRANCH   2  19
TORSDOF 6
ENDMDL
MODEL 3
REMARK VINA RESULT:      -8.3      2.715      9.314
REMARK  6 active torsions:
REMARK  status: ('A' for Active; 'I' for Inactive)
REMARK    1  A    between atoms: C_2  and  N_3 
REMARK    2  A    between atoms: C_2  and  C_15 
REMARK    3  A    between atoms: C_5  and  C_6 
REMARK       I    between atoms: C_15  and  N_16 
REMARK    4  A    between atoms: N_16  and  C_17 
REMARK    5  A    between atoms: C_20  and  O_21 
REMARK    6  A    between atoms: O_21  and  C_22 
ROOT
HETATM    1  C   UNL     1      43.929 -10.704   8.130  1.00  0.00     0.253 C 
HETATM    2  N   UNL     1      43.336 -11.100   6.946  1.00  0.00    -0.325 N 
HETATM    3  O   UNL     1      44.208 -11.452   9.066  1.00  0.00    -0.271 OA
HETATM    4  H   UNL     1      43.043 -10.398   6.277  1.00  0.00     0.169 HD
ENDROOT
BRANCH   1   5
HETATM    5  C   UNL     1      44.419  -9.232   8.209  1.00  0.00     0.276 C 
HETATM    6  C   UNL     1      45.928  -9.012   8.247  1.00  0.00     0.050 C 
BRANCH   5   7
HETATM    7  N   UNL     1      43.773  -8.448   9.371  1.00  0.00    -0.049 N 
HETATM    8  H   UNL     1      44.352  -8.629  10.198  1.00  0.00     0.281 HD
HETATM    9  C   UNL     1      42.353  -8.853   9.731  1.00  0.00     0.238 C 
HETATM   10  C   UNL     1      41.495  -7.729   9.169  1.00  0.00     0.041 C 
HETATM   11  C   UNL     1      42.335  -6.486   9.375  1.00  0.00     0.030 C 
HETATM   12  C   UNL     1      43.766  -6.938   9.154  1.00  0.00     0.237 C 
BRANCH   9  13
HETATM   13  C   UNL     1      42.197  -9.011  11.218  1.00  0.00     0.042 A 
HETATM   14  N   UNL     1      41.045  -9.502  11.808  1.00  0.00    -0.363 N 
HETATM   15  C   UNL     1      39.820  -9.902  11.142  1.00  0.00     0.155 C 
HETATM   16  C   UNL     1      41.195  -9.524  13.170  1.00  0.00     0.090 A 
HETATM   17  C   UNL     1      42.437  -9.027  13.478  1.00  0.00     0.019 A 
HETATM   18  C   UNL     1      43.064  -8.695  12.259  1.00  0.00     0.028 A 
ENDBRANCH   9  13
ENDBRANCH   5   7
ENDBRANCH   1   5
BRANCH   2  19
HETATM   19  C   UNL     1      43.002 -12.426   6.570  1.00  0.00     0.035 A 
HETATM   20  C   UNL     1      41.746 -12.814   6.095  1.00  0.00     0.032 A 
HETATM   21  C   UNL     1      41.488 -14.152   5.783  1.00  0.00     0.039 A 
HETATM   22  C   UNL     1      42.479 -15.117   5.933  1.00  0.00     0.076 A 
HETATM   23  C   UNL     1      43.732 -14.745   6.417  1.00  0.00     0.039 A 
HETATM   24  C   UNL     1      43.994 -13.404   6.724  1.00  0.00     0.032 A 
BRANCH  22  25
HETATM   25  O   UNL     1      42.105 -16.413   5.664  1.00  0.00    -0.311 OA
BRANCH  25  26
HETATM   26  C   UNL     1      42.764 -17.093   4.670  1.00  0.00     0.076 A 
HETATM   27  C   UNL     1      43.685 -18.063   5.069  1.00  0.00     0.037 A 
HETATM   28  C   UNL     1      44.351 -18.825   4.110  1.00  0.00     0.003 A 
HETATM   29  C   UNL     1      44.082 -18.627   2.755  1.00  0.00     0.000 A 
HETATM   30  C   UNL     1      43.142 -17.675   2.358  1.00  0.00     0.003 A 
HETATM   31  C   UNL     1      42.473 -16.912   3.316  1.00  0.00     0.037 A 
ENDBRANCH  25  26
ENDBRANCH  22  25
ENDBRANCH   2  19
TORSDOF 6
ENDMDL
MODEL 4
REMARK VINA RESULT:      -8.3      2.587      9.197
REMARK  6 active torsions:
REMARK  status: ('A' for Active; 'I' for Inactive)
REMARK    1  A    between atoms: C_2  and  N_3 
REMARK    2  A    between atoms: C_2  and  C_15 
REMARK    3  A    between atoms: C_5  and  C_6 
REMARK       I    between atoms: C_15  and  N_16 
REMARK    4  A    between atoms: N_16  and  C_17 
REMARK    5  A    between atoms: C_20  and  O_21 
REMARK    6  A    between atoms: O_21  and  C_22 
ROOT
HETATM    1  C   UNL     1      44.002 -11.324   7.427  1.00  0.00     0.253 C 
HETATM    2  N   UNL     1      42.846 -11.619   6.729  1.00  0.00    -0.325 N 
HETATM    3  O   UNL     1      45.031 -11.998   7.409  1.00  0.00    -0.271 OA
HETATM    4  H   UNL     1      42.013 -11.067   6.891  1.00  0.00     0.169 HD
ENDROOT
BRANCH   1   5
HETATM    5  C   UNL     1      44.048  -9.953   8.158  1.00  0.00     0.276 C 
HETATM    6  C   UNL     1      45.416  -9.293   8.295  1.00  0.00     0.050 C 
BRANCH   5   7
HETATM    7  N   UNL     1      43.374  -9.993   9.546  1.00  0.00    -0.049 N 
HETATM    8  H   UNL     1      42.845 -10.872   9.584  1.00  0.00     0.281 HD
HETATM    9  C   UNL     1      42.387  -8.874   9.833  1.00  0.00     0.238 C 
HETATM   10  C   UNL     1      43.139  -7.958  10.789  1.00  0.00     0.041 C 
HETATM   11  C   UNL     1      43.956  -8.905  11.642  1.00  0.00     0.030 C 
HETATM   12  C   UNL     1      44.368 -10.022  10.703  1.00  0.00     0.237 C 
BRANCH   9  13
HETATM   13  C   UNL     1      41.117  -9.413  10.429  1.00  0.00     0.042 A 
HETATM   14  N   UNL     1      39.988  -9.688   9.675  1.00  0.00    -0.363 N 
HETATM   15  C   UNL     1      39.815  -9.486   8.249  1.00  0.00     0.155 C 
HETATM   16  C   UNL     1      38.991 -10.159  10.489  1.00  0.00     0.090 A 
HETATM   17  C   UNL     1      39.455 -10.171  11.781  1.00  0.00     0.019 A 
HETATM   18  C   UNL     1      40.783  -9.695  11.749  1.00  0.00     0.028 A 
ENDBRANCH   9  13
ENDBRANCH   5   7
ENDBRANCH   1   5
BRANCH   2  19
HETATM   19  C   UNL     1      42.654 -12.698   5.831  1.00  0.00     0.035 A 
HETATM   20  C   UNL     1      43.135 -12.723   4.520  1.00  0.00     0.032 A 
HETATM   21  C   UNL     1      42.867 -13.813   3.685  1.00  0.00     0.039 A 
HETATM   22  C   UNL     1      42.126 -14.894   4.151  1.00  0.00     0.076 A 
HETATM   23  C   UNL     1      41.630 -14.877   5.454  1.00  0.00     0.039 A 
HETATM   24  C   UNL     1      41.903 -13.788   6.292  1.00  0.00     0.032 A 
BRANCH  22  25
HETATM   25  O   UNL     1      41.861 -15.884   3.234  1.00  0.00    -0.311 OA
BRANCH  25  26
HETATM   26  C   UNL     1      42.591 -17.046   3.294  1.00  0.00     0.076 A 
HETATM   27  C   UNL     1      42.431 -17.949   2.242  1.00  0.00     0.037 A 
HETATM   28  C   UNL     1      43.181 -19.125   2.216  1.00  0.00     0.003 A 
HETATM   29  C   UNL     1      44.100 -19.386   3.232  1.00  0.00     0.000 A 
HETATM   30  C   UNL     1      44.278 -18.470   4.270  1.00  0.00     0.003 A 
HETATM   31  C   UNL     1      43.530 -17.292   4.298  1.00  0.00     0.037 A 
ENDBRANCH  25  26
ENDBRANCH  22  25
ENDBRANCH   2  19
TORSDOF 6
ENDMDL
MODEL 5
REMARK VINA RESULT:      -8.3      2.720      8.914
REMARK  6 active torsions:
REMARK  status: ('A' for Active; 'I' for Inactive)
REMARK    1  A    between atoms: C_2  and  N_3 
REMARK    2  A    between atoms: C_2  and  C_15 
REMARK    3  A    between atoms: C_5  and  C_6 
REMARK       I    between atoms: C_15  and  N_16 
REMARK    4  A    between atoms: N_16  and  C_17 
REMARK    5  A    between atoms: C_20  and  O_21 
REMARK    6  A    between atoms: O_21  and  C_22 
ROOT
HETATM    1  C   UNL     1      41.841 -12.112   5.792  1.00  0.00     0.253 C 
HETATM    2  N   UNL     1      41.997 -13.098   6.748  1.00  0.00    -0.325 N 
HETATM    3  O   UNL     1      42.129 -12.228   4.601  1.00  0.00    -0.271 OA
HETATM    4  H   UNL     1      41.837 -12.875   7.722  1.00  0.00     0.169 HD
ENDROOT
BRANCH   1   5
HETATM    5  C   UNL     1      41.099 -10.820   6.233  1.00  0.00     0.276 C 
HETATM    6  C   UNL     1      40.175 -10.173   5.206  1.00  0.00     0.050 C 
BRANCH   5   7
HETATM    7  N   UNL     1      42.053  -9.744   6.793  1.00  0.00    -0.049 N 
HETATM    8  H   UNL     1      42.998 -10.019   6.505  1.00  0.00     0.281 HD
HETATM    9  C   UNL     1      42.076  -9.604   8.306  1.00  0.00     0.238 C 
HETATM   10  C   UNL     1      41.297  -8.323   8.569  1.00  0.00     0.041 C 
HETATM   11  C   UNL     1      41.664  -7.423   7.409  1.00  0.00     0.030 C 
HETATM   12  C   UNL     1      41.802  -8.352   6.218  1.00  0.00     0.237 C 
BRANCH   9  13
HETATM   13  C   UNL     1      43.487  -9.538   8.821  1.00  0.00     0.042 A 
HETATM   14  N   UNL     1      43.825  -9.822  10.133  1.00  0.00    -0.363 N 
HETATM   15  C   UNL     1      42.925 -10.182  11.212  1.00  0.00     0.155 C 
HETATM   16  C   UNL     1      45.176  -9.672  10.306  1.00  0.00     0.090 A 
HETATM   17  C   UNL     1      45.724  -9.267   9.115  1.00  0.00     0.019 A 
HETATM   18  C   UNL     1      44.668  -9.172   8.184  1.00  0.00     0.028 A 
ENDBRANCH   9  13
ENDBRANCH   5   7
ENDBRANCH   1   5
BRANCH   2  19
HETATM   19  C   UNL     1      42.451 -14.422   6.528  1.00  0.00     0.035 A 
HETATM   20  C   UNL     1      41.610 -15.532   6.420  1.00  0.00     0.032 A 
HETATM   21  C   UNL     1      42.143 -16.813   6.242  1.00  0.00     0.039 A 
HETATM   22  C   UNL     1      43.519 -17.001   6.160  1.00  0.00     0.076 A 
HETATM   23  C   UNL     1      44.370 -15.903   6.278  1.00  0.00     0.039 A 
HETATM   24  C   UNL     1      43.837 -14.619   6.450  1.00  0.00     0.032 A 
BRANCH  22  25
HETATM   25  O   UNL     1      43.944 -18.304   6.052  1.00  0.00    -0.311 OA
BRANCH  25  26
HETATM   26  C   UNL     1      43.888 -18.913   4.822  1.00  0.00     0.076 A 
HETATM   27  C   UNL     1      43.990 -20.305   4.799  1.00  0.00     0.037 A 
HETATM   28  C   UNL     1      43.889 -20.988   3.588  1.00  0.00     0.003 A 
HETATM   29  C   UNL     1      43.671 -20.280   2.405  1.00  0.00     0.000 A 
HETATM   30  C   UNL     1      43.544 -18.890   2.433  1.00  0.00     0.003 A 
HETATM   31  C   UNL     1      43.643 -18.204   3.644  1.00  0.00     0.037 A 
ENDBRANCH  25  26
ENDBRANCH  22  25
ENDBRANCH   2  19
TORSDOF 6
ENDMDL
MODEL 6
REMARK VINA RESULT:      -8.1      1.384      2.205
REMARK  6 active torsions:
REMARK  status: ('A' for Active; 'I' for Inactive)
REMARK    1  A    between atoms: C_2  and  N_3 
REMARK    2  A    between atoms: C_2  and  C_15 
REMARK    3  A    between atoms: C_5  and  C_6 
REMARK       I    between atoms: C_15  and  N_16 
REMARK    4  A    between atoms: N_16  and  C_17 
REMARK    5  A    between atoms: C_20  and  O_21 
REMARK    6  A    between atoms: O_21  and  C_22 
ROOT
HETATM    1  C   UNL     1      41.620 -12.951   5.133  1.00  0.00     0.253 C 
HETATM    2  N   UNL     1      42.610 -11.989   5.199  1.00  0.00    -0.325 N 
HETATM    3  O   UNL     1      41.008 -13.404   6.100  1.00  0.00    -0.271 OA
HETATM    4  H   UNL     1      43.135 -11.757   4.364  1.00  0.00     0.169 HD
ENDROOT
BRANCH   1   5
HETATM    5  C   UNL     1      41.143 -13.368   3.715  1.00  0.00     0.276 C 
HETATM    6  C   UNL     1      39.654 -13.217   3.419  1.00  0.00     0.050 C 
BRANCH   5   7
HETATM    7  N   UNL     1      41.583 -14.797   3.332  1.00  0.00    -0.049 N 
HETATM    8  H   UNL     1      41.160 -15.425   4.024  1.00  0.00     0.281 HD
HETATM    9  C   UNL     1      43.081 -15.056   3.360  1.00  0.00     0.238 C 
HETATM   10  C   UNL     1      43.476 -15.088   1.891  1.00  0.00     0.041 C 
HETATM   11  C   UNL     1      42.294 -15.739   1.204  1.00  0.00     0.030 C 
HETATM   12  C   UNL     1      41.078 -15.242   1.962  1.00  0.00     0.237 C 
BRANCH   9  13
HETATM   13  C   UNL     1      43.393 -16.344   4.071  1.00  0.00     0.042 A 
HETATM   14  N   UNL     1      43.734 -16.401   5.412  1.00  0.00    -0.363 N 
HETATM   15  C   UNL     1      43.883 -15.287   6.328  1.00  0.00     0.155 C 
HETATM   16  C   UNL     1      43.967 -17.702   5.775  1.00  0.00     0.090 A 
HETATM   17  C   UNL     1      43.803 -18.498   4.668  1.00  0.00     0.019 A 
HETATM   18  C   UNL     1      43.453 -17.650   3.596  1.00  0.00     0.028 A 
ENDBRANCH   9  13
ENDBRANCH   5   7
ENDBRANCH   1   5
BRANCH   2  19
HETATM   19  C   UNL     1      43.054 -11.312   6.362  1.00  0.00     0.035 A 
HETATM   20  C   UNL     1      42.359 -10.265   6.973  1.00  0.00     0.032 A 
HETATM   21  C   UNL     1      42.888  -9.624   8.099  1.00  0.00     0.039 A 
HETATM   22  C   UNL     1      44.108 -10.025   8.633  1.00  0.00     0.076 A 
HETATM   23  C   UNL     1      44.817 -11.060   8.025  1.00  0.00     0.039 A 
HETATM   24  C   UNL     1      44.286 -11.707   6.902  1.00  0.00     0.032 A 
BRANCH  22  25
HETATM   25  O   UNL     1      44.572  -9.288   9.697  1.00  0.00    -0.311 OA
BRANCH  25  26
HETATM   26  C   UNL     1      43.839  -9.280  10.858  1.00  0.00     0.076 A 
HETATM   27  C   UNL     1      43.592 -10.515  11.460  1.00  0.00     0.037 A 
HETATM   28  C   UNL     1      42.897 -10.572  12.668  1.00  0.00     0.003 A 
HETATM   29  C   UNL     1      42.466  -9.395  13.279  1.00  0.00     0.000 A 
HETATM   30  C   UNL     1      42.736  -8.159  12.689  1.00  0.00     0.003 A 
HETATM   31  C   UNL     1      43.431  -8.098  11.481  1.00  0.00     0.037 A 
ENDBRANCH  25  26
ENDBRANCH  22  25
ENDBRANCH   2  19
TORSDOF 6
ENDMDL
MODEL 7
REMARK VINA RESULT:      -8.1      1.803      3.824
REMARK  6 active torsions:
REMARK  status: ('A' for Active; 'I' for Inactive)
REMARK    1  A    between atoms: C_2  and  N_3 
REMARK    2  A    between atoms: C_2  and  C_15 
REMARK    3  A    between atoms: C_5  and  C_6 
REMARK       I    between atoms: C_15  and  N_16 
REMARK    4  A    between atoms: N_16  and  C_17 
REMARK    5  A    between atoms: C_20  and  O_21 
REMARK    6  A    between atoms: O_21  and  C_22 
ROOT
HETATM    1  C   UNL     1      43.269 -14.437   6.384  1.00  0.00     0.253 C 
HETATM    2  N   UNL     1      43.609 -13.209   5.847  1.00  0.00    -0.325 N 
HETATM    3  O   UNL     1      43.145 -14.675   7.584  1.00  0.00    -0.271 OA
HETATM    4  H   UNL     1      43.795 -13.135   4.855  1.00  0.00     0.169 HD
ENDROOT
BRANCH   1   5
HETATM    5  C   UNL     1      42.858 -15.549   5.380  1.00  0.00     0.276 C 
HETATM    6  C   UNL     1      43.876 -16.657   5.128  1.00  0.00     0.050 C 
BRANCH   5   7
HETATM    7  N   UNL     1      42.391 -14.986   4.021  1.00  0.00    -0.049 N 
HETATM    8  H   UNL     1      42.467 -13.965   4.091  1.00  0.00     0.281 HD
HETATM    9  C   UNL     1      40.953 -15.294   3.638  1.00  0.00     0.238 C 
HETATM   10  C   UNL     1      41.080 -16.372   2.571  1.00  0.00     0.041 C 
HETATM   11  C   UNL     1      42.328 -15.989   1.806  1.00  0.00     0.030 C 
HETATM   12  C   UNL     1      43.269 -15.418   2.850  1.00  0.00     0.237 C 
BRANCH   9  13
HETATM   13  C   UNL     1      40.251 -14.063   3.135  1.00  0.00     0.042 A 
HETATM   14  N   UNL     1      39.811 -13.052   3.972  1.00  0.00    -0.363 N 
HETATM   15  C   UNL     1      39.903 -13.007   5.419  1.00  0.00     0.155 C 
HETATM   16  C   UNL     1      39.206 -12.069   3.232  1.00  0.00     0.090 A 
HETATM   17  C   UNL     1      39.229 -12.444   1.912  1.00  0.00     0.019 A 
HETATM   18  C   UNL     1      39.874 -13.697   1.848  1.00  0.00     0.028 A 
ENDBRANCH   9  13
ENDBRANCH   5   7
ENDBRANCH   1   5
BRANCH   2  19
HETATM   19  C   UNL     1      43.815 -12.003   6.562  1.00  0.00     0.035 A 
HETATM   20  C   UNL     1      42.828 -11.037   6.772  1.00  0.00     0.032 A 
HETATM   21  C   UNL     1      43.126  -9.854   7.457  1.00  0.00     0.039 A 
HETATM   22  C   UNL     1      44.407  -9.626   7.948  1.00  0.00     0.076 A 
HETATM   23  C   UNL     1      45.405 -10.576   7.735  1.00  0.00     0.039 A 
HETATM   24  C   UNL     1      45.106 -11.763   7.055  1.00  0.00     0.032 A 
BRANCH  22  25
HETATM   25  O   UNL     1      44.614  -8.405   8.546  1.00  0.00    -0.311 OA
BRANCH  25  26
HETATM   26  C   UNL     1      44.015  -8.158   9.757  1.00  0.00     0.076 A 
HETATM   27  C   UNL     1      43.171  -7.048   9.831  1.00  0.00     0.037 A 
HETATM   28  C   UNL     1      42.491  -6.772  11.017  1.00  0.00     0.003 A 
HETATM   29  C   UNL     1      42.644  -7.613  12.119  1.00  0.00     0.000 A 
HETATM   30  C   UNL     1      43.467  -8.736  12.035  1.00  0.00     0.003 A 
HETATM   31  C   UNL     1      44.148  -9.017  10.850  1.00  0.00     0.037 A 
ENDBRANCH  25  26
ENDBRANCH  22  25
ENDBRANCH   2  19
TORSDOF 6
ENDMDL
MODEL 8
REMARK VINA RESULT:      -8.0      2.722      8.823
REMARK  6 active torsions:
REMARK  status: ('A' for Active; 'I' for Inactive)
REMARK    1  A    between atoms: C_2  and  N_3 
REMARK    2  A    between atoms: C_2  and  C_15 
REMARK    3  A    between atoms: C_5  and  C_6 
REMARK       I    between atoms: C_15  and  N_16 
REMARK    4  A    between atoms: N_16  and  C_17 
REMARK    5  A    between atoms: C_20  and  O_21 
REMARK    6  A    between atoms: O_21  and  C_22 
ROOT
HETATM    1  C   UNL     1      41.210 -11.482   5.180  1.00  0.00     0.253 C 
HETATM    2  N   UNL     1      41.560 -12.771   5.535  1.00  0.00    -0.325 N 
HETATM    3  O   UNL     1      41.074 -11.078   4.026  1.00  0.00    -0.271 OA
HETATM    4  H   UNL     1      41.756 -12.984   6.505  1.00  0.00     0.169 HD
ENDROOT
BRANCH   1   5
HETATM    5  C   UNL     1      40.807 -10.523   6.334  1.00  0.00     0.276 C 
HETATM    6  C   UNL     1      39.514  -9.734   6.151  1.00  0.00     0.050 C 
BRANCH   5   7
HETATM    7  N   UNL     1      41.936  -9.546   6.722  1.00  0.00    -0.049 N 
HETATM    8  H   UNL     1      42.688  -9.688   6.039  1.00  0.00     0.281 HD
HETATM    9  C   UNL     1      42.547  -9.756   8.098  1.00  0.00     0.238 C 
HETATM   10  C   UNL     1      41.971  -8.621   8.933  1.00  0.00     0.041 C 
HETATM   11  C   UNL     1      41.890  -7.457   7.969  1.00  0.00     0.030 C 
HETATM   12  C   UNL     1      41.526  -8.078   6.634  1.00  0.00     0.237 C 
BRANCH   9  13
HETATM   13  C   UNL     1      44.049  -9.721   8.033  1.00  0.00     0.042 A 
HETATM   14  N   UNL     1      44.810 -10.796   7.606  1.00  0.00    -0.363 N 
HETATM   15  C   UNL     1      44.331 -12.103   7.198  1.00  0.00     0.155 C 
HETATM   16  C   UNL     1      46.141 -10.472   7.662  1.00  0.00     0.090 A 
HETATM   17  C   UNL     1      46.256  -9.193   8.146  1.00  0.00     0.019 A 
HETATM   18  C   UNL     1      44.949  -8.722   8.390  1.00  0.00     0.028 A 
ENDBRANCH   9  13
ENDBRANCH   5   7
ENDBRANCH   1   5
BRANCH   2  19
HETATM   19  C   UNL     1      41.762 -13.864   4.655  1.00  0.00     0.035 A 
HETATM   20  C   UNL     1      40.894 -14.952   4.543  1.00  0.00     0.032 A 
HETATM   21  C   UNL     1      41.189 -16.010   3.676  1.00  0.00     0.039 A 
HETATM   22  C   UNL     1      42.347 -15.990   2.905  1.00  0.00     0.076 A 
HETATM   23  C   UNL     1      43.228 -14.915   3.016  1.00  0.00     0.039 A 
HETATM   24  C   UNL     1      42.930 -13.853   3.879  1.00  0.00     0.032 A 
BRANCH  22  25
HETATM   25  O   UNL     1      42.579 -17.106   2.137  1.00  0.00    -0.311 OA
BRANCH  25  26
HETATM   26  C   UNL     1      43.074 -18.232   2.748  1.00  0.00     0.076 A 
HETATM   27  C   UNL     1      43.006 -19.426   2.028  1.00  0.00     0.037 A 
HETATM   28  C   UNL     1      43.537 -20.595   2.571  1.00  0.00     0.003 A 
HETATM   29  C   UNL     1      44.150 -20.565   3.824  1.00  0.00     0.000 A 
HETATM   30  C   UNL     1      44.240 -19.365   4.532  1.00  0.00     0.003 A 
HETATM   31  C   UNL     1      43.711 -18.193   3.991  1.00  0.00     0.037 A 
ENDBRANCH  25  26
ENDBRANCH  22  25
ENDBRANCH   2  19
TORSDOF 6
ENDMDL
MODEL 9
REMARK VINA RESULT:      -7.7      3.902      8.990
REMARK  6 active torsions:
REMARK  status: ('A' for Active; 'I' for Inactive)
REMARK    1  A    between atoms: C_2  and  N_3 
REMARK    2  A    between atoms: C_2  and  C_15 
REMARK    3  A    between atoms: C_5  and  C_6 
REMARK       I    between atoms: C_15  and  N_16 
REMARK    4  A    between atoms: N_16  and  C_17 
REMARK    5  A    between atoms: C_20  and  O_21 
REMARK    6  A    between atoms: O_21  and  C_22 
ROOT
HETATM    1  C   UNL     1      41.643 -13.435   3.450  1.00  0.00     0.253 C 
HETATM    2  N   UNL     1      40.381 -13.682   2.944  1.00  0.00    -0.325 N 
HETATM    3  O   UNL     1      42.606 -13.046   2.791  1.00  0.00    -0.271 OA
HETATM    4  H   UNL     1      39.680 -14.105   3.539  1.00  0.00     0.169 HD
ENDROOT
BRANCH   1   5
HETATM    5  C   UNL     1      41.804 -13.506   4.993  1.00  0.00     0.276 C 
HETATM    6  C   UNL     1      42.218 -12.219   5.700  1.00  0.00     0.050 C 
BRANCH   5   7
HETATM    7  N   UNL     1      42.742 -14.646   5.445  1.00  0.00    -0.049 N 
HETATM    8  H   UNL     1      43.499 -14.687   4.754  1.00  0.00     0.281 HD
HETATM    9  C   UNL     1      42.119 -16.031   5.498  1.00  0.00     0.238 C 
HETATM   10  C   UNL     1      41.924 -16.289   6.986  1.00  0.00     0.041 C 
HETATM   11  C   UNL     1      43.123 -15.634   7.635  1.00  0.00     0.030 C 
HETATM   12  C   UNL     1      43.392 -14.394   6.803  1.00  0.00     0.237 C 
BRANCH   9  13
HETATM   13  C   UNL     1      43.013 -17.050   4.847  1.00  0.00     0.042 A 
HETATM   14  N   UNL     1      42.887 -17.425   3.520  1.00  0.00    -0.363 N 
HETATM   15  C   UNL     1      41.899 -16.958   2.567  1.00  0.00     0.155 C 
HETATM   16  C   UNL     1      43.831 -18.371   3.215  1.00  0.00     0.090 A 
HETATM   17  C   UNL     1      44.562 -18.635   4.346  1.00  0.00     0.019 A 
HETATM   18  C   UNL     1      44.046 -17.817   5.374  1.00  0.00     0.028 A 
ENDBRANCH   9  13
ENDBRANCH   5   7
ENDBRANCH   1   5
BRANCH   2  19
HETATM   19  C   UNL     1      39.951 -13.477   1.609  1.00  0.00     0.035 A 
HETATM   20  C   UNL     1      40.212 -14.358   0.556  1.00  0.00     0.032 A 
HETATM   21  C   UNL     1      39.785 -14.060  -0.742  1.00  0.00     0.039 A 
HETATM   22  C   UNL     1      39.085 -12.887  -1.004  1.00  0.00     0.076 A 
HETATM   23  C   UNL     1      38.829 -11.993   0.035  1.00  0.00     0.039 A 
HETATM   24  C   UNL     1      39.251 -12.293   1.336  1.00  0.00     0.032 A 
BRANCH  22  25
HETATM   25  O   UNL     1      38.769 -12.655  -2.322  1.00  0.00    -0.311 OA
BRANCH  25  26
HETATM   26  C   UNL     1      39.091 -11.437  -2.869  1.00  0.00     0.076 A 
HETATM   27  C   UNL     1      40.443 -11.187  -3.109  1.00  0.00     0.037 A 
HETATM   28  C   UNL     1      40.831  -9.990  -3.710  1.00  0.00     0.003 A 
HETATM   29  C   UNL     1      39.867  -9.054  -4.084  1.00  0.00     0.000 A 
HETATM   30  C   UNL     1      38.514  -9.316  -3.868  1.00  0.00     0.003 A 
HETATM   31  C   UNL     1      38.121 -10.514  -3.268  1.00  0.00     0.037 A 
ENDBRANCH  25  26
ENDBRANCH  22  25
ENDBRANCH   2  19
TORSDOF 6
ENDMDL
MODEL 10
REMARK VINA RESULT:      -7.5      2.631      9.326
REMARK  6 active torsions:
REMARK  status: ('A' for Active; 'I' for Inactive)
REMARK    1  A    between atoms: C_2  and  N_3 
REMARK    2  A    between atoms: C_2  and  C_15 
REMARK    3  A    between atoms: C_5  and  C_6 
REMARK       I    between atoms: C_15  and  N_16 
REMARK    4  A    between atoms: N_16  and  C_17 
REMARK    5  A    between atoms: C_20  and  O_21 
REMARK    6  A    between atoms: O_21  and  C_22 
ROOT
HETATM    1  C   UNL     1      41.342 -10.628   6.219  1.00  0.00     0.253 C 
HETATM    2  N   UNL     1      41.643 -11.941   6.529  1.00  0.00    -0.325 N 
HETATM    3  O   UNL     1      41.232 -10.177   5.079  1.00  0.00    -0.271 OA
HETATM    4  H   UNL     1      41.822 -12.195   7.493  1.00  0.00     0.169 HD
ENDROOT
BRANCH   1   5
HETATM    5  C   UNL     1      40.959  -9.699   7.404  1.00  0.00     0.276 C 
HETATM    6  C   UNL     1      40.499  -8.288   7.050  1.00  0.00     0.050 C 
BRANCH   5   7
HETATM    7  N   UNL     1      42.068  -9.606   8.474  1.00  0.00    -0.049 N 
HETATM    8  H   UNL     1      42.102 -10.523   8.933  1.00  0.00     0.281 HD
HETATM    9  C   UNL     1      41.846  -8.574   9.567  1.00  0.00     0.238 C 
HETATM   10  C   UNL     1      42.804  -7.447   9.208  1.00  0.00     0.041 C 
HETATM   11  C   UNL     1      44.015  -8.158   8.643  1.00  0.00     0.030 C 
HETATM   12  C   UNL     1      43.455  -9.350   7.891  1.00  0.00     0.237 C 
BRANCH   9  13
HETATM   13  C   UNL     1      42.122  -9.157  10.925  1.00  0.00     0.042 A 
HETATM   14  N   UNL     1      41.537  -8.677  12.085  1.00  0.00    -0.363 N 
HETATM   15  C   UNL     1      40.624  -7.557  12.208  1.00  0.00     0.155 C 
HETATM   16  C   UNL     1      41.982  -9.400  13.161  1.00  0.00     0.090 A 
HETATM   17  C   UNL     1      42.877 -10.339  12.713  1.00  0.00     0.019 A 
HETATM   18  C   UNL     1      42.975 -10.184  11.314  1.00  0.00     0.028 A 
ENDBRANCH   9  13
ENDBRANCH   5   7
ENDBRANCH   1   5
BRANCH   2  19
HETATM   19  C   UNL     1      41.818 -13.007   5.612  1.00  0.00     0.035 A 
HETATM   20  C   UNL     1      42.869 -13.088   4.695  1.00  0.00     0.032 A 
HETATM   21  C   UNL     1      42.946 -14.157   3.796  1.00  0.00     0.039 A 
HETATM   22  C   UNL     1      41.982 -15.161   3.808  1.00  0.00     0.076 A 
HETATM   23  C   UNL     1      40.922 -15.085   4.709  1.00  0.00     0.039 A 
HETATM   24  C   UNL     1      40.847 -14.018   5.614  1.00  0.00     0.032 A 
BRANCH  22  25
HETATM   25  O   UNL     1      42.111 -16.131   2.841  1.00  0.00    -0.311 OA
BRANCH  25  26
HETATM   26  C   UNL     1      42.745 -17.303   3.169  1.00  0.00     0.076 A 
HETATM   27  C   UNL     1      42.807 -18.288   2.182  1.00  0.00     0.037 A 
HETATM   28  C   UNL     1      43.481 -19.482   2.433  1.00  0.00     0.003 A 
HETATM   29  C   UNL     1      44.106 -19.683   3.664  1.00  0.00     0.000 A 
HETATM   30  C   UNL     1      44.066 -18.687   4.641  1.00  0.00     0.003 A 
HETATM   31  C   UNL     1      43.393 -17.490   4.393  1.00  0.00     0.037 A 
ENDBRANCH  25  26
ENDBRANCH  22  25
ENDBRANCH   2  19
TORSDOF 6
ENDMDL
