MODEL 1
REMARK VINA RESULT:     -11.1      0.000      0.000
REMARK  6 active torsions:
REMARK  status: ('A' for Active; 'I' for Inactive)
REMARK    1  A    between atoms: C_2  and  N_3 
REMARK    2  A    between atoms: C_2  and  C_32 
REMARK       I    between atoms: N_3  and  C_4 
REMARK    3  A    between atoms: C_4  and  C_5 
REMARK    4  A    between atoms: C_6  and  N_7 
REMARK       I    between atoms: N_7  and  C_8 
REMARK    5  A    between atoms: C_8  and  C_9 
REMARK    6  A    between atoms: C_9  and  N_10 
ROOT
HETATM    1  N   UNL     1      43.804 -12.235   6.347  1.00  0.00    -0.325 N 
HETATM    2  C   UNL     1      44.959 -11.497   6.152  1.00  0.00     0.240 C 
HETATM    3  O   UNL     1      45.357 -11.063   5.074  1.00  0.00    -0.271 OA
HETATM    4  H   UNL     1      43.655 -12.645   7.276  1.00  0.00     0.169 HD
ENDROOT
BRANCH   1   5
HETATM    5  C   UNL     1      42.790 -12.519   5.393  1.00  0.00     0.050 A 
HETATM    6  C   UNL     1      42.504 -13.860   5.055  1.00  0.00     0.058 A 
HETATM    7  C   UNL     1      41.476 -14.168   4.146  1.00  0.00     0.019 A 
HETATM    8  C   UNL     1      40.741 -13.149   3.548  1.00  0.00     0.001 A 
HETATM    9  C   UNL     1      41.026 -11.823   3.859  1.00  0.00     0.002 A 
HETATM   10  C   UNL     1      42.038 -11.511   4.773  1.00  0.00     0.030 A 
BRANCH   6  11
HETATM   11  C   UNL     1      43.287 -14.972   5.655  1.00  0.00     0.254 C 
HETATM   12  N   UNL     1      43.005 -16.232   5.171  1.00  0.00    -0.349 N 
HETATM   13  H   UNL     1      42.464 -16.302   4.322  1.00  0.00     0.163 HD
HETATM   14  O   UNL     1      44.149 -14.725   6.490  1.00  0.00    -0.268 OA
BRANCH  12  15
HETATM   15  C   UNL     1      43.832 -17.379   5.516  1.00  0.00     0.114 C 
HETATM   16  C   UNL     1      43.420 -17.928   6.882  1.00  0.00     0.037 C 
BRANCH  15  17
HETATM   17  C   UNL     1      43.748 -18.433   4.424  1.00  0.00    -0.036 A 
HETATM   18  C   UNL     1      44.095 -19.761   4.715  1.00  0.00     0.009 A 
HETATM   19  C   UNL     1      44.000 -20.755   3.739  1.00  0.00     0.001 A 
HETATM   20  C   UNL     1      43.579 -20.432   2.451  1.00  0.00     0.000 A 
HETATM   21  C   UNL     1      43.255 -19.114   2.139  1.00  0.00     0.001 A 
HETATM   22  C   UNL     1      43.337 -18.120   3.118  1.00  0.00     0.009 A 
ENDBRANCH  15  17
ENDBRANCH  12  15
ENDBRANCH   6  11
ENDBRANCH   1   5
BRANCH   2  23
HETATM   23  C   UNL     1      45.791 -11.314   7.419  1.00  0.00     0.240 C 
BRANCH  23  24
HETATM   24  N   UNL     1      45.184 -10.290   8.237  1.00  0.00    -0.259 N 
HETATM   25  C   UNL     1      45.597  -8.997   8.269  1.00  0.00     0.326 A 
HETATM   26  O   UNL     1      46.511  -8.503   7.634  1.00  0.00    -0.247 OA
HETATM   27  N   UNL     1      44.825  -8.315   9.175  1.00  0.00    -0.324 N 
HETATM   28  C   UNL     1      43.784  -9.141   9.752  1.00  0.00     0.120 A 
HETATM   29  H   UNL     1      44.959  -7.327   9.344  1.00  0.00     0.165 HD
HETATM   30  C   UNL     1      43.855  -9.224  11.278  1.00  0.00     0.080 C 
HETATM   31  C   UNL     1      42.397  -8.709   9.278  1.00  0.00     0.046 C 
HETATM   32  C   UNL     1      44.165 -10.493   9.125  1.00  0.00     0.257 A 
HETATM   33  C   UNL     1      43.229  -8.033  11.969  1.00  0.00    -0.049 A 
HETATM   34  C   UNL     1      42.346  -7.169  11.297  1.00  0.00    -0.052 A 
HETATM   35  C   UNL     1      43.490  -7.830  13.333  1.00  0.00     0.007 A 
HETATM   36  C   UNL     1      42.034  -7.331   9.830  1.00  0.00     0.042 C 
HETATM   37  C   UNL     1      41.777  -6.092  11.995  1.00  0.00     0.007 A 
HETATM   38  C   UNL     1      42.055  -5.893  13.347  1.00  0.00     0.001 A 
HETATM   39  C   UNL     1      42.907  -6.765  14.017  1.00  0.00     0.001 A 
HETATM   40  O   UNL     1      43.630 -11.562   9.382  1.00  0.00    -0.270 OA
ENDBRANCH  23  24
ENDBRANCH   2  23
TORSDOF 6
ENDMDL
MODEL 2
REMARK VINA RESULT:     -10.8      2.167     10.533
REMARK  6 active torsions:
REMARK  status: ('A' for Active; 'I' for Inactive)
REMARK    1  A    between atoms: C_2  and  N_3 
REMARK    2  A    between atoms: C_2  and  C_32 
REMARK       I    between atoms: N_3  and  C_4 
REMARK    3  A    between atoms: C_4  and  C_5 
REMARK    4  A    between atoms: C_6  and  N_7 
REMARK       I    between atoms: N_7  and  C_8 
REMARK    5  A    between atoms: C_8  and  C_9 
REMARK    6  A    between atoms: C_9  and  N_10 
ROOT
HETATM    1  N   UNL     1      42.428 -11.109   6.995  1.00  0.00    -0.325 N 
HETATM    2  C   UNL     1      41.840 -10.640   5.833  1.00  0.00     0.240 C 
HETATM    3  O   UNL     1      42.249  -9.701   5.153  1.00  0.00    -0.271 OA
HETATM    4  H   UNL     1      41.914 -11.815   7.534  1.00  0.00     0.169 HD
ENDROOT
BRANCH   1   5
HETATM    5  C   UNL     1      43.671 -10.710   7.556  1.00  0.00     0.050 A 
HETATM    6  C   UNL     1      43.690  -9.833   8.662  1.00  0.00     0.058 A 
HETATM    7  C   UNL     1      44.905  -9.458   9.261  1.00  0.00     0.019 A 
HETATM    8  C   UNL     1      46.112  -9.931   8.753  1.00  0.00     0.001 A 
HETATM    9  C   UNL     1      46.107 -10.780   7.652  1.00  0.00     0.002 A 
HETATM   10  C   UNL     1      44.900 -11.168   7.061  1.00  0.00     0.030 A 
BRANCH   6  11
HETATM   11  C   UNL     1      42.421  -9.289   9.214  1.00  0.00     0.254 C 
HETATM   12  N   UNL     1      42.093  -9.709  10.486  1.00  0.00    -0.349 N 
HETATM   13  H   UNL     1      42.807 -10.169  11.031  1.00  0.00     0.163 HD
HETATM   14  O   UNL     1      41.769  -8.487   8.556  1.00  0.00    -0.268 OA
BRANCH  12  15
HETATM   15  C   UNL     1      40.996  -9.102  11.224  1.00  0.00     0.114 C 
HETATM   16  C   UNL     1      39.849 -10.103  11.372  1.00  0.00     0.037 C 
BRANCH  15  17
HETATM   17  C   UNL     1      41.488  -8.591  12.568  1.00  0.00    -0.036 A 
HETATM   18  C   UNL     1      42.674  -7.844  12.634  1.00  0.00     0.009 A 
HETATM   19  C   UNL     1      43.133  -7.337  13.851  1.00  0.00     0.001 A 
HETATM   20  C   UNL     1      42.427  -7.589  15.024  1.00  0.00     0.000 A 
HETATM   21  C   UNL     1      41.262  -8.350  14.981  1.00  0.00     0.001 A 
HETATM   22  C   UNL     1      40.793  -8.847  13.762  1.00  0.00     0.009 A 
ENDBRANCH  15  17
ENDBRANCH  12  15
ENDBRANCH   6  11
ENDBRANCH   1   5
BRANCH   2  23
HETATM   23  C   UNL     1      40.537 -11.350   5.474  1.00  0.00     0.240 C 
BRANCH  23  24
HETATM   24  N   UNL     1      40.839 -12.692   5.034  1.00  0.00    -0.259 N 
HETATM   25  C   UNL     1      40.251 -13.808   5.537  1.00  0.00     0.326 A 
HETATM   26  O   UNL     1      39.400 -13.861   6.406  1.00  0.00    -0.247 OA
HETATM   27  N   UNL     1      40.797 -14.904   4.919  1.00  0.00    -0.324 N 
HETATM   28  C   UNL     1      41.756 -14.546   3.894  1.00  0.00     0.120 A 
HETATM   29  H   UNL     1      40.489 -15.842   5.139  1.00  0.00     0.165 HD
HETATM   30  C   UNL     1      43.144 -15.145   4.128  1.00  0.00     0.080 C 
HETATM   31  C   UNL     1      41.232 -14.873   2.496  1.00  0.00     0.046 C 
HETATM   32  C   UNL     1      41.789 -13.023   4.108  1.00  0.00     0.257 A 
HETATM   33  C   UNL     1      43.258 -16.581   3.667  1.00  0.00    -0.049 A 
HETATM   34  C   UNL     1      42.328 -17.147   2.777  1.00  0.00    -0.052 A 
HETATM   35  C   UNL     1      44.358 -17.341   4.092  1.00  0.00     0.007 A 
HETATM   36  C   UNL     1      41.120 -16.382   2.293  1.00  0.00     0.042 C 
HETATM   37  C   UNL     1      42.496 -18.478   2.365  1.00  0.00     0.007 A 
HETATM   38  C   UNL     1      43.587 -19.228   2.804  1.00  0.00     0.001 A 
HETATM   39  C   UNL     1      44.520 -18.658   3.664  1.00  0.00     0.001 A 
HETATM   40  O   UNL     1      42.539 -12.248   3.533  1.00  0.00    -0.270 OA
ENDBRANCH  23  24
ENDBRANCH   2  23
TORSDOF 6
ENDMDL
MODEL 3
REMARK VINA RESULT:     -10.6      2.451     10.506
REMARK  6 active torsions:
REMARK  status: ('A' for Active; 'I' for Inactive)
REMARK    1  A    between atoms: C_2  and  N_3 
REMARK    2  A    between atoms: C_2  and  C_32 
REMARK       I    between atoms: N_3  and  C_4 
REMARK    3  A    between atoms: C_4  and  C_5 
REMARK    4  A    between atoms: C_6  and  N_7 
REMARK       I    between atoms: N_7  and  C_8 
REMARK    5  A    between atoms: C_8  and  C_9 
REMARK    6  A    between atoms: C_9  and  N_10 
ROOT
HETATM    1  N   UNL     1      42.444 -10.649   7.883  1.00  0.00    -0.325 N 
HETATM    2  C   UNL     1      41.863  -9.985   6.816  1.00  0.00     0.240 C 
HETATM    3  O   UNL     1      42.041  -8.805   6.525  1.00  0.00    -0.271 OA
HETATM    4  H   UNL     1      42.111 -11.598   8.088  1.00  0.00     0.169 HD
ENDROOT
BRANCH   1   5
HETATM    5  C   UNL     1      43.450 -10.161   8.759  1.00  0.00     0.050 A 
HETATM    6  C   UNL     1      43.081  -9.573   9.988  1.00  0.00     0.058 A 
HETATM    7  C   UNL     1      44.060  -9.121  10.891  1.00  0.00     0.019 A 
HETATM    8  C   UNL     1      45.411  -9.228  10.572  1.00  0.00     0.001 A 
HETATM    9  C   UNL     1      45.786  -9.788   9.355  1.00  0.00     0.002 A 
HETATM   10  C   UNL     1      44.816 -10.252   8.459  1.00  0.00     0.030 A 
BRANCH   6  11
HETATM   11  C   UNL     1      41.648  -9.420  10.350  1.00  0.00     0.254 C 
HETATM   12  N   UNL     1      41.246 -10.072  11.496  1.00  0.00    -0.349 N 
HETATM   13  H   UNL     1      41.962 -10.423  12.116  1.00  0.00     0.163 HD
HETATM   14  O   UNL     1      40.921  -8.710   9.664  1.00  0.00    -0.268 OA
BRANCH  12  15
HETATM   15  C   UNL     1      39.932  -9.845  12.078  1.00  0.00     0.114 C 
HETATM   16  C   UNL     1      39.399 -11.142  12.688  1.00  0.00     0.037 C 
BRANCH  15  17
HETATM   17  C   UNL     1      39.997  -8.717  13.095  1.00  0.00    -0.036 A 
HETATM   18  C   UNL     1      40.945  -8.768  14.129  1.00  0.00     0.009 A 
HETATM   19  C   UNL     1      41.045  -7.732  15.058  1.00  0.00     0.001 A 
HETATM   20  C   UNL     1      40.184  -6.640  14.984  1.00  0.00     0.000 A 
HETATM   21  C   UNL     1      39.220  -6.586  13.981  1.00  0.00     0.001 A 
HETATM   22  C   UNL     1      39.126  -7.616  13.041  1.00  0.00     0.009 A 
ENDBRANCH  15  17
ENDBRANCH  12  15
ENDBRANCH   6  11
ENDBRANCH   1   5
BRANCH   2  23
HETATM   23  C   UNL     1      40.872 -10.838   6.028  1.00  0.00     0.240 C 
BRANCH  23  24
HETATM   24  N   UNL     1      41.530 -12.052   5.604  1.00  0.00    -0.259 N 
HETATM   25  C   UNL     1      42.721 -12.086   4.954  1.00  0.00     0.326 A 
HETATM   26  O   UNL     1      43.411 -11.134   4.636  1.00  0.00    -0.247 OA
HETATM   27  N   UNL     1      43.028 -13.393   4.673  1.00  0.00    -0.324 N 
HETATM   28  C   UNL     1      42.051 -14.321   5.206  1.00  0.00     0.120 A 
HETATM   29  H   UNL     1      43.886 -13.644   4.201  1.00  0.00     0.165 HD
HETATM   30  C   UNL     1      41.419 -15.212   4.137  1.00  0.00     0.080 C 
HETATM   31  C   UNL     1      42.630 -15.147   6.355  1.00  0.00     0.046 C 
HETATM   32  C   UNL     1      41.020 -13.313   5.742  1.00  0.00     0.257 A 
HETATM   33  C   UNL     1      42.277 -16.401   3.767  1.00  0.00    -0.049 A 
HETATM   34  C   UNL     1      43.328 -16.837   4.592  1.00  0.00    -0.052 A 
HETATM   35  C   UNL     1      41.969 -17.120   2.602  1.00  0.00     0.007 A 
HETATM   36  C   UNL     1      43.713 -16.100   5.852  1.00  0.00     0.042 C 
HETATM   37  C   UNL     1      44.079 -17.961   4.210  1.00  0.00     0.007 A 
HETATM   38  C   UNL     1      43.771 -18.660   3.044  1.00  0.00     0.001 A 
HETATM   39  C   UNL     1      42.714 -18.242   2.242  1.00  0.00     0.001 A 
HETATM   40  O   UNL     1      39.932 -13.606   6.216  1.00  0.00    -0.270 OA
ENDBRANCH  23  24
ENDBRANCH   2  23
TORSDOF 6
ENDMDL
MODEL 4
REMARK VINA RESULT:     -10.4      3.042      4.866
REMARK  6 active torsions:
REMARK  status: ('A' for Active; 'I' for Inactive)
REMARK    1  A    between atoms: C_2  and  N_3 
REMARK    2  A    between atoms: C_2  and  C_32 
REMARK       I    between atoms: N_3  and  C_4 
REMARK    3  A    between atoms: C_4  and  C_5 
REMARK    4  A    between atoms: C_6  and  N_7 
REMARK       I    between atoms: N_7  and  C_8 
REMARK    5  A    between atoms: C_8  and  C_9 
REMARK    6  A    between atoms: C_9  and  N_10 
ROOT
HETATM    1  N   UNL     1      39.087 -11.901   2.649  1.00  0.00    -0.325 N 
HETATM    2  C   UNL     1      39.234 -10.539   2.847  1.00  0.00     0.240 C 
HETATM    3  O   UNL     1      39.769  -9.755   2.067  1.00  0.00    -0.271 OA
HETATM    4  H   UNL     1      38.738 -12.460   3.435  1.00  0.00     0.169 HD
ENDROOT
BRANCH   1   5
HETATM    5  C   UNL     1      39.388 -12.639   1.472  1.00  0.00     0.050 A 
HETATM    6  C   UNL     1      40.311 -13.706   1.533  1.00  0.00     0.058 A 
HETATM    7  C   UNL     1      40.593 -14.478   0.392  1.00  0.00     0.019 A 
HETATM    8  C   UNL     1      39.979 -14.183  -0.823  1.00  0.00     0.001 A 
HETATM    9  C   UNL     1      39.083 -13.122  -0.899  1.00  0.00     0.002 A 
HETATM   10  C   UNL     1      38.788 -12.360   0.237  1.00  0.00     0.030 A 
BRANCH   6  11
HETATM   11  C   UNL     1      41.003 -14.031   2.807  1.00  0.00     0.254 C 
HETATM   12  N   UNL     1      40.895 -15.339   3.230  1.00  0.00    -0.349 N 
HETATM   13  H   UNL     1      40.550 -16.022   2.572  1.00  0.00     0.163 HD
HETATM   14  O   UNL     1      41.654 -13.167   3.382  1.00  0.00    -0.268 OA
BRANCH  12  15
HETATM   15  C   UNL     1      41.686 -15.845   4.342  1.00  0.00     0.114 C 
HETATM   16  C   UNL     1      40.769 -16.216   5.509  1.00  0.00     0.037 C 
BRANCH  15  17
HETATM   17  C   UNL     1      42.540 -17.016   3.888  1.00  0.00    -0.036 A 
HETATM   18  C   UNL     1      42.373 -17.537   2.596  1.00  0.00     0.009 A 
HETATM   19  C   UNL     1      43.165 -18.594   2.143  1.00  0.00     0.001 A 
HETATM   20  C   UNL     1      44.119 -19.162   2.983  1.00  0.00     0.000 A 
HETATM   21  C   UNL     1      44.281 -18.675   4.277  1.00  0.00     0.001 A 
HETATM   22  C   UNL     1      43.498 -17.609   4.728  1.00  0.00     0.009 A 
ENDBRANCH  15  17
ENDBRANCH  12  15
ENDBRANCH   6  11
ENDBRANCH   1   5
BRANCH   2  23
HETATM   23  C   UNL     1      38.732 -10.060   4.207  1.00  0.00     0.240 C 
BRANCH  23  24
HETATM   24  N   UNL     1      39.776 -10.248   5.187  1.00  0.00    -0.259 N 
HETATM   25  C   UNL     1      39.841 -11.304   6.037  1.00  0.00     0.326 A 
HETATM   26  O   UNL     1      39.062 -12.238   6.109  1.00  0.00    -0.247 OA
HETATM   27  N   UNL     1      40.936 -11.145   6.849  1.00  0.00    -0.324 N 
HETATM   28  C   UNL     1      41.710  -9.968   6.513  1.00  0.00     0.120 A 
HETATM   29  H   UNL     1      41.177 -11.832   7.550  1.00  0.00     0.165 HD
HETATM   30  C   UNL     1      41.863  -8.992   7.681  1.00  0.00     0.080 C 
HETATM   31  C   UNL     1      43.065 -10.339   5.913  1.00  0.00     0.046 C 
HETATM   32  C   UNL     1      40.794  -9.369   5.432  1.00  0.00     0.257 A 
HETATM   33  C   UNL     1      42.960  -9.382   8.645  1.00  0.00    -0.049 A 
HETATM   34  C   UNL     1      43.965 -10.299   8.287  1.00  0.00    -0.052 A 
HETATM   35  C   UNL     1      43.008  -8.760   9.902  1.00  0.00     0.007 A 
HETATM   36  C   UNL     1      43.962 -11.007   6.954  1.00  0.00     0.042 C 
HETATM   37  C   UNL     1      44.972 -10.609   9.215  1.00  0.00     0.007 A 
HETATM   38  C   UNL     1      45.002  -9.993  10.466  1.00  0.00     0.001 A 
HETATM   39  C   UNL     1      44.023  -9.066  10.808  1.00  0.00     0.001 A 
HETATM   40  O   UNL     1      40.964  -8.288   4.886  1.00  0.00    -0.270 OA
ENDBRANCH  23  24
ENDBRANCH   2  23
TORSDOF 6
ENDMDL
MODEL 5
REMARK VINA RESULT:     -10.3      1.872      2.552
REMARK  6 active torsions:
REMARK  status: ('A' for Active; 'I' for Inactive)
REMARK    1  A    between atoms: C_2  and  N_3 
REMARK    2  A    between atoms: C_2  and  C_32 
REMARK       I    between atoms: N_3  and  C_4 
REMARK    3  A    between atoms: C_4  and  C_5 
REMARK    4  A    between atoms: C_6  and  N_7 
REMARK       I    between atoms: N_7  and  C_8 
REMARK    5  A    between atoms: C_8  and  C_9 
REMARK    6  A    between atoms: C_9  and  N_10 
ROOT
HETATM    1  N   UNL     1      42.170 -12.214   4.029  1.00  0.00    -0.325 N 
HETATM    2  C   UNL     1      42.021 -11.560   5.240  1.00  0.00     0.240 C 
HETATM    3  O   UNL     1      41.005 -11.558   5.930  1.00  0.00    -0.271 OA
HETATM    4  H   UNL     1      43.026 -12.029   3.493  1.00  0.00     0.169 HD
ENDROOT
BRANCH   1   5
HETATM    5  C   UNL     1      41.257 -13.111   3.413  1.00  0.00     0.050 A 
HETATM    6  C   UNL     1      41.522 -14.498   3.427  1.00  0.00     0.058 A 
HETATM    7  C   UNL     1      40.612 -15.409   2.862  1.00  0.00     0.019 A 
HETATM    8  C   UNL     1      39.443 -14.950   2.260  1.00  0.00     0.001 A 
HETATM    9  C   UNL     1      39.180 -13.585   2.224  1.00  0.00     0.002 A 
HETATM   10  C   UNL     1      40.076 -12.675   2.797  1.00  0.00     0.030 A 
BRANCH   6  11
HETATM   11  C   UNL     1      42.772 -15.020   4.038  1.00  0.00     0.254 C 
HETATM   12  N   UNL     1      42.669 -16.249   4.655  1.00  0.00    -0.349 N 
HETATM   13  H   UNL     1      41.842 -16.800   4.476  1.00  0.00     0.163 HD
HETATM   14  O   UNL     1      43.811 -14.380   3.934  1.00  0.00    -0.268 OA
BRANCH  12  15
HETATM   15  C   UNL     1      43.848 -16.970   5.111  1.00  0.00     0.114 C 
HETATM   16  C   UNL     1      43.890 -16.986   6.640  1.00  0.00     0.037 C 
BRANCH  15  17
HETATM   17  C   UNL     1      43.869 -18.369   4.521  1.00  0.00    -0.036 A 
HETATM   18  C   UNL     1      44.009 -19.478   5.370  1.00  0.00     0.009 A 
HETATM   19  C   UNL     1      44.002 -20.777   4.857  1.00  0.00     0.001 A 
HETATM   20  C   UNL     1      43.879 -20.986   3.486  1.00  0.00     0.000 A 
HETATM   21  C   UNL     1      43.765 -19.896   2.627  1.00  0.00     0.001 A 
HETATM   22  C   UNL     1      43.759 -18.596   3.139  1.00  0.00     0.009 A 
ENDBRANCH  15  17
ENDBRANCH  12  15
ENDBRANCH   6  11
ENDBRANCH   1   5
BRANCH   2  23
HETATM   23  C   UNL     1      43.238 -10.733   5.645  1.00  0.00     0.240 C 
BRANCH  23  24
HETATM   24  N   UNL     1      43.196 -10.502   7.071  1.00  0.00    -0.259 N 
HETATM   25  C   UNL     1      43.680 -11.367   7.997  1.00  0.00     0.326 A 
HETATM   26  O   UNL     1      44.216 -12.441   7.789  1.00  0.00    -0.247 OA
HETATM   27  N   UNL     1      43.444 -10.848   9.245  1.00  0.00    -0.324 N 
HETATM   28  C   UNL     1      42.832  -9.536   9.195  1.00  0.00     0.120 A 
HETATM   29  H   UNL     1      43.740 -11.332  10.082  1.00  0.00     0.165 HD
HETATM   30  C   UNL     1      41.492  -9.466   9.930  1.00  0.00     0.080 C 
HETATM   31  C   UNL     1      43.793  -8.449   9.675  1.00  0.00     0.046 C 
HETATM   32  C   UNL     1      42.615  -9.423   7.676  1.00  0.00     0.257 A 
HETATM   33  C   UNL     1      41.641  -9.289  11.424  1.00  0.00    -0.049 A 
HETATM   34  C   UNL     1      42.845  -8.844  11.998  1.00  0.00    -0.052 A 
HETATM   35  C   UNL     1      40.526  -9.513  12.245  1.00  0.00     0.007 A 
HETATM   36  C   UNL     1      44.081  -8.594  11.168  1.00  0.00     0.042 C 
HETATM   37  C   UNL     1      42.920  -8.675  13.390  1.00  0.00     0.007 A 
HETATM   38  C   UNL     1      41.808  -8.914  14.197  1.00  0.00     0.001 A 
HETATM   39  C   UNL     1      40.610  -9.328  13.625  1.00  0.00     0.001 A 
HETATM   40  O   UNL     1      42.025  -8.509   7.117  1.00  0.00    -0.270 OA
ENDBRANCH  23  24
ENDBRANCH   2  23
TORSDOF 6
ENDMDL
MODEL 6
REMARK VINA RESULT:     -10.2      3.788      5.972
REMARK  6 active torsions:
REMARK  status: ('A' for Active; 'I' for Inactive)
REMARK    1  A    between atoms: C_2  and  N_3 
REMARK    2  A    between atoms: C_2  and  C_32 
REMARK       I    between atoms: N_3  and  C_4 
REMARK    3  A    between atoms: C_4  and  C_5 
REMARK    4  A    between atoms: C_6  and  N_7 
REMARK       I    between atoms: N_7  and  C_8 
REMARK    5  A    between atoms: C_8  and  C_9 
REMARK    6  A    between atoms: C_9  and  N_10 
ROOT
HETATM    1  N   UNL     1      38.871 -11.382   1.293  1.00  0.00    -0.325 N 
HETATM    2  C   UNL     1      39.064 -10.017   1.166  1.00  0.00     0.240 C 
HETATM    3  O   UNL     1      39.560  -9.452   0.194  1.00  0.00    -0.271 OA
HETATM    4  H   UNL     1      38.567 -11.735   2.207  1.00  0.00     0.169 HD
ENDROOT
BRANCH   1   5
HETATM    5  C   UNL     1      39.068 -12.378   0.299  1.00  0.00     0.050 A 
HETATM    6  C   UNL     1      40.064 -13.362   0.481  1.00  0.00     0.058 A 
HETATM    7  C   UNL     1      40.249 -14.382  -0.468  1.00  0.00     0.019 A 
HETATM    8  C   UNL     1      39.463 -14.421  -1.617  1.00  0.00     0.001 A 
HETATM    9  C   UNL     1      38.491 -13.446  -1.817  1.00  0.00     0.002 A 
HETATM   10  C   UNL     1      38.294 -12.437  -0.868  1.00  0.00     0.030 A 
BRANCH   6  11
HETATM   11  C   UNL     1      40.937 -13.335   1.684  1.00  0.00     0.254 C 
HETATM   12  N   UNL     1      40.797 -14.398   2.550  1.00  0.00    -0.349 N 
HETATM   13  H   UNL     1      40.288 -15.208   2.226  1.00  0.00     0.163 HD
HETATM   14  O   UNL     1      41.747 -12.426   1.825  1.00  0.00    -0.268 OA
BRANCH  12  15
HETATM   15  C   UNL     1      41.724 -14.607   3.652  1.00  0.00     0.114 C 
HETATM   16  C   UNL     1      40.988 -14.472   4.986  1.00  0.00     0.037 C 
BRANCH  15  17
HETATM   17  C   UNL     1      42.413 -15.954   3.510  1.00  0.00    -0.036 A 
HETATM   18  C   UNL     1      42.139 -16.759   2.392  1.00  0.00     0.009 A 
HETATM   19  C   UNL     1      42.781 -17.987   2.222  1.00  0.00     0.001 A 
HETATM   20  C   UNL     1      43.686 -18.441   3.177  1.00  0.00     0.000 A 
HETATM   21  C   UNL     1      43.950 -17.667   4.304  1.00  0.00     0.001 A 
HETATM   22  C   UNL     1      43.319 -16.431   4.471  1.00  0.00     0.009 A 
ENDBRANCH  15  17
ENDBRANCH  12  15
ENDBRANCH   6  11
ENDBRANCH   1   5
BRANCH   2  23
HETATM   23  C   UNL     1      38.675  -9.224   2.411  1.00  0.00     0.240 C 
BRANCH  23  24
HETATM   24  N   UNL     1      39.768  -9.262   3.354  1.00  0.00    -0.259 N 
HETATM   25  C   UNL     1      40.724  -8.303   3.450  1.00  0.00     0.326 A 
HETATM   26  O   UNL     1      40.813  -7.287   2.785  1.00  0.00    -0.247 OA
HETATM   27  N   UNL     1      41.619  -8.675   4.421  1.00  0.00    -0.324 N 
HETATM   28  C   UNL     1      41.243  -9.909   5.081  1.00  0.00     0.120 A 
HETATM   29  H   UNL     1      42.408  -8.091   4.663  1.00  0.00     0.165 HD
HETATM   30  C   UNL     1      42.314 -10.997   4.984  1.00  0.00     0.080 C 
HETATM   31  C   UNL     1      40.821  -9.664   6.529  1.00  0.00     0.046 C 
HETATM   32  C   UNL     1      40.021 -10.284   4.226  1.00  0.00     0.257 A 
HETATM   33  C   UNL     1      43.417 -10.840   6.007  1.00  0.00    -0.049 A 
HETATM   34  C   UNL     1      43.257 -10.033   7.147  1.00  0.00    -0.052 A 
HETATM   35  C   UNL     1      44.602 -11.573   5.840  1.00  0.00     0.007 A 
HETATM   36  C   UNL     1      42.010  -9.215   7.377  1.00  0.00     0.042 C 
HETATM   37  C   UNL     1      44.307  -9.942   8.075  1.00  0.00     0.007 A 
HETATM   38  C   UNL     1      45.485 -10.665   7.891  1.00  0.00     0.001 A 
HETATM   39  C   UNL     1      45.631 -11.484   6.776  1.00  0.00     0.001 A 
HETATM   40  O   UNL     1      39.386 -11.324   4.325  1.00  0.00    -0.270 OA
ENDBRANCH  23  24
ENDBRANCH   2  23
TORSDOF 6
ENDMDL
MODEL 7
REMARK VINA RESULT:     -10.2      4.379      8.496
REMARK  6 active torsions:
REMARK  status: ('A' for Active; 'I' for Inactive)
REMARK    1  A    between atoms: C_2  and  N_3 
REMARK    2  A    between atoms: C_2  and  C_32 
REMARK       I    between atoms: N_3  and  C_4 
REMARK    3  A    between atoms: C_4  and  C_5 
REMARK    4  A    between atoms: C_6  and  N_7 
REMARK       I    between atoms: N_7  and  C_8 
REMARK    5  A    between atoms: C_8  and  C_9 
REMARK    6  A    between atoms: C_9  and  N_10 
ROOT
HETATM    1  N   UNL     1      41.068  -9.540   4.632  1.00  0.00    -0.325 N 
HETATM    2  C   UNL     1      40.274 -10.556   5.134  1.00  0.00     0.240 C 
HETATM    3  O   UNL     1      39.161 -10.866   4.717  1.00  0.00    -0.271 OA
HETATM    4  H   UNL     1      41.920  -9.302   5.153  1.00  0.00     0.169 HD
ENDROOT
BRANCH   1   5
HETATM    5  C   UNL     1      40.834  -8.755   3.471  1.00  0.00     0.050 A 
HETATM    6  C   UNL     1      40.935  -9.348   2.194  1.00  0.00     0.058 A 
HETATM    7  C   UNL     1      40.666  -8.603   1.032  1.00  0.00     0.019 A 
HETATM    8  C   UNL     1      40.318  -7.259   1.126  1.00  0.00     0.001 A 
HETATM    9  C   UNL     1      40.234  -6.658   2.379  1.00  0.00     0.002 A 
HETATM   10  C   UNL     1      40.486  -7.399   3.539  1.00  0.00     0.030 A 
BRANCH   6  11
HETATM   11  C   UNL     1      41.330 -10.775   2.055  1.00  0.00     0.254 C 
HETATM   12  N   UNL     1      40.312 -11.650   1.742  1.00  0.00    -0.349 N 
HETATM   13  H   UNL     1      39.435 -11.262   1.426  1.00  0.00     0.163 HD
HETATM   14  O   UNL     1      42.507 -11.093   2.175  1.00  0.00    -0.268 OA
BRANCH  12  15
HETATM   15  C   UNL     1      40.584 -13.031   1.376  1.00  0.00     0.114 C 
HETATM   16  C   UNL     1      39.709 -13.974   2.203  1.00  0.00     0.037 C 
BRANCH  15  17
HETATM   17  C   UNL     1      40.387 -13.227  -0.118  1.00  0.00    -0.036 A 
HETATM   18  C   UNL     1      39.691 -14.354  -0.584  1.00  0.00     0.009 A 
HETATM   19  C   UNL     1      39.471 -14.543  -1.950  1.00  0.00     0.001 A 
HETATM   20  C   UNL     1      39.962 -13.623  -2.871  1.00  0.00     0.000 A 
HETATM   21  C   UNL     1      40.677 -12.513  -2.428  1.00  0.00     0.001 A 
HETATM   22  C   UNL     1      40.888 -12.314  -1.061  1.00  0.00     0.009 A 
ENDBRANCH  15  17
ENDBRANCH  12  15
ENDBRANCH   6  11
ENDBRANCH   1   5
BRANCH   2  23
HETATM   23  C   UNL     1      40.868 -11.252   6.356  1.00  0.00     0.240 C 
BRANCH  23  24
HETATM   24  N   UNL     1      41.569 -12.440   5.926  1.00  0.00    -0.259 N 
HETATM   25  C   UNL     1      42.816 -12.436   5.391  1.00  0.00     0.326 A 
HETATM   26  O   UNL     1      43.527 -11.467   5.194  1.00  0.00    -0.247 OA
HETATM   27  N   UNL     1      43.155 -13.725   5.066  1.00  0.00    -0.324 N 
HETATM   28  C   UNL     1      42.138 -14.682   5.451  1.00  0.00     0.120 A 
HETATM   29  H   UNL     1      44.056 -13.948   4.663  1.00  0.00     0.165 HD
HETATM   30  C   UNL     1      41.613 -15.511   4.277  1.00  0.00     0.080 C 
HETATM   31  C   UNL     1      42.610 -15.573   6.599  1.00  0.00     0.046 C 
HETATM   32  C   UNL     1      41.055 -13.707   5.943  1.00  0.00     0.257 A 
HETATM   33  C   UNL     1      42.509 -16.676   3.922  1.00  0.00    -0.049 A 
HETATM   34  C   UNL     1      43.481 -17.159   4.817  1.00  0.00    -0.052 A 
HETATM   35  C   UNL     1      42.316 -17.327   2.694  1.00  0.00     0.007 A 
HETATM   36  C   UNL     1      43.741 -16.496   6.147  1.00  0.00     0.042 C 
HETATM   37  C   UNL     1      44.270 -18.259   4.443  1.00  0.00     0.007 A 
HETATM   38  C   UNL     1      44.077 -18.889   3.215  1.00  0.00     0.001 A 
HETATM   39  C   UNL     1      43.097 -18.427   2.342  1.00  0.00     0.001 A 
HETATM   40  O   UNL     1      39.929 -14.026   6.295  1.00  0.00    -0.270 OA
ENDBRANCH  23  24
ENDBRANCH   2  23
TORSDOF 6
ENDMDL
MODEL 8
REMARK VINA RESULT:      -9.8      6.261     11.082
REMARK  6 active torsions:
REMARK  status: ('A' for Active; 'I' for Inactive)
REMARK    1  A    between atoms: C_2  and  N_3 
REMARK    2  A    between atoms: C_2  and  C_32 
REMARK       I    between atoms: N_3  and  C_4 
REMARK    3  A    between atoms: C_4  and  C_5 
REMARK    4  A    between atoms: C_6  and  N_7 
REMARK       I    between atoms: N_7  and  C_8 
REMARK    5  A    between atoms: C_8  and  C_9 
REMARK    6  A    between atoms: C_9  and  N_10 
ROOT
HETATM    1  N   UNL     1      40.569 -12.509   0.551  1.00  0.00    -0.325 N 
HETATM    2  C   UNL     1      39.908 -12.227   1.735  1.00  0.00     0.240 C 
HETATM    3  O   UNL     1      38.695 -12.082   1.859  1.00  0.00    -0.271 OA
HETATM    4  H   UNL     1      41.595 -12.477   0.562  1.00  0.00     0.169 HD
ENDROOT
BRANCH   1   5
HETATM    5  C   UNL     1      39.990 -12.821  -0.708  1.00  0.00     0.050 A 
HETATM    6  C   UNL     1      39.840 -11.807  -1.679  1.00  0.00     0.058 A 
HETATM    7  C   UNL     1      39.309 -12.100  -2.948  1.00  0.00     0.019 A 
HETATM    8  C   UNL     1      38.901 -13.395  -3.255  1.00  0.00     0.001 A 
HETATM    9  C   UNL     1      39.025 -14.398  -2.298  1.00  0.00     0.002 A 
HETATM   10  C   UNL     1      39.566 -14.115  -1.040  1.00  0.00     0.030 A 
BRANCH   6  11
HETATM   11  C   UNL     1      40.243 -10.408  -1.377  1.00  0.00     0.254 C 
HETATM   12  N   UNL     1      41.274  -9.903  -2.139  1.00  0.00    -0.349 N 
HETATM   13  H   UNL     1      41.542 -10.413  -2.969  1.00  0.00     0.163 HD
HETATM   14  O   UNL     1      39.633  -9.773  -0.525  1.00  0.00    -0.268 OA
BRANCH  12  15
HETATM   15  C   UNL     1      41.632  -8.494  -2.094  1.00  0.00     0.114 C 
HETATM   16  C   UNL     1      42.961  -8.315  -1.359  1.00  0.00     0.037 C 
BRANCH  15  17
HETATM   17  C   UNL     1      41.670  -7.917  -3.499  1.00  0.00    -0.036 A 
HETATM   18  C   UNL     1      42.773  -7.148  -3.903  1.00  0.00     0.009 A 
HETATM   19  C   UNL     1      42.847  -6.630  -5.198  1.00  0.00     0.001 A 
HETATM   20  C   UNL     1      41.811  -6.853  -6.101  1.00  0.00     0.000 A 
HETATM   21  C   UNL     1      40.698  -7.592  -5.708  1.00  0.00     0.001 A 
HETATM   22  C   UNL     1      40.626  -8.122  -4.417  1.00  0.00     0.009 A 
ENDBRANCH  15  17
ENDBRANCH  12  15
ENDBRANCH   6  11
ENDBRANCH   1   5
BRANCH   2  23
HETATM   23  C   UNL     1      40.842 -12.020   2.924  1.00  0.00     0.240 C 
BRANCH  23  24
HETATM   24  N   UNL     1      41.560 -13.247   3.179  1.00  0.00    -0.259 N 
HETATM   25  C   UNL     1      42.913 -13.358   3.146  1.00  0.00     0.326 A 
HETATM   26  O   UNL     1      43.716 -12.474   2.911  1.00  0.00    -0.247 OA
HETATM   27  N   UNL     1      43.249 -14.664   3.398  1.00  0.00    -0.324 N 
HETATM   28  C   UNL     1      42.095 -15.490   3.687  1.00  0.00     0.120 A 
HETATM   29  H   UNL     1      44.215 -14.962   3.434  1.00  0.00     0.165 HD
HETATM   30  C   UNL     1      41.953 -16.682   2.739  1.00  0.00     0.080 C 
HETATM   31  C   UNL     1      42.072 -15.931   5.150  1.00  0.00     0.046 C 
HETATM   32  C   UNL     1      40.982 -14.461   3.422  1.00  0.00     0.257 A 
HETATM   33  C   UNL     1      42.829 -17.854   3.121  1.00  0.00    -0.049 A 
HETATM   34  C   UNL     1      43.391 -17.969   4.405  1.00  0.00    -0.052 A 
HETATM   35  C   UNL     1      43.029 -18.881   2.185  1.00  0.00     0.007 A 
HETATM   36  C   UNL     1      43.219 -16.894   5.451  1.00  0.00     0.042 C 
HETATM   37  C   UNL     1      44.178 -19.090   4.711  1.00  0.00     0.007 A 
HETATM   38  C   UNL     1      44.380 -20.098   3.769  1.00  0.00     0.001 A 
HETATM   39  C   UNL     1      43.802 -19.996   2.507  1.00  0.00     0.001 A 
HETATM   40  O   UNL     1      39.784 -14.703   3.438  1.00  0.00    -0.270 OA
ENDBRANCH  23  24
ENDBRANCH   2  23
TORSDOF 6
ENDMDL
MODEL 9
REMARK VINA RESULT:      -9.8      6.477     11.327
REMARK  6 active torsions:
REMARK  status: ('A' for Active; 'I' for Inactive)
REMARK    1  A    between atoms: C_2  and  N_3 
REMARK    2  A    between atoms: C_2  and  C_32 
REMARK       I    between atoms: N_3  and  C_4 
REMARK    3  A    between atoms: C_4  and  C_5 
REMARK    4  A    between atoms: C_6  and  N_7 
REMARK       I    between atoms: N_7  and  C_8 
REMARK    5  A    between atoms: C_8  and  C_9 
REMARK    6  A    between atoms: C_9  and  N_10 
ROOT
HETATM    1  N   UNL     1      39.371 -13.128   0.307  1.00  0.00    -0.325 N 
HETATM    2  C   UNL     1      40.504 -12.381   0.578  1.00  0.00     0.240 C 
HETATM    3  O   UNL     1      41.318 -11.989  -0.254  1.00  0.00    -0.271 OA
HETATM    4  H   UNL     1      38.845 -13.498   1.107  1.00  0.00     0.169 HD
ENDROOT
BRANCH   1   5
HETATM    5  C   UNL     1      38.848 -13.472  -0.968  1.00  0.00     0.050 A 
HETATM    6  C   UNL     1      37.876 -12.644  -1.571  1.00  0.00     0.058 A 
HETATM    7  C   UNL     1      37.375 -12.939  -2.851  1.00  0.00     0.019 A 
HETATM    8  C   UNL     1      37.816 -14.070  -3.533  1.00  0.00     0.001 A 
HETATM    9  C   UNL     1      38.759 -14.904  -2.941  1.00  0.00     0.002 A 
HETATM   10  C   UNL     1      39.272 -14.607  -1.673  1.00  0.00     0.030 A 
BRANCH   6  11
HETATM   11  C   UNL     1      37.364 -11.443  -0.861  1.00  0.00     0.254 C 
HETATM   12  N   UNL     1      37.083 -10.351  -1.656  1.00  0.00    -0.349 N 
HETATM   13  H   UNL     1      37.037 -10.493  -2.654  1.00  0.00     0.163 HD
HETATM   14  O   UNL     1      37.178 -11.487   0.349  1.00  0.00    -0.268 OA
BRANCH  12  15
HETATM   15  C   UNL     1      36.387  -9.188  -1.128  1.00  0.00     0.114 C 
HETATM   16  C   UNL     1      37.038  -7.907  -1.653  1.00  0.00     0.037 C 
BRANCH  15  17
HETATM   17  C   UNL     1      34.908  -9.261  -1.468  1.00  0.00    -0.036 A 
HETATM   18  C   UNL     1      33.977  -8.584  -0.666  1.00  0.00     0.009 A 
HETATM   19  C   UNL     1      32.615  -8.611  -0.973  1.00  0.00     0.001 A 
HETATM   20  C   UNL     1      32.161  -9.335  -2.072  1.00  0.00     0.000 A 
HETATM   21  C   UNL     1      33.068 -10.034  -2.864  1.00  0.00     0.001 A 
HETATM   22  C   UNL     1      34.433  -9.998  -2.566  1.00  0.00     0.009 A 
ENDBRANCH  15  17
ENDBRANCH  12  15
ENDBRANCH   6  11
ENDBRANCH   1   5
BRANCH   2  23
HETATM   23  C   UNL     1      40.731 -12.127   2.066  1.00  0.00     0.240 C 
BRANCH  23  24
HETATM   24  N   UNL     1      41.424 -13.260   2.636  1.00  0.00    -0.259 N 
HETATM   25  C   UNL     1      42.740 -13.259   2.968  1.00  0.00     0.326 A 
HETATM   26  O   UNL     1      43.526 -12.336   2.849  1.00  0.00    -0.247 OA
HETATM   27  N   UNL     1      43.070 -14.502   3.445  1.00  0.00    -0.324 N 
HETATM   28  C   UNL     1      41.929 -15.391   3.517  1.00  0.00     0.120 A 
HETATM   29  H   UNL     1      44.007 -14.713   3.763  1.00  0.00     0.165 HD
HETATM   30  C   UNL     1      42.113 -16.676   2.707  1.00  0.00     0.080 C 
HETATM   31  C   UNL     1      41.542 -15.692   4.965  1.00  0.00     0.046 C 
HETATM   32  C   UNL     1      40.871 -14.490   2.858  1.00  0.00     0.257 A 
HETATM   33  C   UNL     1      42.920 -17.728   3.433  1.00  0.00    -0.049 A 
HETATM   34  C   UNL     1      43.125 -17.673   4.823  1.00  0.00    -0.052 A 
HETATM   35  C   UNL     1      43.420 -18.818   2.704  1.00  0.00     0.007 A 
HETATM   36  C   UNL     1      42.620 -16.522   5.659  1.00  0.00     0.042 C 
HETATM   37  C   UNL     1      43.865 -18.689   5.449  1.00  0.00     0.007 A 
HETATM   38  C   UNL     1      44.367 -19.761   4.711  1.00  0.00     0.001 A 
HETATM   39  C   UNL     1      44.141 -19.828   3.340  1.00  0.00     0.001 A 
HETATM   40  O   UNL     1      39.728 -14.829   2.590  1.00  0.00    -0.270 OA
ENDBRANCH  23  24
ENDBRANCH   2  23
TORSDOF 6
ENDMDL
MODEL 10
REMARK VINA RESULT:      -9.7      3.278      8.047
REMARK  6 active torsions:
REMARK  status: ('A' for Active; 'I' for Inactive)
REMARK    1  A    between atoms: C_2  and  N_3 
REMARK    2  A    between atoms: C_2  and  C_32 
REMARK       I    between atoms: N_3  and  C_4 
REMARK    3  A    between atoms: C_4  and  C_5 
REMARK    4  A    between atoms: C_6  and  N_7 
REMARK       I    between atoms: N_7  and  C_8 
REMARK    5  A    between atoms: C_8  and  C_9 
REMARK    6  A    between atoms: C_9  and  N_10 
ROOT
HETATM    1  N   UNL     1      41.942 -10.802   7.106  1.00  0.00    -0.325 N 
HETATM    2  C   UNL     1      41.163  -9.691   6.834  1.00  0.00     0.240 C 
HETATM    3  O   UNL     1      41.559  -8.529   6.806  1.00  0.00    -0.271 OA
HETATM    4  H   UNL     1      41.461 -11.701   7.225  1.00  0.00     0.169 HD
ENDROOT
BRANCH   1   5
HETATM    5  C   UNL     1      43.353 -10.849   7.267  1.00  0.00     0.050 A 
HETATM    6  C   UNL     1      44.160 -11.352   6.223  1.00  0.00     0.058 A 
HETATM    7  C   UNL     1      45.561 -11.369   6.341  1.00  0.00     0.019 A 
HETATM    8  C   UNL     1      46.172 -10.907   7.504  1.00  0.00     0.001 A 
HETATM    9  C   UNL     1      45.386 -10.426   8.546  1.00  0.00     0.002 A 
HETATM   10  C   UNL     1      43.993 -10.394   8.429  1.00  0.00     0.030 A 
BRANCH   6  11
HETATM   11  C   UNL     1      43.539 -11.877   4.978  1.00  0.00     0.254 C 
HETATM   12  N   UNL     1      43.550 -13.248   4.835  1.00  0.00    -0.349 N 
HETATM   13  H   UNL     1      43.774 -13.806   5.646  1.00  0.00     0.163 HD
HETATM   14  O   UNL     1      43.024 -11.100   4.183  1.00  0.00    -0.268 OA
BRANCH  12  15
HETATM   15  C   UNL     1      42.802 -13.907   3.775  1.00  0.00     0.114 C 
HETATM   16  C   UNL     1      43.115 -13.250   2.430  1.00  0.00     0.037 C 
BRANCH  15  17
HETATM   17  C   UNL     1      43.100 -15.397   3.770  1.00  0.00    -0.036 A 
HETATM   18  C   UNL     1      43.042 -16.112   2.564  1.00  0.00     0.009 A 
HETATM   19  C   UNL     1      43.339 -17.475   2.526  1.00  0.00     0.001 A 
HETATM   20  C   UNL     1      43.675 -18.150   3.697  1.00  0.00     0.000 A 
HETATM   21  C   UNL     1      43.711 -17.462   4.906  1.00  0.00     0.001 A 
HETATM   22  C   UNL     1      43.427 -16.094   4.945  1.00  0.00     0.009 A 
ENDBRANCH  15  17
ENDBRANCH  12  15
ENDBRANCH   6  11
ENDBRANCH   1   5
BRANCH   2  23
HETATM   23  C   UNL     1      39.684 -10.012   6.638  1.00  0.00     0.240 C 
BRANCH  23  24
HETATM   24  N   UNL     1      39.491 -10.556   5.314  1.00  0.00    -0.259 N 
HETATM   25  C   UNL     1      39.296 -11.874   5.053  1.00  0.00     0.326 A 
HETATM   26  O   UNL     1      39.248 -12.783   5.862  1.00  0.00    -0.247 OA
HETATM   27  N   UNL     1      39.187 -12.038   3.695  1.00  0.00    -0.324 N 
HETATM   28  C   UNL     1      39.237 -10.781   2.977  1.00  0.00     0.120 A 
HETATM   29  H   UNL     1      39.024 -12.948   3.285  1.00  0.00     0.165 HD
HETATM   30  C   UNL     1      40.363 -10.721   1.943  1.00  0.00     0.080 C 
HETATM   31  C   UNL     1      37.885 -10.435   2.355  1.00  0.00     0.046 C 
HETATM   32  C   UNL     1      39.540  -9.836   4.153  1.00  0.00     0.257 A 
HETATM   33  C   UNL     1      40.010 -11.398   0.638  1.00  0.00    -0.049 A 
HETATM   34  C   UNL     1      38.678 -11.687   0.293  1.00  0.00    -0.052 A 
HETATM   35  C   UNL     1      41.038 -11.684  -0.274  1.00  0.00     0.007 A 
HETATM   36  C   UNL     1      37.531 -11.412   1.235  1.00  0.00     0.042 C 
HETATM   37  C   UNL     1      38.407 -12.298  -0.942  1.00  0.00     0.007 A 
HETATM   38  C   UNL     1      39.438 -12.589  -1.834  1.00  0.00     0.001 A 
HETATM   39  C   UNL     1      40.753 -12.278  -1.503  1.00  0.00     0.001 A 
HETATM   40  O   UNL     1      39.776  -8.641   4.052  1.00  0.00    -0.270 OA
ENDBRANCH  23  24
ENDBRANCH   2  23
TORSDOF 6
ENDMDL
