MODEL 1
REMARK VINA RESULT:      -8.5      0.000      0.000
REMARK  5 active torsions:
REMARK  status: ('A' for Active; 'I' for Inactive)
REMARK    1  A    between atoms: C_5  and  O_6 
REMARK    2  A    between atoms: O_6  and  C_7 
REMARK    3  A    between atoms: C_7  and  C_8 
REMARK       I    between atoms: C_8  and  N_9 
REMARK    4  A    between atoms: N_9  and  N_10 
REMARK    5  A    between atoms: C_11  and  C_12 
ROOT
HETATM    1  C   UNL     1      44.752 -11.316   7.467  1.00  0.00     0.261 C 
HETATM    2  N   UNL     1      43.784 -12.308   7.382  1.00  0.00    -0.246 N 
HETATM    3  O   UNL     1      45.787 -11.274   6.804  1.00  0.00    -0.269 OA
HETATM    4  H   UNL     1      42.935 -12.226   7.933  1.00  0.00     0.192 HD
ENDROOT
BRANCH   2   5
HETATM    5  N   UNL     1      43.948 -13.333   6.498  1.00  0.00    -0.184 NA
HETATM    6  C   UNL     1      43.054 -14.265   6.518  1.00  0.00     0.153 C 
BRANCH   6   7
HETATM    7  C   UNL     1      43.165 -15.389   5.606  1.00  0.00     0.018 A 
HETATM    8  C   UNL     1      43.129 -15.387   4.170  1.00  0.00     0.004 A 
HETATM    9  C   UNL     1      43.276 -16.707   3.744  1.00  0.00     0.043 A 
HETATM   10  C   UNL     1      42.980 -14.386   3.185  1.00  0.00     0.014 A 
HETATM   11  C   UNL     1      43.283 -17.077   2.393  1.00  0.00     0.030 A 
HETATM   12  N   UNL     1      43.403 -17.483   4.870  1.00  0.00    -0.358 N 
HETATM   13  C   UNL     1      43.132 -16.064   1.441  1.00  0.00     0.002 A 
HETATM   14  C   UNL     1      42.983 -14.736   1.829  1.00  0.00     0.001 A 
HETATM   15  H   UNL     1      43.530 -18.485   4.853  1.00  0.00     0.166 HD
HETATM   16  C   UNL     1      43.338 -16.710   6.005  1.00  0.00     0.018 A 
HETATM   17  C   UNL     1      43.470 -17.317   7.354  1.00  0.00     0.069 C 
ENDBRANCH   6   7
ENDBRANCH   2   5
BRANCH   1  18
HETATM   18  C   UNL     1      44.477 -10.302   8.571  1.00  0.00     0.280 C 
BRANCH  18  19
HETATM   19  O   UNL     1      45.009 -10.741   9.824  1.00  0.00    -0.342 OA
BRANCH  19  20
HETATM   20  C   UNL     1      44.263 -10.263  10.871  1.00  0.00     0.069 A 
HETATM   21  C   UNL     1      44.151  -8.882  11.004  1.00  0.00     0.037 A 
HETATM   22  C   UNL     1      43.403  -8.341  12.055  1.00  0.00     0.009 A 
HETATM   23  C   UNL     1      42.744  -9.181  12.961  1.00  0.00    -0.062 A 
HETATM   24  C   UNL     1      41.958  -8.616  14.108  1.00  0.00     0.048 C 
HETATM   25  C   UNL     1      42.846 -10.570  12.802  1.00  0.00     0.009 A 
HETATM   26  C   UNL     1      43.594 -11.110  11.754  1.00  0.00     0.037 A 
ENDBRANCH  19  20
ENDBRANCH  18  19
ENDBRANCH   1  18
TORSDOF 5
ENDMDL
MODEL 2
REMARK VINA RESULT:      -8.3      1.344      2.238
REMARK  5 active torsions:
REMARK  status: ('A' for Active; 'I' for Inactive)
REMARK    1  A    between atoms: C_5  and  O_6 
REMARK    2  A    between atoms: O_6  and  C_7 
REMARK    3  A    between atoms: C_7  and  C_8 
REMARK       I    between atoms: C_8  and  N_9 
REMARK    4  A    between atoms: N_9  and  N_10 
REMARK    5  A    between atoms: C_11  and  C_12 
ROOT
HETATM    1  C   UNL     1      44.812 -11.373   6.824  1.00  0.00     0.261 C 
HETATM    2  N   UNL     1      43.860 -12.382   6.848  1.00  0.00    -0.246 N 
HETATM    3  O   UNL     1      45.475 -11.045   5.841  1.00  0.00    -0.269 OA
HETATM    4  H   UNL     1      43.323 -12.542   7.695  1.00  0.00     0.192 HD
ENDROOT
BRANCH   2   5
HETATM    5  N   UNL     1      43.598 -13.088   5.711  1.00  0.00    -0.184 NA
HETATM    6  C   UNL     1      43.002 -14.224   5.859  1.00  0.00     0.153 C 
BRANCH   6   7
HETATM    7  C   UNL     1      42.694 -15.032   4.692  1.00  0.00     0.018 A 
HETATM    8  C   UNL     1      43.209 -16.325   4.334  1.00  0.00     0.004 A 
HETATM    9  C   UNL     1      42.617 -16.692   3.126  1.00  0.00     0.043 A 
HETATM   10  C   UNL     1      44.130 -17.221   4.920  1.00  0.00     0.014 A 
HETATM   11  C   UNL     1      42.895 -17.903   2.478  1.00  0.00     0.030 A 
HETATM   12  N   UNL     1      41.772 -15.673   2.764  1.00  0.00    -0.358 N 
HETATM   13  C   UNL     1      43.812 -18.768   3.082  1.00  0.00     0.002 A 
HETATM   14  C   UNL     1      44.423 -18.434   4.287  1.00  0.00     0.001 A 
HETATM   15  H   UNL     1      41.206 -15.681   1.926  1.00  0.00     0.166 HD
HETATM   16  C   UNL     1      41.802 -14.661   3.692  1.00  0.00     0.018 A 
HETATM   17  C   UNL     1      40.956 -13.450   3.534  1.00  0.00     0.069 C 
ENDBRANCH   6   7
ENDBRANCH   2   5
BRANCH   1  18
HETATM   18  C   UNL     1      45.064 -10.751   8.192  1.00  0.00     0.280 C 
BRANCH  18  19
HETATM   19  O   UNL     1      44.264 -11.375   9.201  1.00  0.00    -0.342 OA
BRANCH  19  20
HETATM   20  C   UNL     1      43.927 -10.482  10.185  1.00  0.00     0.069 A 
HETATM   21  C   UNL     1      43.957  -9.127   9.864  1.00  0.00     0.037 A 
HETATM   22  C   UNL     1      43.622  -8.173  10.830  1.00  0.00     0.009 A 
HETATM   23  C   UNL     1      43.232  -8.572  12.114  1.00  0.00    -0.062 A 
HETATM   24  C   UNL     1      42.894  -7.560  13.169  1.00  0.00     0.048 C 
HETATM   25  C   UNL     1      43.183  -9.940  12.417  1.00  0.00     0.009 A 
HETATM   26  C   UNL     1      43.519 -10.892  11.454  1.00  0.00     0.037 A 
ENDBRANCH  19  20
ENDBRANCH  18  19
ENDBRANCH   1  18
TORSDOF 5
ENDMDL
MODEL 3
REMARK VINA RESULT:      -8.2      1.478      2.653
REMARK  5 active torsions:
REMARK  status: ('A' for Active; 'I' for Inactive)
REMARK    1  A    between atoms: C_5  and  O_6 
REMARK    2  A    between atoms: O_6  and  C_7 
REMARK    3  A    between atoms: C_7  and  C_8 
REMARK       I    between atoms: C_8  and  N_9 
REMARK    4  A    between atoms: N_9  and  N_10 
REMARK    5  A    between atoms: C_11  and  C_12 
ROOT
HETATM    1  C   UNL     1      43.965 -12.188   6.802  1.00  0.00     0.261 C 
HETATM    2  N   UNL     1      43.377 -13.432   6.989  1.00  0.00    -0.246 N 
HETATM    3  O   UNL     1      44.785 -11.914   5.927  1.00  0.00    -0.269 OA
HETATM    4  H   UNL     1      42.668 -13.546   7.707  1.00  0.00     0.192 HD
ENDROOT
BRANCH   2   5
HETATM    5  N   UNL     1      43.698 -14.460   6.153  1.00  0.00    -0.184 NA
HETATM    6  C   UNL     1      42.873 -14.701   5.189  1.00  0.00     0.153 C 
BRANCH   6   7
HETATM    7  C   UNL     1      43.148 -15.784   4.260  1.00  0.00     0.018 A 
HETATM    8  C   UNL     1      43.422 -17.165   4.547  1.00  0.00     0.004 A 
HETATM    9  C   UNL     1      43.622 -17.815   3.330  1.00  0.00     0.043 A 
HETATM   10  C   UNL     1      43.523 -17.929   5.731  1.00  0.00     0.014 A 
HETATM   11  C   UNL     1      43.916 -19.181   3.234  1.00  0.00     0.030 A 
HETATM   12  N   UNL     1      43.472 -16.875   2.341  1.00  0.00    -0.358 N 
HETATM   13  C   UNL     1      44.012 -19.910   4.423  1.00  0.00     0.002 A 
HETATM   14  C   UNL     1      43.819 -19.295   5.656  1.00  0.00     0.001 A 
HETATM   15  H   UNL     1      43.558 -17.076   1.354  1.00  0.00     0.166 HD
HETATM   16  C   UNL     1      43.187 -15.642   2.878  1.00  0.00     0.018 A 
HETATM   17  C   UNL     1      42.960 -14.460   2.007  1.00  0.00     0.069 C 
ENDBRANCH   6   7
ENDBRANCH   2   5
BRANCH   1  18
HETATM   18  C   UNL     1      43.586 -11.176   7.877  1.00  0.00     0.280 C 
BRANCH  18  19
HETATM   19  O   UNL     1      44.510 -11.207   8.968  1.00  0.00    -0.342 OA
BRANCH  19  20
HETATM   20  C   UNL     1      44.097 -10.389   9.987  1.00  0.00     0.069 A 
HETATM   21  C   UNL     1      44.049  -9.020   9.735  1.00  0.00     0.037 A 
HETATM   22  C   UNL     1      43.636  -8.140  10.740  1.00  0.00     0.009 A 
HETATM   23  C   UNL     1      43.246  -8.628  11.993  1.00  0.00    -0.062 A 
HETATM   24  C   UNL     1      42.824  -7.694  13.089  1.00  0.00     0.048 C 
HETATM   25  C   UNL     1      43.276 -10.009  12.226  1.00  0.00     0.009 A 
HETATM   26  C   UNL     1      43.691 -10.888  11.224  1.00  0.00     0.037 A 
ENDBRANCH  19  20
ENDBRANCH  18  19
ENDBRANCH   1  18
TORSDOF 5
ENDMDL
MODEL 4
REMARK VINA RESULT:      -8.1      5.982      9.824
REMARK  5 active torsions:
REMARK  status: ('A' for Active; 'I' for Inactive)
REMARK    1  A    between atoms: C_5  and  O_6 
REMARK    2  A    between atoms: O_6  and  C_7 
REMARK    3  A    between atoms: C_7  and  C_8 
REMARK       I    between atoms: C_8  and  N_9 
REMARK    4  A    between atoms: N_9  and  N_10 
REMARK    5  A    between atoms: C_11  and  C_12 
ROOT
HETATM    1  C   UNL     1      40.751 -14.347   1.205  1.00  0.00     0.261 C 
HETATM    2  N   UNL     1      41.516 -14.154   2.347  1.00  0.00    -0.246 N 
HETATM    3  O   UNL     1      40.308 -15.428   0.820  1.00  0.00    -0.269 OA
HETATM    4  H   UNL     1      41.789 -13.213   2.612  1.00  0.00     0.192 HD
ENDROOT
BRANCH   2   5
HETATM    5  N   UNL     1      41.817 -15.220   3.143  1.00  0.00    -0.184 NA
HETATM    6  C   UNL     1      43.036 -15.646   3.104  1.00  0.00     0.153 C 
BRANCH   6   7
HETATM    7  C   UNL     1      43.428 -16.779   3.923  1.00  0.00     0.018 A 
HETATM    8  C   UNL     1      43.523 -18.164   3.552  1.00  0.00     0.004 A 
HETATM    9  C   UNL     1      43.940 -18.872   4.679  1.00  0.00     0.043 A 
HETATM   10  C   UNL     1      43.289 -18.889   2.363  1.00  0.00     0.014 A 
HETATM   11  C   UNL     1      44.136 -20.259   4.679  1.00  0.00     0.030 A 
HETATM   12  N   UNL     1      44.100 -17.961   5.693  1.00  0.00    -0.358 N 
HETATM   13  C   UNL     1      43.894 -20.950   3.487  1.00  0.00     0.002 A 
HETATM   14  C   UNL     1      43.477 -20.276   2.343  1.00  0.00     0.001 A 
HETATM   15  H   UNL     1      44.405 -18.202   6.626  1.00  0.00     0.166 HD
HETATM   16  C   UNL     1      43.796 -16.692   5.261  1.00  0.00     0.018 A 
HETATM   17  C   UNL     1      43.910 -15.524   6.172  1.00  0.00     0.069 C 
ENDBRANCH   6   7
ENDBRANCH   2   5
BRANCH   1  18
HETATM   18  C   UNL     1      40.590 -13.083   0.369  1.00  0.00     0.280 C 
BRANCH  18  19
HETATM   19  O   UNL     1      40.493 -13.391  -1.025  1.00  0.00    -0.342 OA
BRANCH  19  20
HETATM   20  C   UNL     1      39.342 -12.877  -1.564  1.00  0.00     0.069 A 
HETATM   21  C   UNL     1      39.209 -11.492  -1.600  1.00  0.00     0.037 A 
HETATM   22  C   UNL     1      38.055 -10.915  -2.138  1.00  0.00     0.009 A 
HETATM   23  C   UNL     1      37.039 -11.723  -2.666  1.00  0.00    -0.062 A 
HETATM   24  C   UNL     1      35.784 -11.119  -3.225  1.00  0.00     0.048 C 
HETATM   25  C   UNL     1      37.196 -13.115  -2.646  1.00  0.00     0.009 A 
HETATM   26  C   UNL     1      38.347 -13.691  -2.106  1.00  0.00     0.037 A 
ENDBRANCH  19  20
ENDBRANCH  18  19
ENDBRANCH   1  18
TORSDOF 5
ENDMDL
MODEL 5
REMARK VINA RESULT:      -8.1      6.097      9.443
REMARK  5 active torsions:
REMARK  status: ('A' for Active; 'I' for Inactive)
REMARK    1  A    between atoms: C_5  and  O_6 
REMARK    2  A    between atoms: O_6  and  C_7 
REMARK    3  A    between atoms: C_7  and  C_8 
REMARK       I    between atoms: C_8  and  N_9 
REMARK    4  A    between atoms: N_9  and  N_10 
REMARK    5  A    between atoms: C_11  and  C_12 
ROOT
HETATM    1  C   UNL     1      40.253 -14.627   1.158  1.00  0.00     0.261 C 
HETATM    2  N   UNL     1      41.127 -14.438   2.220  1.00  0.00    -0.246 N 
HETATM    3  O   UNL     1      39.795 -15.711   0.799  1.00  0.00    -0.269 OA
HETATM    4  H   UNL     1      41.406 -13.496   2.474  1.00  0.00     0.192 HD
ENDROOT
BRANCH   2   5
HETATM    5  N   UNL     1      41.529 -15.511   2.959  1.00  0.00    -0.184 NA
HETATM    6  C   UNL     1      42.803 -15.673   3.099  1.00  0.00     0.153 C 
BRANCH   6   7
HETATM    7  C   UNL     1      43.305 -16.796   3.871  1.00  0.00     0.018 A 
HETATM    8  C   UNL     1      43.435 -18.171   3.475  1.00  0.00     0.004 A 
HETATM    9  C   UNL     1      43.965 -18.871   4.558  1.00  0.00     0.043 A 
HETATM   10  C   UNL     1      43.148 -18.893   2.296  1.00  0.00     0.014 A 
HETATM   11  C   UNL     1      44.222 -20.248   4.524  1.00  0.00     0.030 A 
HETATM   12  N   UNL     1      44.156 -17.965   5.571  1.00  0.00    -0.358 N 
HETATM   13  C   UNL     1      43.926 -20.935   3.344  1.00  0.00     0.002 A 
HETATM   14  C   UNL     1      43.397 -20.269   2.243  1.00  0.00     0.001 A 
HETATM   15  H   UNL     1      44.539 -18.202   6.476  1.00  0.00     0.166 HD
HETATM   16  C   UNL     1      43.764 -16.707   5.180  1.00  0.00     0.018 A 
HETATM   17  C   UNL     1      43.892 -15.545   6.098  1.00  0.00     0.069 C 
ENDBRANCH   6   7
ENDBRANCH   2   5
BRANCH   1  18
HETATM   18  C   UNL     1      39.982 -13.352   0.368  1.00  0.00     0.280 C 
BRANCH  18  19
HETATM   19  O   UNL     1      40.438 -13.471  -0.983  1.00  0.00    -0.342 OA
BRANCH  19  20
HETATM   20  C   UNL     1      40.663 -12.238  -1.537  1.00  0.00     0.069 A 
HETATM   21  C   UNL     1      40.981 -11.192  -0.675  1.00  0.00     0.037 A 
HETATM   22  C   UNL     1      41.220  -9.914  -1.188  1.00  0.00     0.009 A 
HETATM   23  C   UNL     1      41.166  -9.682  -2.568  1.00  0.00    -0.062 A 
HETATM   24  C   UNL     1      41.395  -8.310  -3.131  1.00  0.00     0.048 C 
HETATM   25  C   UNL     1      40.868 -10.749  -3.426  1.00  0.00     0.009 A 
HETATM   26  C   UNL     1      40.627 -12.025  -2.915  1.00  0.00     0.037 A 
ENDBRANCH  19  20
ENDBRANCH  18  19
ENDBRANCH   1  18
TORSDOF 5
ENDMDL
MODEL 6
REMARK VINA RESULT:      -7.6      6.605      9.777
REMARK  5 active torsions:
REMARK  status: ('A' for Active; 'I' for Inactive)
REMARK    1  A    between atoms: C_5  and  O_6 
REMARK    2  A    between atoms: O_6  and  C_7 
REMARK    3  A    between atoms: C_7  and  C_8 
REMARK       I    between atoms: C_8  and  N_9 
REMARK    4  A    between atoms: N_9  and  N_10 
REMARK    5  A    between atoms: C_11  and  C_12 
ROOT
HETATM    1  C   UNL     1      42.114 -13.703   1.669  1.00  0.00     0.261 C 
HETATM    2  N   UNL     1      41.620 -14.131   0.445  1.00  0.00    -0.246 N 
HETATM    3  O   UNL     1      41.805 -12.654   2.234  1.00  0.00    -0.269 OA
HETATM    4  H   UNL     1      41.894 -15.040   0.086  1.00  0.00     0.192 HD
ENDROOT
BRANCH   2   5
HETATM    5  N   UNL     1      40.709 -13.363  -0.218  1.00  0.00    -0.184 NA
HETATM    6  C   UNL     1      39.701 -13.981  -0.739  1.00  0.00     0.153 C 
BRANCH   6   7
HETATM    7  C   UNL     1      38.691 -13.228  -1.463  1.00  0.00     0.018 A 
HETATM    8  C   UNL     1      38.100 -11.964  -1.123  1.00  0.00     0.004 A 
HETATM    9  C   UNL     1      37.181 -11.648  -2.123  1.00  0.00     0.043 A 
HETATM   10  C   UNL     1      38.253 -11.054  -0.053  1.00  0.00     0.014 A 
HETATM   11  C   UNL     1      36.413 -10.476  -2.112  1.00  0.00     0.030 A 
HETATM   12  N   UNL     1      37.214 -12.670  -3.039  1.00  0.00    -0.358 N 
HETATM   13  C   UNL     1      36.586  -9.597  -1.039  1.00  0.00     0.002 A 
HETATM   14  C   UNL     1      37.493  -9.879  -0.023  1.00  0.00     0.001 A 
HETATM   15  H   UNL     1      36.648 -12.696  -3.877  1.00  0.00     0.166 HD
HETATM   16  C   UNL     1      38.117 -13.635  -2.661  1.00  0.00     0.018 A 
HETATM   17  C   UNL     1      38.349 -14.839  -3.501  1.00  0.00     0.069 C 
ENDBRANCH   6   7
ENDBRANCH   2   5
BRANCH   1  18
HETATM   18  C   UNL     1      43.198 -14.615   2.232  1.00  0.00     0.280 C 
BRANCH  18  19
HETATM   19  O   UNL     1      42.930 -14.961   3.594  1.00  0.00    -0.342 OA
BRANCH  19  20
HETATM   20  C   UNL     1      43.277 -16.263   3.849  1.00  0.00     0.069 A 
HETATM   21  C   UNL     1      43.615 -16.595   5.158  1.00  0.00     0.037 A 
HETATM   22  C   UNL     1      43.977 -17.908   5.473  1.00  0.00     0.009 A 
HETATM   23  C   UNL     1      43.978 -18.900   4.484  1.00  0.00    -0.062 A 
HETATM   24  C   UNL     1      44.389 -20.308   4.802  1.00  0.00     0.048 C 
HETATM   25  C   UNL     1      43.613 -18.557   3.175  1.00  0.00     0.009 A 
HETATM   26  C   UNL     1      43.254 -17.246   2.860  1.00  0.00     0.037 A 
ENDBRANCH  19  20
ENDBRANCH  18  19
ENDBRANCH   1  18
TORSDOF 5
ENDMDL
MODEL 7
REMARK VINA RESULT:      -7.3      6.987     10.063
REMARK  5 active torsions:
REMARK  status: ('A' for Active; 'I' for Inactive)
REMARK    1  A    between atoms: C_5  and  O_6 
REMARK    2  A    between atoms: O_6  and  C_7 
REMARK    3  A    between atoms: C_7  and  C_8 
REMARK       I    between atoms: C_8  and  N_9 
REMARK    4  A    between atoms: N_9  and  N_10 
REMARK    5  A    between atoms: C_11  and  C_12 
ROOT
HETATM    1  C   UNL     1      41.456 -14.330   1.500  1.00  0.00     0.261 C 
HETATM    2  N   UNL     1      40.826 -14.701   0.320  1.00  0.00    -0.246 N 
HETATM    3  O   UNL     1      41.892 -13.207   1.750  1.00  0.00    -0.269 OA
HETATM    4  H   UNL     1      40.449 -15.639   0.229  1.00  0.00     0.192 HD
ENDROOT
BRANCH   2   5
HETATM    5  N   UNL     1      40.645 -13.776  -0.665  1.00  0.00    -0.184 NA
HETATM    6  C   UNL     1      39.507 -13.166  -0.687  1.00  0.00     0.153 C 
BRANCH   6   7
HETATM    7  C   UNL     1      39.243 -12.170  -1.710  1.00  0.00     0.018 A 
HETATM    8  C   UNL     1      39.985 -10.979  -2.016  1.00  0.00     0.004 A 
HETATM    9  C   UNL     1      39.343 -10.346  -3.079  1.00  0.00     0.043 A 
HETATM   10  C   UNL     1      41.146 -10.373  -1.487  1.00  0.00     0.014 A 
HETATM   11  C   UNL     1      39.797  -9.144  -3.638  1.00  0.00     0.030 A 
HETATM   12  N   UNL     1      38.258 -11.118  -3.414  1.00  0.00    -0.358 N 
HETATM   13  C   UNL     1      40.947  -8.567  -3.092  1.00  0.00     0.002 A 
HETATM   14  C   UNL     1      41.615  -9.171  -2.031  1.00  0.00     0.001 A 
HETATM   15  H   UNL     1      37.615 -10.894  -4.162  1.00  0.00     0.166 HD
HETATM   16  C   UNL     1      38.177 -12.223  -2.601  1.00  0.00     0.018 A 
HETATM   17  C   UNL     1      37.095 -13.226  -2.777  1.00  0.00     0.069 C 
ENDBRANCH   6   7
ENDBRANCH   2   5
BRANCH   1  18
HETATM   18  C   UNL     1      41.675 -15.496   2.457  1.00  0.00     0.280 C 
BRANCH  18  19
HETATM   19  O   UNL     1      43.009 -15.498   2.975  1.00  0.00    -0.342 OA
BRANCH  19  20
HETATM   20  C   UNL     1      43.356 -16.741   3.438  1.00  0.00     0.069 A 
HETATM   21  C   UNL     1      43.614 -16.872   4.800  1.00  0.00     0.037 A 
HETATM   22  C   UNL     1      43.972 -18.117   5.325  1.00  0.00     0.009 A 
HETATM   23  C   UNL     1      44.050 -19.241   4.493  1.00  0.00    -0.062 A 
HETATM   24  C   UNL     1      44.458 -20.579   5.037  1.00  0.00     0.048 C 
HETATM   25  C   UNL     1      43.764 -19.100   3.129  1.00  0.00     0.009 A 
HETATM   26  C   UNL     1      43.409 -17.857   2.604  1.00  0.00     0.037 A 
ENDBRANCH  19  20
ENDBRANCH  18  19
ENDBRANCH   1  18
TORSDOF 5
ENDMDL
MODEL 8
REMARK VINA RESULT:      -7.3      6.385     10.125
REMARK  5 active torsions:
REMARK  status: ('A' for Active; 'I' for Inactive)
REMARK    1  A    between atoms: C_5  and  O_6 
REMARK    2  A    between atoms: O_6  and  C_7 
REMARK    3  A    between atoms: C_7  and  C_8 
REMARK       I    between atoms: C_8  and  N_9 
REMARK    4  A    between atoms: N_9  and  N_10 
REMARK    5  A    between atoms: C_11  and  C_12 
ROOT
HETATM    1  C   UNL     1      39.819 -13.738  -0.861  1.00  0.00     0.261 C 
HETATM    2  N   UNL     1      39.669 -14.789   0.033  1.00  0.00    -0.246 N 
HETATM    3  O   UNL     1      40.768 -12.954  -0.884  1.00  0.00    -0.269 OA
HETATM    4  H   UNL     1      38.876 -15.416  -0.063  1.00  0.00     0.192 HD
ENDROOT
BRANCH   2   5
HETATM    5  N   UNL     1      40.631 -15.015   0.973  1.00  0.00    -0.184 NA
HETATM    6  C   UNL     1      40.275 -15.690   2.015  1.00  0.00     0.153 C 
BRANCH   6   7
HETATM    7  C   UNL     1      41.246 -15.967   3.059  1.00  0.00     0.018 A 
HETATM    8  C   UNL     1      42.239 -17.004   3.109  1.00  0.00     0.004 A 
HETATM    9  C   UNL     1      42.932 -16.864   4.311  1.00  0.00     0.043 A 
HETATM   10  C   UNL     1      42.615 -18.057   2.246  1.00  0.00     0.014 A 
HETATM   11  C   UNL     1      43.977 -17.715   4.693  1.00  0.00     0.030 A 
HETATM   12  N   UNL     1      42.392 -15.785   4.965  1.00  0.00    -0.358 N 
HETATM   13  C   UNL     1      44.325 -18.749   3.818  1.00  0.00     0.002 A 
HETATM   14  C   UNL     1      43.655 -18.920   2.611  1.00  0.00     0.001 A 
HETATM   15  H   UNL     1      42.712 -15.452   5.865  1.00  0.00     0.166 HD
HETATM   16  C   UNL     1      41.372 -15.229   4.230  1.00  0.00     0.018 A 
HETATM   17  C   UNL     1      40.639 -14.033   4.719  1.00  0.00     0.069 C 
ENDBRANCH   6   7
ENDBRANCH   2   5
BRANCH   1  18
HETATM   18  C   UNL     1      38.616 -13.551  -1.777  1.00  0.00     0.280 C 
BRANCH  18  19
HETATM   19  O   UNL     1      38.673 -12.295  -2.460  1.00  0.00    -0.342 OA
BRANCH  19  20
HETATM   20  C   UNL     1      37.656 -11.469  -2.057  1.00  0.00     0.069 A 
HETATM   21  C   UNL     1      37.688 -10.999  -0.747  1.00  0.00     0.037 A 
HETATM   22  C   UNL     1      36.675 -10.153  -0.284  1.00  0.00     0.009 A 
HETATM   23  C   UNL     1      35.639  -9.754  -1.139  1.00  0.00    -0.062 A 
HETATM   24  C   UNL     1      34.532  -8.867  -0.649  1.00  0.00     0.048 C 
HETATM   25  C   UNL     1      35.632 -10.216  -2.462  1.00  0.00     0.009 A 
HETATM   26  C   UNL     1      36.642 -11.061  -2.923  1.00  0.00     0.037 A 
ENDBRANCH  19  20
ENDBRANCH  18  19
ENDBRANCH   1  18
TORSDOF 5
ENDMDL
MODEL 9
REMARK VINA RESULT:      -7.2     18.040     21.226
REMARK  5 active torsions:
REMARK  status: ('A' for Active; 'I' for Inactive)
REMARK    1  A    between atoms: C_5  and  O_6 
REMARK    2  A    between atoms: O_6  and  C_7 
REMARK    3  A    between atoms: C_7  and  C_8 
REMARK       I    between atoms: C_8  and  N_9 
REMARK    4  A    between atoms: N_9  and  N_10 
REMARK    5  A    between atoms: C_11  and  C_12 
ROOT
HETATM    1  C   UNL     1      46.053 -28.109  -2.250  1.00  0.00     0.261 C 
HETATM    2  N   UNL     1      47.353 -28.508  -2.529  1.00  0.00    -0.246 N 
HETATM    3  O   UNL     1      45.600 -27.898  -1.126  1.00  0.00    -0.269 OA
HETATM    4  H   UNL     1      47.650 -28.603  -3.495  1.00  0.00     0.192 HD
ENDROOT
BRANCH   2   5
HETATM    5  N   UNL     1      48.237 -28.683  -1.505  1.00  0.00    -0.184 NA
HETATM    6  C   UNL     1      48.479 -29.902  -1.151  1.00  0.00     0.153 C 
BRANCH   6   7
HETATM    7  C   UNL     1      49.408 -30.164  -0.066  1.00  0.00     0.018 A 
HETATM    8  C   UNL     1      49.243 -29.910   1.338  1.00  0.00     0.004 A 
HETATM    9  C   UNL     1      50.406 -30.332   1.981  1.00  0.00     0.043 A 
HETATM   10  C   UNL     1      48.214 -29.354   2.129  1.00  0.00     0.014 A 
HETATM   11  C   UNL     1      50.593 -30.229   3.366  1.00  0.00     0.030 A 
HETATM   12  N   UNL     1      51.244 -30.829   1.014  1.00  0.00    -0.358 N 
HETATM   13  C   UNL     1      49.557 -29.673   4.122  1.00  0.00     0.002 A 
HETATM   14  C   UNL     1      48.382 -29.241   3.514  1.00  0.00     0.001 A 
HETATM   15  H   UNL     1      52.161 -31.212   1.204  1.00  0.00     0.166 HD
HETATM   16  C   UNL     1      50.664 -30.738  -0.229  1.00  0.00     0.018 A 
HETATM   17  C   UNL     1      51.368 -31.229  -1.441  1.00  0.00     0.069 C 
ENDBRANCH   6   7
ENDBRANCH   2   5
BRANCH   1  18
HETATM   18  C   UNL     1      45.162 -28.059  -3.485  1.00  0.00     0.280 C 
BRANCH  18  19
HETATM   19  O   UNL     1      43.965 -28.819  -3.293  1.00  0.00    -0.342 OA
BRANCH  19  20
HETATM   20  C   UNL     1      44.046 -30.034  -3.921  1.00  0.00     0.069 A 
HETATM   21  C   UNL     1      44.131 -31.170  -3.120  1.00  0.00     0.037 A 
HETATM   22  C   UNL     1      44.217 -32.435  -3.709  1.00  0.00     0.009 A 
HETATM   23  C   UNL     1      44.193 -32.571  -5.103  1.00  0.00    -0.062 A 
HETATM   24  C   UNL     1      44.309 -33.920  -5.750  1.00  0.00     0.048 C 
HETATM   25  C   UNL     1      44.083 -31.422  -5.897  1.00  0.00     0.009 A 
HETATM   26  C   UNL     1      43.999 -30.158  -5.309  1.00  0.00     0.037 A 
ENDBRANCH  19  20
ENDBRANCH  18  19
ENDBRANCH   1  18
TORSDOF 5
ENDMDL
MODEL 10
REMARK VINA RESULT:      -7.2      2.289      9.988
REMARK  5 active torsions:
REMARK  status: ('A' for Active; 'I' for Inactive)
REMARK    1  A    between atoms: C_5  and  O_6 
REMARK    2  A    between atoms: O_6  and  C_7 
REMARK    3  A    between atoms: C_7  and  C_8 
REMARK       I    between atoms: C_8  and  N_9 
REMARK    4  A    between atoms: N_9  and  N_10 
REMARK    5  A    between atoms: C_11  and  C_12 
ROOT
HETATM    1  C   UNL     1      43.646 -11.443   7.246  1.00  0.00     0.261 C 
HETATM    2  N   UNL     1      43.848 -11.182   8.595  1.00  0.00    -0.246 N 
HETATM    3  O   UNL     1      42.936 -10.780   6.492  1.00  0.00    -0.269 OA
HETATM    4  H   UNL     1      44.498 -11.756   9.123  1.00  0.00     0.192 HD
ENDROOT
BRANCH   2   5
HETATM    5  N   UNL     1      43.237 -10.107   9.170  1.00  0.00    -0.184 NA
HETATM    6  C   UNL     1      43.792  -9.625  10.232  1.00  0.00     0.153 C 
BRANCH   6   7
HETATM    7  C   UNL     1      43.195  -8.482  10.901  1.00  0.00     0.018 A 
HETATM    8  C   UNL     1      42.668  -8.397  12.234  1.00  0.00     0.004 A 
HETATM    9  C   UNL     1      42.205  -7.095  12.420  1.00  0.00     0.043 A 
HETATM   10  C   UNL     1      42.534  -9.307  13.306  1.00  0.00     0.014 A 
HETATM   11  C   UNL     1      41.619  -6.656  13.614  1.00  0.00     0.030 A 
HETATM   12  N   UNL     1      42.444  -6.411  11.254  1.00  0.00    -0.358 N 
HETATM   13  C   UNL     1      41.499  -7.581  14.656  1.00  0.00     0.002 A 
HETATM   14  C   UNL     1      41.950  -8.888  14.507  1.00  0.00     0.001 A 
HETATM   15  H   UNL     1      42.212  -5.437  11.113  1.00  0.00     0.166 HD
HETATM   16  C   UNL     1      43.040  -7.227  10.323  1.00  0.00     0.018 A 
HETATM   17  C   UNL     1      43.417  -6.712   8.981  1.00  0.00     0.069 C 
ENDBRANCH   6   7
ENDBRANCH   2   5
BRANCH   1  18
HETATM   18  C   UNL     1      44.310 -12.733   6.779  1.00  0.00     0.280 C 
BRANCH  18  19
HETATM   19  O   UNL     1      43.546 -13.879   7.165  1.00  0.00    -0.342 OA
BRANCH  19  20
HETATM   20  C   UNL     1      43.538 -14.824   6.172  1.00  0.00     0.069 A 
HETATM   21  C   UNL     1      44.207 -16.021   6.416  1.00  0.00     0.037 A 
HETATM   22  C   UNL     1      44.231 -17.019   5.437  1.00  0.00     0.009 A 
HETATM   23  C   UNL     1      43.565 -16.833   4.219  1.00  0.00    -0.062 A 
HETATM   24  C   UNL     1      43.603 -17.885   3.149  1.00  0.00     0.048 C 
HETATM   25  C   UNL     1      42.876 -15.633   3.996  1.00  0.00     0.009 A 
HETATM   26  C   UNL     1      42.854 -14.636   4.972  1.00  0.00     0.037 A 
ENDBRANCH  19  20
ENDBRANCH  18  19
ENDBRANCH   1  18
TORSDOF 5
ENDMDL
