MODEL 1
REMARK VINA RESULT:      -9.6      0.000      0.000
REMARK  1 active torsions:
REMARK  status: ('A' for Active; 'I' for Inactive)
REMARK    1  A    between atoms: C_8  and  C_9 
ROOT
HETATM    1  C   UNL     1      42.905 -16.024   1.595  1.00  0.00     0.049 C 
HETATM    2  C   UNL     1      43.263 -17.123   2.559  1.00  0.00    -0.050 A 
HETATM    3  C   UNL     1      43.397 -16.901   3.945  1.00  0.00    -0.002 A 
HETATM    4  C   UNL     1      43.715 -17.979   4.795  1.00  0.00     0.051 A 
HETATM    5  N   UNL     1      43.808 -17.742   6.175  1.00  0.00    -0.322 N 
HETATM    6  C   UNL     1      43.625 -16.525   6.764  1.00  0.00     0.256 A 
HETATM    7  O   UNL     1      43.674 -16.402   7.985  1.00  0.00    -0.267 OA
HETATM    8  C   UNL     1      43.371 -15.355   5.873  1.00  0.00     0.053 A 
HETATM    9  C   UNL     1      43.239 -15.570   4.550  1.00  0.00     0.031 A 
HETATM   10  C   UNL     1      43.923 -19.272   4.285  1.00  0.00    -0.034 A 
HETATM   11  C   UNL     1      44.286 -20.434   5.166  1.00  0.00     0.050 C 
HETATM   12  C   UNL     1      43.785 -19.476   2.908  1.00  0.00     0.009 A 
HETATM   13  C   UNL     1      43.455 -18.419   2.059  1.00  0.00     0.008 A 
HETATM   14  H   UNL     1      44.007 -18.501   6.810  1.00  0.00     0.169 HD
ENDROOT
BRANCH   8  15
HETATM   15  C   UNL     1      43.271 -14.037   6.606  1.00  0.00     0.224 C 
HETATM   16  N   UNL     1      43.965 -13.008   5.891  1.00  0.00    -0.331 N 
HETATM   17  C   UNL     1      43.417 -12.325   4.843  1.00  0.00     0.255 C 
HETATM   18  H   UNL     1      44.976 -13.065   5.879  1.00  0.00     0.165 HD
HETATM   19  O   UNL     1      44.110 -11.724   4.030  1.00  0.00    -0.268 OA
HETATM   20  C   UNL     1      41.945 -12.331   4.761  1.00  0.00     0.058 A 
HETATM   21  C   UNL     1      41.235 -12.981   5.780  1.00  0.00     0.045 A 
HETATM   22  C   UNL     1      41.288 -11.680   3.713  1.00  0.00     0.019 A 
HETATM   23  N   UNL     1      41.900 -13.602   6.844  1.00  0.00    -0.364 N 
HETATM   24  C   UNL     1      39.839 -12.898   5.766  1.00  0.00     0.030 A 
HETATM   25  H   UNL     1      41.342 -14.275   7.356  1.00  0.00     0.162 HD
HETATM   26  C   UNL     1      39.173 -12.251   4.720  1.00  0.00     0.002 A 
HETATM   27  C   UNL     1      39.896 -11.651   3.689  1.00  0.00     0.001 A 
ENDBRANCH   8  15
TORSDOF 1
ENDMDL
MODEL 2
REMARK VINA RESULT:      -8.8      2.203      3.854
REMARK  1 active torsions:
REMARK  status: ('A' for Active; 'I' for Inactive)
REMARK    1  A    between atoms: C_8  and  C_9 
ROOT
HETATM    1  C   UNL     1      43.474 -17.281   6.904  1.00  0.00     0.049 C 
HETATM    2  C   UNL     1      43.542 -17.943   5.555  1.00  0.00    -0.050 A 
HETATM    3  C   UNL     1      43.165 -17.284   4.367  1.00  0.00    -0.002 A 
HETATM    4  C   UNL     1      43.273 -17.956   3.133  1.00  0.00     0.051 A 
HETATM    5  N   UNL     1      42.925 -17.269   1.961  1.00  0.00    -0.322 N 
HETATM    6  C   UNL     1      42.471 -15.982   1.925  1.00  0.00     0.256 A 
HETATM    7  O   UNL     1      42.233 -15.428   0.855  1.00  0.00    -0.267 OA
HETATM    8  C   UNL     1      42.270 -15.282   3.227  1.00  0.00     0.053 A 
HETATM    9  C   UNL     1      42.635 -15.912   4.359  1.00  0.00     0.031 A 
HETATM   10  C   UNL     1      43.730 -19.283   3.065  1.00  0.00    -0.034 A 
HETATM   11  C   UNL     1      43.832 -20.031   1.765  1.00  0.00     0.050 C 
HETATM   12  C   UNL     1      44.102 -19.923   4.251  1.00  0.00     0.009 A 
HETATM   13  C   UNL     1      44.014 -19.261   5.477  1.00  0.00     0.008 A 
HETATM   14  H   UNL     1      43.020 -17.716   1.060  1.00  0.00     0.169 HD
ENDROOT
BRANCH   8  15
HETATM   15  C   UNL     1      41.681 -13.897   3.093  1.00  0.00     0.224 C 
HETATM   16  N   UNL     1      40.766 -13.632   4.163  1.00  0.00    -0.331 N 
HETATM   17  C   UNL     1      41.164 -13.208   5.400  1.00  0.00     0.255 C 
HETATM   18  H   UNL     1      39.891 -14.140   4.150  1.00  0.00     0.165 HD
HETATM   19  O   UNL     1      40.446 -13.328   6.386  1.00  0.00    -0.268 OA
HETATM   20  C   UNL     1      42.494 -12.577   5.473  1.00  0.00     0.058 A 
HETATM   21  C   UNL     1      43.210 -12.416   4.279  1.00  0.00     0.045 A 
HETATM   22  C   UNL     1      43.003 -12.130   6.697  1.00  0.00     0.019 A 
HETATM   23  N   UNL     1      42.680 -12.836   3.054  1.00  0.00    -0.364 N 
HETATM   24  C   UNL     1      44.424 -11.722   4.327  1.00  0.00     0.030 A 
HETATM   25  H   UNL     1      43.362 -12.946   2.314  1.00  0.00     0.162 HD
HETATM   26  C   UNL     1      44.941 -11.274   5.547  1.00  0.00     0.002 A 
HETATM   27  C   UNL     1      44.237 -11.486   6.732  1.00  0.00     0.001 A 
ENDBRANCH   8  15
TORSDOF 1
ENDMDL
MODEL 3
REMARK VINA RESULT:      -8.7      2.948      4.158
REMARK  1 active torsions:
REMARK  status: ('A' for Active; 'I' for Inactive)
REMARK    1  A    between atoms: C_8  and  C_9 
ROOT
HETATM    1  C   UNL     1      43.572 -15.023   6.352  1.00  0.00     0.049 C 
HETATM    2  C   UNL     1      43.511 -16.076   5.279  1.00  0.00    -0.050 A 
HETATM    3  C   UNL     1      42.530 -16.073   4.267  1.00  0.00    -0.002 A 
HETATM    4  C   UNL     1      42.544 -17.079   3.280  1.00  0.00     0.051 A 
HETATM    5  N   UNL     1      41.579 -17.035   2.263  1.00  0.00    -0.322 N 
HETATM    6  C   UNL     1      40.606 -16.084   2.161  1.00  0.00     0.256 A 
HETATM    7  O   UNL     1      39.824 -16.081   1.213  1.00  0.00    -0.267 OA
HETATM    8  C   UNL     1      40.522 -15.059   3.242  1.00  0.00     0.053 A 
HETATM    9  C   UNL     1      41.463 -15.062   4.205  1.00  0.00     0.031 A 
HETATM   10  C   UNL     1      43.506 -18.103   3.298  1.00  0.00    -0.034 A 
HETATM   11  C   UNL     1      43.528 -19.201   2.272  1.00  0.00     0.050 C 
HETATM   12  C   UNL     1      44.474 -18.092   4.308  1.00  0.00     0.009 A 
HETATM   13  C   UNL     1      44.479 -17.091   5.281  1.00  0.00     0.008 A 
HETATM   14  H   UNL     1      41.583 -17.727   1.527  1.00  0.00     0.169 HD
ENDROOT
BRANCH   8  15
HETATM   15  C   UNL     1      39.361 -14.104   3.093  1.00  0.00     0.224 C 
HETATM   16  N   UNL     1      39.448 -13.049   4.059  1.00  0.00    -0.331 N 
HETATM   17  C   UNL     1      40.223 -11.938   3.886  1.00  0.00     0.255 C 
HETATM   18  H   UNL     1      39.277 -13.302   5.025  1.00  0.00     0.165 HD
HETATM   19  O   UNL     1      40.570 -11.238   4.830  1.00  0.00    -0.268 OA
HETATM   20  C   UNL     1      40.596 -11.616   2.496  1.00  0.00     0.058 A 
HETATM   21  C   UNL     1      40.090 -12.433   1.476  1.00  0.00     0.045 A 
HETATM   22  C   UNL     1      41.407 -10.512   2.214  1.00  0.00     0.019 A 
HETATM   23  N   UNL     1      39.252 -13.516   1.763  1.00  0.00    -0.364 N 
HETATM   24  C   UNL     1      40.351 -12.070   0.151  1.00  0.00     0.030 A 
HETATM   25  H   UNL     1      39.176 -14.201   1.021  1.00  0.00     0.162 HD
HETATM   26  C   UNL     1      41.163 -10.969  -0.140  1.00  0.00     0.002 A 
HETATM   27  C   UNL     1      41.699 -10.196   0.890  1.00  0.00     0.001 A 
ENDBRANCH   8  15
TORSDOF 1
ENDMDL
MODEL 4
REMARK VINA RESULT:      -8.7      2.387      3.527
REMARK  1 active torsions:
REMARK  status: ('A' for Active; 'I' for Inactive)
REMARK    1  A    between atoms: C_8  and  C_9 
ROOT
HETATM    1  C   UNL     1      43.227 -16.213   7.399  1.00  0.00     0.049 C 
HETATM    2  C   UNL     1      43.371 -17.227   6.296  1.00  0.00    -0.050 A 
HETATM    3  C   UNL     1      43.344 -16.872   4.932  1.00  0.00    -0.002 A 
HETATM    4  C   UNL     1      43.506 -17.870   3.950  1.00  0.00     0.051 A 
HETATM    5  N   UNL     1      43.511 -17.489   2.599  1.00  0.00    -0.322 N 
HETATM    6  C   UNL     1      43.356 -16.208   2.157  1.00  0.00     0.256 A 
HETATM    7  O   UNL     1      43.421 -15.942   0.960  1.00  0.00    -0.267 OA
HETATM    8  C   UNL     1      43.099 -15.149   3.177  1.00  0.00     0.053 A 
HETATM    9  C   UNL     1      43.130 -15.490   4.480  1.00  0.00     0.031 A 
HETATM   10  C   UNL     1      43.672 -19.220   4.304  1.00  0.00    -0.034 A 
HETATM   11  C   UNL     1      43.822 -20.306   3.276  1.00  0.00     0.050 C 
HETATM   12  C   UNL     1      43.698 -19.556   5.661  1.00  0.00     0.009 A 
HETATM   13  C   UNL     1      43.555 -18.574   6.642  1.00  0.00     0.008 A 
HETATM   14  H   UNL     1      43.653 -18.179   1.876  1.00  0.00     0.169 HD
ENDROOT
BRANCH   8  15
HETATM   15  C   UNL     1      42.851 -13.779   2.589  1.00  0.00     0.224 C 
HETATM   16  N   UNL     1      41.550 -13.714   1.992  1.00  0.00    -0.331 N 
HETATM   17  C   UNL     1      40.410 -13.477   2.706  1.00  0.00     0.255 C 
HETATM   18  H   UNL     1      41.415 -14.241   1.138  1.00  0.00     0.165 HD
HETATM   19  O   UNL     1      39.303 -13.772   2.273  1.00  0.00    -0.268 OA
HETATM   20  C   UNL     1      40.588 -12.824   4.016  1.00  0.00     0.058 A 
HETATM   21  C   UNL     1      41.886 -12.456   4.394  1.00  0.00     0.045 A 
HETATM   22  C   UNL     1      39.485 -12.559   4.834  1.00  0.00     0.019 A 
HETATM   23  N   UNL     1      42.980 -12.694   3.555  1.00  0.00    -0.364 N 
HETATM   24  C   UNL     1      42.047 -11.740   5.585  1.00  0.00     0.030 A 
HETATM   25  H   UNL     1      43.881 -12.666   4.017  1.00  0.00     0.162 HD
HETATM   26  C   UNL     1      40.950 -11.473   6.411  1.00  0.00     0.002 A 
HETATM   27  C   UNL     1      39.672 -11.890   6.042  1.00  0.00     0.001 A 
ENDBRANCH   8  15
TORSDOF 1
ENDMDL
MODEL 5
REMARK VINA RESULT:      -8.4      2.744      3.832
REMARK  1 active torsions:
REMARK  status: ('A' for Active; 'I' for Inactive)
REMARK    1  A    between atoms: C_8  and  C_9 
ROOT
HETATM    1  C   UNL     1      42.829 -16.767   1.817  1.00  0.00     0.049 C 
HETATM    2  C   UNL     1      43.003 -16.682   3.309  1.00  0.00    -0.050 A 
HETATM    3  C   UNL     1      42.214 -15.839   4.118  1.00  0.00    -0.002 A 
HETATM    4  C   UNL     1      42.415 -15.824   5.512  1.00  0.00     0.051 A 
HETATM    5  N   UNL     1      41.595 -15.003   6.301  1.00  0.00    -0.322 N 
HETATM    6  C   UNL     1      40.609 -14.196   5.811  1.00  0.00     0.256 A 
HETATM    7  O   UNL     1      39.896 -13.542   6.568  1.00  0.00    -0.267 OA
HETATM    8  C   UNL     1      40.436 -14.135   4.330  1.00  0.00     0.053 A 
HETATM    9  C   UNL     1      41.188 -14.945   3.561  1.00  0.00     0.031 A 
HETATM   10  C   UNL     1      43.406 -16.618   6.113  1.00  0.00    -0.034 A 
HETATM   11  C   UNL     1      43.658 -16.603   7.595  1.00  0.00     0.050 C 
HETATM   12  C   UNL     1      44.180 -17.451   5.298  1.00  0.00     0.009 A 
HETATM   13  C   UNL     1      43.978 -17.486   3.918  1.00  0.00     0.008 A 
HETATM   14  H   UNL     1      41.698 -14.994   7.305  1.00  0.00     0.169 HD
ENDROOT
BRANCH   8  15
HETATM   15  C   UNL     1      39.384 -13.150   3.877  1.00  0.00     0.224 C 
HETATM   16  N   UNL     1      39.889 -11.811   3.931  1.00  0.00    -0.331 N 
HETATM   17  C   UNL     1      40.654 -11.258   2.944  1.00  0.00     0.255 C 
HETATM   18  H   UNL     1      40.037 -11.418   4.853  1.00  0.00     0.165 HD
HETATM   19  O   UNL     1      41.363 -10.279   3.146  1.00  0.00    -0.268 OA
HETATM   20  C   UNL     1      40.557 -11.891   1.616  1.00  0.00     0.058 A 
HETATM   21  C   UNL     1      39.661 -12.958   1.463  1.00  0.00     0.045 A 
HETATM   22  C   UNL     1      41.317 -11.415   0.543  1.00  0.00     0.019 A 
HETATM   23  N   UNL     1      38.880 -13.408   2.533  1.00  0.00    -0.364 N 
HETATM   24  C   UNL     1      39.486 -13.492   0.182  1.00  0.00     0.030 A 
HETATM   25  H   UNL     1      38.494 -14.337   2.414  1.00  0.00     0.162 HD
HETATM   26  C   UNL     1      40.244 -13.023  -0.896  1.00  0.00     0.002 A 
HETATM   27  C   UNL     1      41.166 -11.993  -0.715  1.00  0.00     0.001 A 
ENDBRANCH   8  15
TORSDOF 1
ENDMDL
MODEL 6
REMARK VINA RESULT:      -8.3      2.638      6.027
REMARK  1 active torsions:
REMARK  status: ('A' for Active; 'I' for Inactive)
REMARK    1  A    between atoms: C_8  and  C_9 
ROOT
HETATM    1  C   UNL     1      39.923 -15.748   1.179  1.00  0.00     0.049 C 
HETATM    2  C   UNL     1      40.309 -14.307   0.984  1.00  0.00    -0.050 A 
HETATM    3  C   UNL     1      40.613 -13.450   2.061  1.00  0.00    -0.002 A 
HETATM    4  C   UNL     1      40.988 -12.116   1.806  1.00  0.00     0.051 A 
HETATM    5  N   UNL     1      41.321 -11.292   2.892  1.00  0.00    -0.322 N 
HETATM    6  C   UNL     1      41.297 -11.688   4.198  1.00  0.00     0.256 A 
HETATM    7  O   UNL     1      41.650 -10.925   5.094  1.00  0.00    -0.267 OA
HETATM    8  C   UNL     1      40.822 -13.071   4.495  1.00  0.00     0.053 A 
HETATM    9  C   UNL     1      40.536 -13.888   3.463  1.00  0.00     0.031 A 
HETATM   10  C   UNL     1      41.042 -11.613   0.495  1.00  0.00    -0.034 A 
HETATM   11  C   UNL     1      41.415 -10.188   0.197  1.00  0.00     0.050 C 
HETATM   12  C   UNL     1      40.739 -12.475  -0.564  1.00  0.00     0.009 A 
HETATM   13  C   UNL     1      40.382 -13.803  -0.323  1.00  0.00     0.008 A 
HETATM   14  H   UNL     1      41.620 -10.340   2.737  1.00  0.00     0.169 HD
ENDROOT
BRANCH   8  15
HETATM   15  C   UNL     1      40.744 -13.388   5.970  1.00  0.00     0.224 C 
HETATM   16  N   UNL     1      39.951 -14.560   6.193  1.00  0.00    -0.331 N 
HETATM   17  C   UNL     1      40.440 -15.830   6.071  1.00  0.00     0.255 C 
HETATM   18  H   UNL     1      38.955 -14.472   6.032  1.00  0.00     0.165 HD
HETATM   19  O   UNL     1      39.702 -16.795   5.910  1.00  0.00    -0.268 OA
HETATM   20  C   UNL     1      41.904 -15.974   6.172  1.00  0.00     0.058 A 
HETATM   21  C   UNL     1      42.659 -14.823   6.434  1.00  0.00     0.045 A 
HETATM   22  C   UNL     1      42.506 -17.229   6.039  1.00  0.00     0.019 A 
HETATM   23  N   UNL     1      42.046 -13.576   6.599  1.00  0.00    -0.364 N 
HETATM   24  C   UNL     1      44.035 -14.970   6.637  1.00  0.00     0.030 A 
HETATM   25  H   UNL     1      42.667 -12.782   6.494  1.00  0.00     0.162 HD
HETATM   26  C   UNL     1      44.646 -16.221   6.503  1.00  0.00     0.002 A 
HETATM   27  C   UNL     1      43.885 -17.348   6.194  1.00  0.00     0.001 A 
ENDBRANCH   8  15
TORSDOF 1
ENDMDL
MODEL 7
REMARK VINA RESULT:      -8.3      6.126      8.581
REMARK  1 active torsions:
REMARK  status: ('A' for Active; 'I' for Inactive)
REMARK    1  A    between atoms: C_8  and  C_9 
ROOT
HETATM    1  C   UNL     1      45.722  -9.324   9.493  1.00  0.00     0.049 C 
HETATM    2  C   UNL     1      45.033 -10.104   8.406  1.00  0.00    -0.050 A 
HETATM    3  C   UNL     1      43.648 -10.001   8.161  1.00  0.00    -0.002 A 
HETATM    4  C   UNL     1      43.070 -10.745   7.113  1.00  0.00     0.051 A 
HETATM    5  N   UNL     1      41.696 -10.600   6.865  1.00  0.00    -0.322 N 
HETATM    6  C   UNL     1      40.863  -9.791   7.581  1.00  0.00     0.256 A 
HETATM    7  O   UNL     1      39.679  -9.676   7.274  1.00  0.00    -0.267 OA
HETATM    8  C   UNL     1      41.439  -9.060   8.747  1.00  0.00     0.053 A 
HETATM    9  C   UNL     1      42.763  -9.156   8.976  1.00  0.00     0.031 A 
HETATM   10  C   UNL     1      43.844 -11.607   6.318  1.00  0.00    -0.034 A 
HETATM   11  C   UNL     1      43.247 -12.429   5.210  1.00  0.00     0.050 C 
HETATM   12  C   UNL     1      45.216 -11.697   6.572  1.00  0.00     0.009 A 
HETATM   13  C   UNL     1      45.803 -10.953   7.598  1.00  0.00     0.008 A 
HETATM   14  H   UNL     1      41.261 -11.099   6.103  1.00  0.00     0.169 HD
ENDROOT
BRANCH   8  15
HETATM   15  C   UNL     1      40.425  -8.261   9.532  1.00  0.00     0.224 C 
HETATM   16  N   UNL     1      39.551  -9.131  10.261  1.00  0.00    -0.331 N 
HETATM   17  C   UNL     1      39.874  -9.676  11.471  1.00  0.00     0.255 C 
HETATM   18  H   UNL     1      38.889  -9.671   9.716  1.00  0.00     0.165 HD
HETATM   19  O   UNL     1      39.305 -10.669  11.906  1.00  0.00    -0.268 OA
HETATM   20  C   UNL     1      40.930  -8.983  12.233  1.00  0.00     0.058 A 
HETATM   21  C   UNL     1      41.470  -7.811  11.688  1.00  0.00     0.045 A 
HETATM   22  C   UNL     1      41.350  -9.473  13.473  1.00  0.00     0.019 A 
HETATM   23  N   UNL     1      41.021  -7.308  10.461  1.00  0.00    -0.364 N 
HETATM   24  C   UNL     1      42.393  -7.092  12.455  1.00  0.00     0.030 A 
HETATM   25  H   UNL     1      41.648  -6.647  10.020  1.00  0.00     0.162 HD
HETATM   26  C   UNL     1      42.820  -7.576  13.695  1.00  0.00     0.002 A 
HETATM   27  C   UNL     1      42.308  -8.771  14.200  1.00  0.00     0.001 A 
ENDBRANCH   8  15
TORSDOF 1
ENDMDL
MODEL 8
REMARK VINA RESULT:      -8.2      4.018      7.402
REMARK  1 active torsions:
REMARK  status: ('A' for Active; 'I' for Inactive)
REMARK    1  A    between atoms: C_8  and  C_9 
ROOT
HETATM    1  C   UNL     1      46.108 -10.463   7.761  1.00  0.00     0.049 C 
HETATM    2  C   UNL     1      45.039 -10.048   8.736  1.00  0.00    -0.050 A 
HETATM    3  C   UNL     1      43.684  -9.919   8.367  1.00  0.00    -0.002 A 
HETATM    4  C   UNL     1      42.731  -9.547   9.335  1.00  0.00     0.051 A 
HETATM    5  N   UNL     1      41.384  -9.459   8.953  1.00  0.00    -0.322 N 
HETATM    6  C   UNL     1      40.921  -9.698   7.692  1.00  0.00     0.256 A 
HETATM    7  O   UNL     1      39.719  -9.651   7.442  1.00  0.00    -0.267 OA
HETATM    8  C   UNL     1      41.925 -10.011   6.633  1.00  0.00     0.053 A 
HETATM    9  C   UNL     1      43.217 -10.138   6.990  1.00  0.00     0.031 A 
HETATM   10  C   UNL     1      43.108  -9.278  10.662  1.00  0.00    -0.034 A 
HETATM   11  C   UNL     1      42.115  -8.856  11.709  1.00  0.00     0.050 C 
HETATM   12  C   UNL     1      44.455  -9.412  11.014  1.00  0.00     0.009 A 
HETATM   13  C   UNL     1      45.405  -9.796  10.066  1.00  0.00     0.008 A 
HETATM   14  H   UNL     1      40.676  -9.222   9.633  1.00  0.00     0.169 HD
ENDROOT
BRANCH   8  15
HETATM   15  C   UNL     1      41.331 -10.173   5.254  1.00  0.00     0.224 C 
HETATM   16  N   UNL     1      42.364 -10.245   4.264  1.00  0.00    -0.331 N 
HETATM   17  C   UNL     1      43.041 -11.395   3.971  1.00  0.00     0.255 C 
HETATM   18  H   UNL     1      42.877  -9.392   4.078  1.00  0.00     0.165 HD
HETATM   19  O   UNL     1      44.129 -11.380   3.409  1.00  0.00    -0.268 OA
HETATM   20  C   UNL     1      42.373 -12.655   4.347  1.00  0.00     0.058 A 
HETATM   21  C   UNL     1      41.095 -12.575   4.917  1.00  0.00     0.045 A 
HETATM   22  C   UNL     1      42.993 -13.886   4.112  1.00  0.00     0.019 A 
HETATM   23  N   UNL     1      40.468 -11.341   5.119  1.00  0.00    -0.364 N 
HETATM   24  C   UNL     1      40.414 -13.769   5.176  1.00  0.00     0.030 A 
HETATM   25  H   UNL     1      39.702 -11.359   5.781  1.00  0.00     0.162 HD
HETATM   26  C   UNL     1      41.027 -15.005   4.946  1.00  0.00     0.002 A 
HETATM   27  C   UNL     1      42.319 -15.064   4.424  1.00  0.00     0.001 A 
ENDBRANCH   8  15
TORSDOF 1
ENDMDL
MODEL 9
REMARK VINA RESULT:      -8.1     14.974     17.460
REMARK  1 active torsions:
REMARK  status: ('A' for Active; 'I' for Inactive)
REMARK    1  A    between atoms: C_8  and  C_9 
ROOT
HETATM    1  C   UNL     1      43.922 -33.535  -2.037  1.00  0.00     0.049 C 
HETATM    2  C   UNL     1      44.025 -32.881  -3.388  1.00  0.00    -0.050 A 
HETATM    3  C   UNL     1      44.298 -31.507  -3.547  1.00  0.00    -0.002 A 
HETATM    4  C   UNL     1      44.401 -30.963  -4.842  1.00  0.00     0.051 A 
HETATM    5  N   UNL     1      44.707 -29.600  -4.976  1.00  0.00    -0.322 N 
HETATM    6  C   UNL     1      44.903 -28.746  -3.930  1.00  0.00     0.256 A 
HETATM    7  O   UNL     1      45.218 -27.574  -4.124  1.00  0.00    -0.267 OA
HETATM    8  C   UNL     1      44.715 -29.284  -2.551  1.00  0.00     0.053 A 
HETATM    9  C   UNL     1      44.460 -30.597  -2.403  1.00  0.00     0.031 A 
HETATM   10  C   UNL     1      44.216 -31.761  -5.984  1.00  0.00    -0.034 A 
HETATM   11  C   UNL     1      44.297 -31.200  -7.377  1.00  0.00     0.050 C 
HETATM   12  C   UNL     1      43.948 -33.122  -5.811  1.00  0.00     0.009 A 
HETATM   13  C   UNL     1      43.859 -33.675  -4.532  1.00  0.00     0.008 A 
HETATM   14  H   UNL     1      44.816 -29.190  -5.892  1.00  0.00     0.169 HD
ENDROOT
BRANCH   8  15
HETATM   15  C   UNL     1      44.864 -28.246  -1.463  1.00  0.00     0.224 C 
HETATM   16  N   UNL     1      44.179 -28.659  -0.274  1.00  0.00    -0.331 N 
HETATM   17  C   UNL     1      44.720 -29.517   0.641  1.00  0.00     0.255 C 
HETATM   18  H   UNL     1      43.167 -28.657  -0.309  1.00  0.00     0.165 HD
HETATM   19  O   UNL     1      44.024 -30.133   1.439  1.00  0.00    -0.268 OA
HETATM   20  C   UNL     1      46.189 -29.638   0.629  1.00  0.00     0.058 A 
HETATM   21  C   UNL     1      46.906 -28.836  -0.269  1.00  0.00     0.045 A 
HETATM   22  C   UNL     1      46.838 -30.507   1.512  1.00  0.00     0.019 A 
HETATM   23  N   UNL     1      46.251 -27.945  -1.126  1.00  0.00    -0.364 N 
HETATM   24  C   UNL     1      48.303 -28.868  -0.211  1.00  0.00     0.030 A 
HETATM   25  H   UNL     1      46.803 -27.634  -1.916  1.00  0.00     0.162 HD
HETATM   26  C   UNL     1      48.960 -29.736   0.667  1.00  0.00     0.002 A 
HETATM   27  C   UNL     1      48.230 -30.562   1.520  1.00  0.00     0.001 A 
ENDBRANCH   8  15
TORSDOF 1
ENDMDL
MODEL 10
REMARK VINA RESULT:      -8.1      3.111      6.710
REMARK  1 active torsions:
REMARK  status: ('A' for Active; 'I' for Inactive)
REMARK    1  A    between atoms: C_8  and  C_9 
ROOT
HETATM    1  C   UNL     1      40.737 -11.086   5.432  1.00  0.00     0.049 C 
HETATM    2  C   UNL     1      40.792 -10.995   3.931  1.00  0.00    -0.050 A 
HETATM    3  C   UNL     1      40.670 -12.127   3.098  1.00  0.00    -0.002 A 
HETATM    4  C   UNL     1      40.709 -11.968   1.699  1.00  0.00     0.051 A 
HETATM    5  N   UNL     1      40.550 -13.103   0.890  1.00  0.00    -0.322 N 
HETATM    6  C   UNL     1      40.370 -14.370   1.363  1.00  0.00     0.256 A 
HETATM    7  O   UNL     1      40.187 -15.310   0.593  1.00  0.00    -0.267 OA
HETATM    8  C   UNL     1      40.409 -14.571   2.841  1.00  0.00     0.053 A 
HETATM    9  C   UNL     1      40.522 -13.488   3.633  1.00  0.00     0.031 A 
HETATM   10  C   UNL     1      40.891 -10.704   1.114  1.00  0.00    -0.034 A 
HETATM   11  C   UNL     1      40.961 -10.511  -0.375  1.00  0.00     0.050 C 
HETATM   12  C   UNL     1      41.010  -9.591   1.953  1.00  0.00     0.009 A 
HETATM   13  C   UNL     1      40.956  -9.734   3.340  1.00  0.00     0.008 A 
HETATM   14  H   UNL     1      40.546 -13.015  -0.117  1.00  0.00     0.169 HD
ENDROOT
BRANCH   8  15
HETATM   15  C   UNL     1      40.290 -16.015   3.267  1.00  0.00     0.224 C 
HETATM   16  N   UNL     1      41.370 -16.790   2.731  1.00  0.00    -0.331 N 
HETATM   17  C   UNL     1      42.607 -16.851   3.308  1.00  0.00     0.255 C 
HETATM   18  H   UNL     1      41.360 -16.954   1.731  1.00  0.00     0.165 HD
HETATM   19  O   UNL     1      43.597 -17.204   2.680  1.00  0.00    -0.268 OA
HETATM   20  C   UNL     1      42.675 -16.491   4.736  1.00  0.00     0.058 A 
HETATM   21  C   UNL     1      41.476 -16.173   5.390  1.00  0.00     0.045 A 
HETATM   22  C   UNL     1      43.897 -16.500   5.415  1.00  0.00     0.019 A 
HETATM   23  N   UNL     1      40.252 -16.200   4.712  1.00  0.00    -0.364 N 
HETATM   24  C   UNL     1      41.520 -15.937   6.768  1.00  0.00     0.030 A 
HETATM   25  H   UNL     1      39.506 -15.689   5.168  1.00  0.00     0.162 HD
HETATM   26  C   UNL     1      42.739 -15.941   7.454  1.00  0.00     0.002 A 
HETATM   27  C   UNL     1      43.928 -16.211   6.777  1.00  0.00     0.001 A 
ENDBRANCH   8  15
TORSDOF 1
ENDMDL
