MODEL 1
REMARK VINA RESULT:      -9.1      0.000      0.000
REMARK  3 active torsions:
REMARK  status: ('A' for Active; 'I' for Inactive)
REMARK    1  A    between atoms: C_3  and  C_4 
REMARK       I    between atoms: C_4  and  N_5 
REMARK    2  A    between atoms: N_5  and  C_6 
REMARK    3  A    between atoms: C_13  and  C_14 
REMARK       I    between atoms: C_14  and  N_15 
ROOT
HETATM    1  C   UNL     1      42.973 -12.811   5.356  1.00  0.00     0.035 A 
HETATM    2  C   UNL     1      43.854 -12.165   6.239  1.00  0.00     0.046 A 
HETATM    3  C   UNL     1      43.480 -10.940   6.831  1.00  0.00     0.030 A 
HETATM    4  C   UNL     1      42.243 -10.396   6.515  1.00  0.00     0.063 A 
HETATM    5  N   UNL     1      42.168  -9.230   7.223  1.00  0.00    -0.277 N 
HETATM    6  H   UNL     1      41.401  -8.566   7.233  1.00  0.00     0.189 HD
HETATM    7  N   UNL     1      43.247  -8.970   7.982  1.00  0.00    -0.168 NA
HETATM    8  C   UNL     1      44.066 -10.020   7.748  1.00  0.00     0.156 A 
HETATM    9  C   UNL     1      41.345 -11.009   5.638  1.00  0.00     0.034 A 
HETATM   10  C   UNL     1      41.736 -12.229   5.069  1.00  0.00     0.032 A 
ENDROOT
BRANCH   1  11
HETATM   11  N   UNL     1      43.411 -14.030   4.805  1.00  0.00    -0.325 N 
HETATM   12  C   UNL     1      42.896 -15.299   5.008  1.00  0.00     0.252 C 
HETATM   13  O   UNL     1      41.961 -15.598   5.746  1.00  0.00    -0.270 OA
HETATM   14  H   UNL     1      44.183 -13.983   4.144  1.00  0.00     0.169 HD
BRANCH  12  15
HETATM   15  C   UNL     1      43.679 -16.384   4.261  1.00  0.00     0.229 C 
HETATM   16  C   UNL     1      42.902 -16.833   3.008  1.00  0.00     0.056 C 
HETATM   17  C   UNL     1      43.317 -16.076   1.756  1.00  0.00     0.018 C 
HETATM   18  C   UNL     1      43.261 -18.276   3.017  1.00  0.00    -0.018 A 
HETATM   19  C   UNL     1      43.794 -18.604   4.256  1.00  0.00     0.076 A 
HETATM   20  C   UNL     1      43.082 -19.249   2.049  1.00  0.00     0.010 A 
HETATM   21  O   UNL     1      43.891 -17.542   5.114  1.00  0.00    -0.335 OA
HETATM   22  C   UNL     1      44.164 -19.893   4.578  1.00  0.00     0.037 A 
HETATM   23  C   UNL     1      44.000 -20.881   3.606  1.00  0.00     0.003 A 
HETATM   24  C   UNL     1      43.463 -20.560   2.349  1.00  0.00     0.001 A 
ENDBRANCH  12  15
ENDBRANCH   1  11
BRANCH   8  25
HETATM   25  C   UNL     1      45.379 -10.128   8.400  1.00  0.00     0.270 C 
HETATM   26  N   UNL     1      46.395  -9.516   7.719  1.00  0.00    -0.365 N 
HETATM   27  H   UNL     1      46.179  -9.046   6.847  1.00  0.00     0.159 HD
HETATM   28  H   UNL     1      47.330  -9.530   8.092  1.00  0.00     0.159 HD
HETATM   29  O   UNL     1      45.580 -10.707   9.462  1.00  0.00    -0.266 OA
ENDBRANCH   8  25
TORSDOF 3
ENDMDL
MODEL 2
REMARK VINA RESULT:      -9.0      4.444      7.649
REMARK  3 active torsions:
REMARK  status: ('A' for Active; 'I' for Inactive)
REMARK    1  A    between atoms: C_3  and  C_4 
REMARK       I    between atoms: C_4  and  N_5 
REMARK    2  A    between atoms: N_5  and  C_6 
REMARK    3  A    between atoms: C_13  and  C_14 
REMARK       I    between atoms: C_14  and  N_15 
ROOT
HETATM    1  C   UNL     1      42.184 -15.938   2.432  1.00  0.00     0.035 A 
HETATM    2  C   UNL     1      42.023 -15.850   3.824  1.00  0.00     0.046 A 
HETATM    3  C   UNL     1      42.705 -16.755   4.666  1.00  0.00     0.030 A 
HETATM    4  C   UNL     1      43.517 -17.721   4.090  1.00  0.00     0.063 A 
HETATM    5  N   UNL     1      44.028 -18.436   5.136  1.00  0.00    -0.277 N 
HETATM    6  H   UNL     1      44.662 -19.226   5.089  1.00  0.00     0.189 HD
HETATM    7  N   UNL     1      43.625 -18.014   6.348  1.00  0.00    -0.168 NA
HETATM    8  C   UNL     1      42.806 -16.974   6.071  1.00  0.00     0.156 A 
HETATM    9  C   UNL     1      43.696 -17.838   2.710  1.00  0.00     0.034 A 
HETATM   10  C   UNL     1      43.015 -16.924   1.895  1.00  0.00     0.032 A 
ENDROOT
BRANCH   1  11
HETATM   11  N   UNL     1      41.476 -15.002   1.654  1.00  0.00    -0.325 N 
HETATM   12  C   UNL     1      40.276 -15.173   0.985  1.00  0.00     0.252 C 
HETATM   13  O   UNL     1      39.614 -16.205   0.924  1.00  0.00    -0.270 OA
HETATM   14  H   UNL     1      41.868 -14.064   1.597  1.00  0.00     0.169 HD
BRANCH  12  15
HETATM   15  C   UNL     1      39.847 -13.923   0.207  1.00  0.00     0.229 C 
HETATM   16  C   UNL     1      40.112 -14.119  -1.299  1.00  0.00     0.056 C 
HETATM   17  C   UNL     1      38.899 -14.650  -2.045  1.00  0.00     0.018 C 
HETATM   18  C   UNL     1      40.505 -12.728  -1.647  1.00  0.00    -0.018 A 
HETATM   19  C   UNL     1      40.781 -12.028  -0.482  1.00  0.00     0.076 A 
HETATM   20  C   UNL     1      40.673 -12.129  -2.884  1.00  0.00     0.010 A 
HETATM   21  O   UNL     1      40.588 -12.758   0.660  1.00  0.00    -0.335 OA
HETATM   22  C   UNL     1      41.230 -10.723  -0.497  1.00  0.00     0.037 A 
HETATM   23  C   UNL     1      41.392 -10.104  -1.737  1.00  0.00     0.003 A 
HETATM   24  C   UNL     1      41.114 -10.803  -2.924  1.00  0.00     0.001 A 
ENDBRANCH  12  15
ENDBRANCH   1  11
BRANCH   8  25
HETATM   25  C   UNL     1      42.144 -16.214   7.140  1.00  0.00     0.270 C 
HETATM   26  N   UNL     1      42.981 -15.821   8.149  1.00  0.00    -0.365 N 
HETATM   27  H   UNL     1      43.962 -16.070   8.089  1.00  0.00     0.159 HD
HETATM   28  H   UNL     1      42.620 -15.288   8.923  1.00  0.00     0.159 HD
HETATM   29  O   UNL     1      40.950 -15.936   7.157  1.00  0.00    -0.266 OA
ENDBRANCH   8  25
TORSDOF 3
ENDMDL
MODEL 3
REMARK VINA RESULT:      -8.9      2.078      3.390
REMARK  3 active torsions:
REMARK  status: ('A' for Active; 'I' for Inactive)
REMARK    1  A    between atoms: C_3  and  C_4 
REMARK       I    between atoms: C_4  and  N_5 
REMARK    2  A    between atoms: N_5  and  C_6 
REMARK    3  A    between atoms: C_13  and  C_14 
REMARK       I    between atoms: C_14  and  N_15 
ROOT
HETATM    1  C   UNL     1      44.416 -12.226   6.932  1.00  0.00     0.035 A 
HETATM    2  C   UNL     1      43.900 -11.874   8.190  1.00  0.00     0.046 A 
HETATM    3  C   UNL     1      44.480 -10.808   8.911  1.00  0.00     0.030 A 
HETATM    4  C   UNL     1      45.558 -10.134   8.355  1.00  0.00     0.063 A 
HETATM    5  N   UNL     1      45.898  -9.178   9.269  1.00  0.00    -0.277 N 
HETATM    6  H   UNL     1      46.648  -8.498   9.198  1.00  0.00     0.189 HD
HETATM    7  N   UNL     1      45.127  -9.163  10.372  1.00  0.00    -0.168 NA
HETATM    8  C   UNL     1      44.246 -10.167  10.162  1.00  0.00     0.156 A 
HETATM    9  C   UNL     1      46.097 -10.460   7.109  1.00  0.00     0.034 A 
HETATM   10  C   UNL     1      45.500 -11.518   6.408  1.00  0.00     0.032 A 
ENDROOT
BRANCH   1  11
HETATM   11  N   UNL     1      43.787 -13.297   6.269  1.00  0.00    -0.325 N 
HETATM   12  C   UNL     1      42.660 -13.267   5.465  1.00  0.00     0.252 C 
HETATM   13  O   UNL     1      41.973 -12.283   5.206  1.00  0.00    -0.270 OA
HETATM   14  H   UNL     1      44.228 -14.210   6.354  1.00  0.00     0.169 HD
BRANCH  12  15
HETATM   15  C   UNL     1      42.257 -14.656   4.956  1.00  0.00     0.229 C 
HETATM   16  C   UNL     1      43.051 -15.746   5.703  1.00  0.00     0.056 C 
HETATM   17  C   UNL     1      42.309 -16.290   6.914  1.00  0.00     0.018 C 
HETATM   18  C   UNL     1      43.224 -16.713   4.586  1.00  0.00    -0.018 A 
HETATM   19  C   UNL     1      42.930 -16.079   3.387  1.00  0.00     0.076 A 
HETATM   20  C   UNL     1      43.665 -18.025   4.598  1.00  0.00     0.010 A 
HETATM   21  O   UNL     1      42.527 -14.779   3.534  1.00  0.00    -0.335 OA
HETATM   22  C   UNL     1      43.060 -16.715   2.169  1.00  0.00     0.037 A 
HETATM   23  C   UNL     1      43.491 -18.042   2.169  1.00  0.00     0.003 A 
HETATM   24  C   UNL     1      43.791 -18.693   3.377  1.00  0.00     0.001 A 
ENDBRANCH  12  15
ENDBRANCH   1  11
BRANCH   8  25
HETATM   25  C   UNL     1      43.205 -10.490  11.147  1.00  0.00     0.270 C 
HETATM   26  N   UNL     1      43.566 -11.455  12.048  1.00  0.00    -0.365 N 
HETATM   27  H   UNL     1      44.493 -11.861  11.977  1.00  0.00     0.159 HD
HETATM   28  H   UNL     1      42.921 -11.738  12.767  1.00  0.00     0.159 HD
HETATM   29  O   UNL     1      42.100  -9.960  11.189  1.00  0.00    -0.266 OA
ENDBRANCH   8  25
TORSDOF 3
ENDMDL
MODEL 4
REMARK VINA RESULT:      -8.9      4.614      7.787
REMARK  3 active torsions:
REMARK  status: ('A' for Active; 'I' for Inactive)
REMARK    1  A    between atoms: C_3  and  C_4 
REMARK       I    between atoms: C_4  and  N_5 
REMARK    2  A    between atoms: N_5  and  C_6 
REMARK    3  A    between atoms: C_13  and  C_14 
REMARK       I    between atoms: C_14  and  N_15 
ROOT
HETATM    1  C   UNL     1      42.502 -16.356   2.441  1.00  0.00     0.035 A 
HETATM    2  C   UNL     1      42.279 -16.103   3.804  1.00  0.00     0.046 A 
HETATM    3  C   UNL     1      42.808 -16.978   4.776  1.00  0.00     0.030 A 
HETATM    4  C   UNL     1      43.537 -18.081   4.354  1.00  0.00     0.063 A 
HETATM    5  N   UNL     1      43.908 -18.730   5.497  1.00  0.00    -0.277 N 
HETATM    6  H   UNL     1      44.451 -19.583   5.571  1.00  0.00     0.189 HD
HETATM    7  N   UNL     1      43.491 -18.140   6.632  1.00  0.00    -0.168 NA
HETATM    8  C   UNL     1      42.809 -17.055   6.199  1.00  0.00     0.156 A 
HETATM    9  C   UNL     1      43.776 -18.364   3.007  1.00  0.00     0.034 A 
HETATM   10  C   UNL     1      43.245 -17.476   2.061  1.00  0.00     0.032 A 
ENDROOT
BRANCH   1  11
HETATM   11  N   UNL     1      41.946 -15.439   1.529  1.00  0.00    -0.325 N 
HETATM   12  C   UNL     1      40.629 -15.326   1.119  1.00  0.00     0.252 C 
HETATM   13  O   UNL     1      39.693 -16.043   1.463  1.00  0.00    -0.270 OA
HETATM   14  H   UNL     1      42.577 -14.741   1.140  1.00  0.00     0.169 HD
BRANCH  12  15
HETATM   15  C   UNL     1      40.425 -14.224   0.073  1.00  0.00     0.229 C 
HETATM   16  C   UNL     1      39.832 -12.966   0.736  1.00  0.00     0.056 C 
HETATM   17  C   UNL     1      40.897 -11.968   1.161  1.00  0.00     0.018 C 
HETATM   18  C   UNL     1      38.952 -12.512  -0.374  1.00  0.00    -0.018 A 
HETATM   19  C   UNL     1      38.804 -13.545  -1.288  1.00  0.00     0.076 A 
HETATM   20  C   UNL     1      38.277 -11.316  -0.549  1.00  0.00     0.010 A 
HETATM   21  O   UNL     1      39.516 -14.671  -0.970  1.00  0.00    -0.335 OA
HETATM   22  C   UNL     1      37.992 -13.434  -2.398  1.00  0.00     0.037 A 
HETATM   23  C   UNL     1      37.316 -12.229  -2.592  1.00  0.00     0.003 A 
HETATM   24  C   UNL     1      37.459 -11.176  -1.673  1.00  0.00     0.001 A 
ENDBRANCH  12  15
ENDBRANCH   1  11
BRANCH   8  25
HETATM   25  C   UNL     1      42.181 -16.119   7.141  1.00  0.00     0.270 C 
HETATM   26  N   UNL     1      42.974 -15.774   8.201  1.00  0.00    -0.365 N 
HETATM   27  H   UNL     1      43.905 -16.172   8.259  1.00  0.00     0.159 HD
HETATM   28  H   UNL     1      42.633 -15.131   8.896  1.00  0.00     0.159 HD
HETATM   29  O   UNL     1      41.049 -15.664   7.016  1.00  0.00    -0.266 OA
ENDBRANCH   8  25
TORSDOF 3
ENDMDL
MODEL 5
REMARK VINA RESULT:      -8.4      4.938      8.566
REMARK  3 active torsions:
REMARK  status: ('A' for Active; 'I' for Inactive)
REMARK    1  A    between atoms: C_3  and  C_4 
REMARK       I    between atoms: C_4  and  N_5 
REMARK    2  A    between atoms: N_5  and  C_6 
REMARK    3  A    between atoms: C_13  and  C_14 
REMARK       I    between atoms: C_14  and  N_15 
ROOT
HETATM    1  C   UNL     1      42.264 -15.591   2.712  1.00  0.00     0.035 A 
HETATM    2  C   UNL     1      42.506 -16.918   2.320  1.00  0.00     0.046 A 
HETATM    3  C   UNL     1      43.240 -17.776   3.167  1.00  0.00     0.030 A 
HETATM    4  C   UNL     1      43.714 -17.279   4.372  1.00  0.00     0.063 A 
HETATM    5  N   UNL     1      44.376 -18.320   4.959  1.00  0.00    -0.277 N 
HETATM    6  H   UNL     1      44.855 -18.318   5.853  1.00  0.00     0.189 HD
HETATM    7  N   UNL     1      44.368 -19.458   4.242  1.00  0.00    -0.168 NA
HETATM    8  C   UNL     1      43.669 -19.135   3.131  1.00  0.00     0.156 A 
HETATM    9  C   UNL     1      43.494 -15.965   4.791  1.00  0.00     0.034 A 
HETATM   10  C   UNL     1      42.757 -15.134   3.936  1.00  0.00     0.032 A 
ENDROOT
BRANCH   1  11
HETATM   11  N   UNL     1      41.523 -14.794   1.819  1.00  0.00    -0.325 N 
HETATM   12  C   UNL     1      40.321 -15.088   1.199  1.00  0.00     0.252 C 
HETATM   13  O   UNL     1      39.687 -16.135   1.294  1.00  0.00    -0.270 OA
HETATM   14  H   UNL     1      41.889 -13.864   1.624  1.00  0.00     0.169 HD
BRANCH  12  15
HETATM   15  C   UNL     1      39.851 -13.974   0.257  1.00  0.00     0.229 C 
HETATM   16  C   UNL     1      40.174 -14.341  -1.204  1.00  0.00     0.056 C 
HETATM   17  C   UNL     1      39.016 -15.031  -1.908  1.00  0.00     0.018 C 
HETATM   18  C   UNL     1      40.502 -12.984  -1.717  1.00  0.00    -0.018 A 
HETATM   19  C   UNL     1      40.702 -12.129  -0.644  1.00  0.00     0.076 A 
HETATM   20  C   UNL     1      40.678 -12.537  -3.015  1.00  0.00     0.010 A 
HETATM   21  O   UNL     1      40.512 -12.720   0.577  1.00  0.00    -0.335 OA
HETATM   22  C   UNL     1      41.080 -10.813  -0.813  1.00  0.00     0.037 A 
HETATM   23  C   UNL     1      41.247 -10.346  -2.118  1.00  0.00     0.003 A 
HETATM   24  C   UNL     1      41.046 -11.203  -3.212  1.00  0.00     0.001 A 
ENDBRANCH  12  15
ENDBRANCH   1  11
BRANCH   8  25
HETATM   25  C   UNL     1      43.420 -20.119   2.069  1.00  0.00     0.270 C 
HETATM   26  N   UNL     1      42.103 -20.254   1.727  1.00  0.00    -0.365 N 
HETATM   27  H   UNL     1      41.416 -19.686   2.211  1.00  0.00     0.159 HD
HETATM   28  H   UNL     1      41.835 -20.900   1.003  1.00  0.00     0.159 HD
HETATM   29  O   UNL     1      44.294 -20.776   1.514  1.00  0.00    -0.266 OA
ENDBRANCH   8  25
TORSDOF 3
ENDMDL
MODEL 6
REMARK VINA RESULT:      -8.4      4.850      8.395
REMARK  3 active torsions:
REMARK  status: ('A' for Active; 'I' for Inactive)
REMARK    1  A    between atoms: C_3  and  C_4 
REMARK       I    between atoms: C_4  and  N_5 
REMARK    2  A    between atoms: N_5  and  C_6 
REMARK    3  A    between atoms: C_13  and  C_14 
REMARK       I    between atoms: C_14  and  N_15 
ROOT
HETATM    1  C   UNL     1      42.544 -15.590   2.815  1.00  0.00     0.035 A 
HETATM    2  C   UNL     1      42.827 -16.954   2.635  1.00  0.00     0.046 A 
HETATM    3  C   UNL     1      43.398 -17.696   3.691  1.00  0.00     0.030 A 
HETATM    4  C   UNL     1      43.675 -17.050   4.887  1.00  0.00     0.063 A 
HETATM    5  N   UNL     1      44.216 -18.006   5.699  1.00  0.00    -0.277 N 
HETATM    6  H   UNL     1      44.541 -17.891   6.653  1.00  0.00     0.189 HD
HETATM    7  N   UNL     1      44.308 -19.226   5.138  1.00  0.00    -0.168 NA
HETATM    8  C   UNL     1      43.806 -19.046   3.895  1.00  0.00     0.156 A 
HETATM    9  C   UNL     1      43.410 -15.695   5.099  1.00  0.00     0.034 A 
HETATM   10  C   UNL     1      42.836 -14.981   4.038  1.00  0.00     0.032 A 
ENDROOT
BRANCH   1  11
HETATM   11  N   UNL     1      41.973 -14.914   1.720  1.00  0.00    -0.325 N 
HETATM   12  C   UNL     1      40.698 -14.385   1.607  1.00  0.00     0.252 C 
HETATM   13  O   UNL     1      39.807 -14.440   2.450  1.00  0.00    -0.270 OA
HETATM   14  H   UNL     1      42.575 -14.755   0.915  1.00  0.00     0.169 HD
BRANCH  12  15
HETATM   15  C   UNL     1      40.436 -13.759   0.232  1.00  0.00     0.229 C 
HETATM   16  C   UNL     1      39.369 -12.653   0.348  1.00  0.00     0.056 C 
HETATM   17  C   UNL     1      39.973 -11.271   0.544  1.00  0.00     0.018 C 
HETATM   18  C   UNL     1      38.680 -12.858  -0.953  1.00  0.00    -0.018 A 
HETATM   19  C   UNL     1      39.052 -14.089  -1.475  1.00  0.00     0.076 A 
HETATM   20  C   UNL     1      37.750 -12.069  -1.608  1.00  0.00     0.010 A 
HETATM   21  O   UNL     1      39.962 -14.762  -0.706  1.00  0.00    -0.335 OA
HETATM   22  C   UNL     1      38.523 -14.578  -2.651  1.00  0.00     0.037 A 
HETATM   23  C   UNL     1      37.594 -13.786  -3.327  1.00  0.00     0.003 A 
HETATM   24  C   UNL     1      37.211 -12.538  -2.809  1.00  0.00     0.001 A 
ENDBRANCH  12  15
ENDBRANCH   1  11
BRANCH   8  25
HETATM   25  C   UNL     1      43.721 -20.156   2.936  1.00  0.00     0.270 C 
HETATM   26  N   UNL     1      44.045 -21.377   3.461  1.00  0.00    -0.365 N 
HETATM   27  H   UNL     1      44.309 -21.429   4.439  1.00  0.00     0.159 HD
HETATM   28  H   UNL     1      44.009 -22.199   2.882  1.00  0.00     0.159 HD
HETATM   29  O   UNL     1      43.388 -20.034   1.762  1.00  0.00    -0.266 OA
ENDBRANCH   8  25
TORSDOF 3
ENDMDL
MODEL 7
REMARK VINA RESULT:      -8.2      1.785      3.078
REMARK  3 active torsions:
REMARK  status: ('A' for Active; 'I' for Inactive)
REMARK    1  A    between atoms: C_3  and  C_4 
REMARK       I    between atoms: C_4  and  N_5 
REMARK    2  A    between atoms: N_5  and  C_6 
REMARK    3  A    between atoms: C_13  and  C_14 
REMARK       I    between atoms: C_14  and  N_15 
ROOT
HETATM    1  C   UNL     1      43.223 -12.746   5.918  1.00  0.00     0.035 A 
HETATM    2  C   UNL     1      41.887 -12.335   5.787  1.00  0.00     0.046 A 
HETATM    3  C   UNL     1      41.450 -11.157   6.429  1.00  0.00     0.030 A 
HETATM    4  C   UNL     1      42.360 -10.432   7.185  1.00  0.00     0.063 A 
HETATM    5  N   UNL     1      41.658  -9.368   7.676  1.00  0.00    -0.277 N 
HETATM    6  H   UNL     1      42.004  -8.628   8.276  1.00  0.00     0.189 HD
HETATM    7  N   UNL     1      40.368  -9.331   7.297  1.00  0.00    -0.168 NA
HETATM    8  C   UNL     1      40.227 -10.432   6.525  1.00  0.00     0.156 A 
HETATM    9  C   UNL     1      43.695 -10.814   7.339  1.00  0.00     0.034 A 
HETATM   10  C   UNL     1      44.107 -11.984   6.687  1.00  0.00     0.032 A 
ENDROOT
BRANCH   1  11
HETATM   11  N   UNL     1      43.589 -13.929   5.248  1.00  0.00    -0.325 N 
HETATM   12  C   UNL     1      43.176 -15.225   5.506  1.00  0.00     0.252 C 
HETATM   13  O   UNL     1      42.422 -15.587   6.406  1.00  0.00    -0.270 OA
HETATM   14  H   UNL     1      44.209 -13.829   4.447  1.00  0.00     0.169 HD
BRANCH  12  15
HETATM   15  C   UNL     1      43.835 -16.254   4.580  1.00  0.00     0.229 C 
HETATM   16  C   UNL     1      42.939 -16.515   3.354  1.00  0.00     0.056 C 
HETATM   17  C   UNL     1      43.299 -15.639   2.164  1.00  0.00     0.018 C 
HETATM   18  C   UNL     1      43.212 -17.966   3.172  1.00  0.00    -0.018 A 
HETATM   19  C   UNL     1      43.819 -18.461   4.317  1.00  0.00     0.076 A 
HETATM   20  C   UNL     1      42.903 -18.810   2.119  1.00  0.00     0.010 A 
HETATM   21  O   UNL     1      44.044 -17.511   5.277  1.00  0.00    -0.335 OA
HETATM   22  C   UNL     1      44.138 -19.795   4.461  1.00  0.00     0.037 A 
HETATM   23  C   UNL     1      43.842 -20.654   3.402  1.00  0.00     0.003 A 
HETATM   24  C   UNL     1      43.229 -20.163   2.237  1.00  0.00     0.001 A 
ENDBRANCH  12  15
ENDBRANCH   1  11
BRANCH   8  25
HETATM   25  C   UNL     1      38.942 -10.767   5.896  1.00  0.00     0.270 C 
HETATM   26  N   UNL     1      38.905 -10.550   4.546  1.00  0.00    -0.365 N 
HETATM   27  H   UNL     1      39.736 -10.188   4.091  1.00  0.00     0.159 HD
HETATM   28  H   UNL     1      38.069 -10.757   4.026  1.00  0.00     0.159 HD
HETATM   29  O   UNL     1      37.969 -11.208   6.499  1.00  0.00    -0.266 OA
ENDBRANCH   8  25
TORSDOF 3
ENDMDL
MODEL 8
REMARK VINA RESULT:      -8.2      4.615      6.535
REMARK  3 active torsions:
REMARK  status: ('A' for Active; 'I' for Inactive)
REMARK    1  A    between atoms: C_3  and  C_4 
REMARK       I    between atoms: C_4  and  N_5 
REMARK    2  A    between atoms: N_5  and  C_6 
REMARK    3  A    between atoms: C_13  and  C_14 
REMARK       I    between atoms: C_14  and  N_15 
ROOT
HETATM    1  C   UNL     1      41.335 -13.273   1.698  1.00  0.00     0.035 A 
HETATM    2  C   UNL     1      40.455 -13.165   0.609  1.00  0.00     0.046 A 
HETATM    3  C   UNL     1      40.250 -11.911  -0.004  1.00  0.00     0.030 A 
HETATM    4  C   UNL     1      40.925 -10.806   0.495  1.00  0.00     0.063 A 
HETATM    5  N   UNL     1      40.528  -9.756  -0.284  1.00  0.00    -0.277 N 
HETATM    6  H   UNL     1      40.818  -8.787  -0.205  1.00  0.00     0.189 HD
HETATM    7  N   UNL     1      39.657 -10.083  -1.256  1.00  0.00    -0.168 NA
HETATM    8  C   UNL     1      39.477 -11.413  -1.093  1.00  0.00     0.156 A 
HETATM    9  C   UNL     1      41.804 -10.877   1.577  1.00  0.00     0.034 A 
HETATM   10  C   UNL     1      41.997 -12.135   2.165  1.00  0.00     0.032 A 
ENDROOT
BRANCH   1  11
HETATM   11  N   UNL     1      41.493 -14.555   2.258  1.00  0.00    -0.325 N 
HETATM   12  C   UNL     1      42.605 -15.378   2.221  1.00  0.00     0.252 C 
HETATM   13  O   UNL     1      43.668 -15.145   1.652  1.00  0.00    -0.270 OA
HETATM   14  H   UNL     1      40.708 -14.921   2.792  1.00  0.00     0.169 HD
BRANCH  12  15
HETATM   15  C   UNL     1      42.370 -16.725   2.914  1.00  0.00     0.229 C 
HETATM   16  C   UNL     1      43.273 -16.847   4.157  1.00  0.00     0.056 C 
HETATM   17  C   UNL     1      42.581 -16.395   5.434  1.00  0.00     0.018 C 
HETATM   18  C   UNL     1      43.571 -18.303   4.086  1.00  0.00    -0.018 A 
HETATM   19  C   UNL     1      43.223 -18.776   2.829  1.00  0.00     0.076 A 
HETATM   20  C   UNL     1      44.158 -19.143   5.016  1.00  0.00     0.010 A 
HETATM   21  O   UNL     1      42.672 -17.825   2.013  1.00  0.00    -0.335 OA
HETATM   22  C   UNL     1      43.442 -20.085   2.451  1.00  0.00     0.037 A 
HETATM   23  C   UNL     1      44.021 -20.945   3.384  1.00  0.00     0.003 A 
HETATM   24  C   UNL     1      44.376 -20.476   4.660  1.00  0.00     0.001 A 
ENDBRANCH  12  15
ENDBRANCH   1  11
BRANCH   8  25
HETATM   25  C   UNL     1      38.584 -12.179  -1.973  1.00  0.00     0.270 C 
HETATM   26  N   UNL     1      39.061 -12.351  -3.244  1.00  0.00    -0.365 N 
HETATM   27  H   UNL     1      39.965 -11.956  -3.479  1.00  0.00     0.159 HD
HETATM   28  H   UNL     1      38.522 -12.870  -3.917  1.00  0.00     0.159 HD
HETATM   29  O   UNL     1      37.500 -12.639  -1.631  1.00  0.00    -0.266 OA
ENDBRANCH   8  25
TORSDOF 3
ENDMDL
MODEL 9
REMARK VINA RESULT:      -8.1      5.639      7.574
REMARK  3 active torsions:
REMARK  status: ('A' for Active; 'I' for Inactive)
REMARK    1  A    between atoms: C_3  and  C_4 
REMARK       I    between atoms: C_4  and  N_5 
REMARK    2  A    between atoms: N_5  and  C_6 
REMARK    3  A    between atoms: C_13  and  C_14 
REMARK       I    between atoms: C_14  and  N_15 
ROOT
HETATM    1  C   UNL     1      39.727 -13.706  -0.047  1.00  0.00     0.035 A 
HETATM    2  C   UNL     1      39.033 -12.498   0.126  1.00  0.00     0.046 A 
HETATM    3  C   UNL     1      38.146 -12.050  -0.876  1.00  0.00     0.030 A 
HETATM    4  C   UNL     1      37.987 -12.819  -2.020  1.00  0.00     0.063 A 
HETATM    5  N   UNL     1      37.088 -12.139  -2.792  1.00  0.00    -0.277 N 
HETATM    6  H   UNL     1      36.736 -12.406  -3.705  1.00  0.00     0.189 HD
HETATM    7  N   UNL     1      36.638 -10.995  -2.245  1.00  0.00    -0.168 NA
HETATM    8  C   UNL     1      37.285 -10.929  -1.060  1.00  0.00     0.156 A 
HETATM    9  C   UNL     1      38.664 -14.023  -2.226  1.00  0.00     0.034 A 
HETATM   10  C   UNL     1      39.534 -14.451  -1.214  1.00  0.00     0.032 A 
ENDROOT
BRANCH   1  11
HETATM   11  N   UNL     1      40.593 -14.093   0.993  1.00  0.00    -0.325 N 
HETATM   12  C   UNL     1      40.367 -15.016   2.000  1.00  0.00     0.252 C 
HETATM   13  O   UNL     1      39.335 -15.654   2.189  1.00  0.00    -0.270 OA
HETATM   14  H   UNL     1      41.520 -13.674   0.996  1.00  0.00     0.169 HD
BRANCH  12  15
HETATM   15  C   UNL     1      41.544 -15.128   2.976  1.00  0.00     0.229 C 
HETATM   16  C   UNL     1      42.495 -16.257   2.533  1.00  0.00     0.056 C 
HETATM   17  C   UNL     1      43.637 -15.756   1.663  1.00  0.00     0.018 C 
HETATM   18  C   UNL     1      42.900 -16.758   3.874  1.00  0.00    -0.018 A 
HETATM   19  C   UNL     1      42.027 -16.258   4.829  1.00  0.00     0.076 A 
HETATM   20  C   UNL     1      43.909 -17.634   4.234  1.00  0.00     0.010 A 
HETATM   21  O   UNL     1      41.070 -15.422   4.318  1.00  0.00    -0.335 OA
HETATM   22  C   UNL     1      42.120 -16.602   6.161  1.00  0.00     0.037 A 
HETATM   23  C   UNL     1      43.141 -17.474   6.539  1.00  0.00     0.003 A 
HETATM   24  C   UNL     1      44.032 -17.986   5.581  1.00  0.00     0.001 A 
ENDBRANCH  12  15
ENDBRANCH   1  11
BRANCH   8  25
HETATM   25  C   UNL     1      37.070  -9.810  -0.131  1.00  0.00     0.270 C 
HETATM   26  N   UNL     1      36.522 -10.175   1.068  1.00  0.00    -0.365 N 
HETATM   27  H   UNL     1      36.314 -11.155   1.227  1.00  0.00     0.159 HD
HETATM   28  H   UNL     1      36.345  -9.479   1.773  1.00  0.00     0.159 HD
HETATM   29  O   UNL     1      37.348  -8.641  -0.377  1.00  0.00    -0.266 OA
ENDBRANCH   8  25
TORSDOF 3
ENDMDL
MODEL 10
REMARK VINA RESULT:      -8.0      1.609      2.591
REMARK  3 active torsions:
REMARK  status: ('A' for Active; 'I' for Inactive)
REMARK    1  A    between atoms: C_3  and  C_4 
REMARK       I    between atoms: C_4  and  N_5 
REMARK    2  A    between atoms: N_5  and  C_6 
REMARK    3  A    between atoms: C_13  and  C_14 
REMARK       I    between atoms: C_14  and  N_15 
ROOT
HETATM    1  C   UNL     1      41.802 -11.685   6.217  1.00  0.00     0.035 A 
HETATM    2  C   UNL     1      43.005 -11.337   6.852  1.00  0.00     0.046 A 
HETATM    3  C   UNL     1      43.202 -10.014   7.303  1.00  0.00     0.030 A 
HETATM    4  C   UNL     1      42.195  -9.082   7.099  1.00  0.00     0.063 A 
HETATM    5  N   UNL     1      42.668  -7.915   7.629  1.00  0.00    -0.277 N 
HETATM    6  H   UNL     1      42.198  -7.017   7.655  1.00  0.00     0.189 HD
HETATM    7  N   UNL     1      43.896  -8.007   8.170  1.00  0.00    -0.168 NA
HETATM    8  C   UNL     1      44.238  -9.301   7.975  1.00  0.00     0.156 A 
HETATM    9  C   UNL     1      40.988  -9.393   6.469  1.00  0.00     0.034 A 
HETATM   10  C   UNL     1      40.813 -10.715   6.035  1.00  0.00     0.032 A 
ENDROOT
BRANCH   1  11
HETATM   11  N   UNL     1      41.673 -13.021   5.795  1.00  0.00    -0.325 N 
HETATM   12  C   UNL     1      40.656 -13.594   5.050  1.00  0.00     0.252 C 
HETATM   13  O   UNL     1      39.645 -13.030   4.640  1.00  0.00    -0.270 OA
HETATM   14  H   UNL     1      42.437 -13.651   6.030  1.00  0.00     0.169 HD
BRANCH  12  15
HETATM   15  C   UNL     1      40.855 -15.098   4.829  1.00  0.00     0.229 C 
HETATM   16  C   UNL     1      42.118 -15.580   5.570  1.00  0.00     0.056 C 
HETATM   17  C   UNL     1      41.816 -16.115   6.961  1.00  0.00     0.018 C 
HETATM   18  C   UNL     1      42.584 -16.599   4.592  1.00  0.00    -0.018 A 
HETATM   19  C   UNL     1      41.923 -16.410   3.388  1.00  0.00     0.076 A 
HETATM   20  C   UNL     1      43.555 -17.578   4.715  1.00  0.00     0.010 A 
HETATM   21  O   UNL     1      41.007 -15.392   3.414  1.00  0.00    -0.335 OA
HETATM   22  C   UNL     1      42.196 -17.174   2.272  1.00  0.00     0.037 A 
HETATM   23  C   UNL     1      43.163 -18.172   2.386  1.00  0.00     0.003 A 
HETATM   24  C   UNL     1      43.839 -18.374   3.602  1.00  0.00     0.001 A 
ENDBRANCH  12  15
ENDBRANCH   1  11
BRANCH   8  25
HETATM   25  C   UNL     1      45.530  -9.830   8.431  1.00  0.00     0.270 C 
HETATM   26  N   UNL     1      46.613  -9.301   7.783  1.00  0.00    -0.365 N 
HETATM   27  H   UNL     1      46.453  -8.605   7.062  1.00  0.00     0.159 HD
HETATM   28  H   UNL     1      47.542  -9.596   8.033  1.00  0.00     0.159 HD
HETATM   29  O   UNL     1      45.663 -10.669   9.315  1.00  0.00    -0.266 OA
ENDBRANCH   8  25
TORSDOF 3
ENDMDL
