MODEL 1
REMARK VINA RESULT:      -8.6      0.000      0.000
REMARK  6 active torsions:
REMARK  status: ('A' for Active; 'I' for Inactive)
REMARK    1  A    between atoms: C_2  and  C_3 
REMARK       I    between atoms: C_3  and  N_4 
REMARK    2  A    between atoms: N_4  and  C_5 
REMARK    3  A    between atoms: C_8  and  N_9 
REMARK       I    between atoms: N_9  and  C_10 
REMARK    4  A    between atoms: C_10  and  C_11 
REMARK    5  A    between atoms: C_16  and  C_17 
REMARK    6  A    between atoms: C_23  and  C_24 
ROOT
HETATM    1  C   UNL     1      41.290 -15.742   1.946  1.00  0.00     0.148 A 
HETATM    2  N   UNL     1      40.831 -15.945   3.201  1.00  0.00    -0.165 NA
HETATM    3  N   UNL     1      41.918 -16.369   3.875  1.00  0.00    -0.240 N 
HETATM    4  C   UNL     1      43.041 -16.468   3.096  1.00  0.00     0.123 A 
HETATM    5  N   UNL     1      44.219 -16.900   3.598  1.00  0.00    -0.364 N 
HETATM    6  C   UNL     1      44.267 -17.587   4.892  1.00  0.00     0.143 C 
HETATM    7  C   UNL     1      43.269 -16.925   5.853  1.00  0.00     0.068 C 
HETATM    8  C   UNL     1      41.852 -16.842   5.248  1.00  0.00     0.221 C 
HETATM    9  C   UNL     1      42.671 -16.063   1.842  1.00  0.00     0.089 A 
HETATM   10  H   UNL     1      44.978 -17.149   2.964  1.00  0.00     0.162 HD
ENDROOT
BRANCH   1  11
HETATM   11  C   UNL     1      40.426 -15.250   0.858  1.00  0.00     0.276 C 
HETATM   12  N   UNL     1      40.826 -14.013   0.389  1.00  0.00    -0.322 N 
HETATM   13  H   UNL     1      41.667 -13.659   0.842  1.00  0.00     0.169 HD
HETATM   14  O   UNL     1      39.490 -15.924   0.439  1.00  0.00    -0.266 OA
BRANCH  12  15
HETATM   15  C   UNL     1      40.246 -13.246  -0.635  1.00  0.00     0.035 A 
HETATM   16  C   UNL     1      40.385 -13.532  -1.992  1.00  0.00     0.032 A 
HETATM   17  C   UNL     1      39.769 -12.727  -2.963  1.00  0.00     0.032 A 
HETATM   18  C   UNL     1      39.008 -11.621  -2.593  1.00  0.00     0.034 A 
HETATM   19  C   UNL     1      38.870 -11.331  -1.229  1.00  0.00     0.032 A 
HETATM   20  C   UNL     1      39.479 -12.139  -0.260  1.00  0.00     0.032 A 
BRANCH  18  21
HETATM   21  N   UNL     1      38.351 -10.769  -3.506  1.00  0.00    -0.327 N 
HETATM   22  C   UNL     1      38.838  -9.604  -4.070  1.00  0.00     0.221 C 
HETATM   23  O   UNL     1      39.939  -9.101  -3.870  1.00  0.00    -0.273 OA
HETATM   24  H   UNL     1      37.416 -11.049  -3.769  1.00  0.00     0.169 HD
BRANCH  22  25
HETATM   25  C   UNL     1      37.881  -8.968  -5.066  1.00  0.00     0.098 C 
HETATM   26  C   UNL     1      38.556  -8.489  -6.339  1.00  0.00     0.014 C 
ENDBRANCH  22  25
ENDBRANCH  18  21
ENDBRANCH  12  15
ENDBRANCH   1  11
BRANCH   8  27
HETATM   27  C   UNL     1      40.979 -15.962   6.115  1.00  0.00     0.409 C 
HETATM   28  F   UNL     1      41.001 -14.668   5.726  1.00  0.00    -0.169 F 
HETATM   29  F   UNL     1      39.692 -16.366   6.163  1.00  0.00    -0.169 F 
HETATM   30  F   UNL     1      41.429 -15.989   7.398  1.00  0.00    -0.169 F 
ENDBRANCH   8  27
BRANCH   6  31
HETATM   31  C   UNL     1      44.077 -19.069   4.822  1.00  0.00     0.075 A 
HETATM   32  O   UNL     1      44.107 -19.623   3.574  1.00  0.00    -0.325 OA
HETATM   33  C   UNL     1      43.889 -20.954   3.722  1.00  0.00     0.142 A 
HETATM   34  C   UNL     1      43.728 -21.271   5.050  1.00  0.00     0.027 A 
HETATM   35  C   UNL     1      43.850 -20.055   5.764  1.00  0.00     0.037 A 
ENDBRANCH   6  31
TORSDOF 6
ENDMDL
MODEL 2
REMARK VINA RESULT:      -8.3      2.070      2.411
REMARK  6 active torsions:
REMARK  status: ('A' for Active; 'I' for Inactive)
REMARK    1  A    between atoms: C_2  and  C_3 
REMARK       I    between atoms: C_3  and  N_4 
REMARK    2  A    between atoms: N_4  and  C_5 
REMARK    3  A    between atoms: C_8  and  N_9 
REMARK       I    between atoms: N_9  and  C_10 
REMARK    4  A    between atoms: C_10  and  C_11 
REMARK    5  A    between atoms: C_16  and  C_17 
REMARK    6  A    between atoms: C_23  and  C_24 
ROOT
HETATM    1  C   UNL     1      40.525 -14.126   2.368  1.00  0.00     0.148 A 
HETATM    2  N   UNL     1      40.242 -14.807   3.501  1.00  0.00    -0.165 NA
HETATM    3  N   UNL     1      41.398 -15.432   3.797  1.00  0.00    -0.240 N 
HETATM    4  C   UNL     1      42.396 -15.197   2.887  1.00  0.00     0.123 A 
HETATM    5  N   UNL     1      43.618 -15.761   3.012  1.00  0.00    -0.364 N 
HETATM    6  C   UNL     1      43.825 -16.890   3.922  1.00  0.00     0.143 C 
HETATM    7  C   UNL     1      42.995 -16.673   5.195  1.00  0.00     0.068 C 
HETATM    8  C   UNL     1      41.511 -16.398   4.878  1.00  0.00     0.221 C 
HETATM    9  C   UNL     1      41.865 -14.350   1.952  1.00  0.00     0.089 A 
HETATM   10  H   UNL     1      44.270 -15.729   2.228  1.00  0.00     0.162 HD
ENDROOT
BRANCH   1  11
HETATM   11  C   UNL     1      39.533 -13.275   1.687  1.00  0.00     0.276 C 
HETATM   12  N   UNL     1      39.682 -13.293   0.313  1.00  0.00    -0.322 N 
HETATM   13  H   UNL     1      40.423 -13.913  -0.007  1.00  0.00     0.169 HD
HETATM   14  O   UNL     1      38.677 -12.667   2.323  1.00  0.00    -0.266 OA
BRANCH  12  15
HETATM   15  C   UNL     1      38.920 -12.609  -0.649  1.00  0.00     0.035 A 
HETATM   16  C   UNL     1      38.818 -11.221  -0.714  1.00  0.00     0.032 A 
HETATM   17  C   UNL     1      38.044 -10.603  -1.709  1.00  0.00     0.032 A 
HETATM   18  C   UNL     1      37.356 -11.364  -2.651  1.00  0.00     0.034 A 
HETATM   19  C   UNL     1      37.456 -12.759  -2.585  1.00  0.00     0.032 A 
HETATM   20  C   UNL     1      38.235 -13.375  -1.596  1.00  0.00     0.032 A 
BRANCH  18  21
HETATM   21  N   UNL     1      36.566 -10.819  -3.686  1.00  0.00    -0.327 N 
HETATM   22  C   UNL     1      35.292 -10.291  -3.582  1.00  0.00     0.221 C 
HETATM   23  O   UNL     1      34.618 -10.206  -2.561  1.00  0.00    -0.273 OA
HETATM   24  H   UNL     1      36.986 -10.823  -4.605  1.00  0.00     0.169 HD
BRANCH  22  25
HETATM   25  C   UNL     1      34.760  -9.732  -4.893  1.00  0.00     0.098 C 
HETATM   26  C   UNL     1      34.202 -10.793  -5.826  1.00  0.00     0.014 C 
ENDBRANCH  22  25
ENDBRANCH  18  21
ENDBRANCH  12  15
ENDBRANCH   1  11
BRANCH   8  27
HETATM   27  C   UNL     1      40.799 -15.939   6.131  1.00  0.00     0.409 C 
HETATM   28  F   UNL     1      40.716 -14.593   6.217  1.00  0.00    -0.169 F 
HETATM   29  F   UNL     1      39.554 -16.446   6.256  1.00  0.00    -0.169 F 
HETATM   30  F   UNL     1      41.486 -16.355   7.229  1.00  0.00    -0.169 F 
ENDBRANCH   8  27
BRANCH   6  31
HETATM   31  C   UNL     1      43.577 -18.237   3.317  1.00  0.00     0.075 A 
HETATM   32  O   UNL     1      44.063 -19.308   4.010  1.00  0.00    -0.325 OA
HETATM   33  C   UNL     1      43.763 -20.419   3.291  1.00  0.00     0.142 A 
HETATM   34  C   UNL     1      43.081 -20.082   2.146  1.00  0.00     0.027 A 
HETATM   35  C   UNL     1      42.958 -18.672   2.161  1.00  0.00     0.037 A 
ENDBRANCH   6  31
TORSDOF 6
ENDMDL
MODEL 3
REMARK VINA RESULT:      -8.3      7.380     10.773
REMARK  6 active torsions:
REMARK  status: ('A' for Active; 'I' for Inactive)
REMARK    1  A    between atoms: C_2  and  C_3 
REMARK       I    between atoms: C_3  and  N_4 
REMARK    2  A    between atoms: N_4  and  C_5 
REMARK    3  A    between atoms: C_8  and  N_9 
REMARK       I    between atoms: N_9  and  C_10 
REMARK    4  A    between atoms: C_10  and  C_11 
REMARK    5  A    between atoms: C_16  and  C_17 
REMARK    6  A    between atoms: C_23  and  C_24 
ROOT
HETATM    1  C   UNL     1      43.967 -10.827   8.122  1.00  0.00     0.148 A 
HETATM    2  N   UNL     1      42.999  -9.901   7.939  1.00  0.00    -0.165 NA
HETATM    3  N   UNL     1      43.053  -9.154   9.059  1.00  0.00    -0.240 N 
HETATM    4  C   UNL     1      43.997  -9.581   9.956  1.00  0.00     0.123 A 
HETATM    5  N   UNL     1      44.177  -8.966  11.146  1.00  0.00    -0.364 N 
HETATM    6  C   UNL     1      43.166  -8.040  11.663  1.00  0.00     0.143 C 
HETATM    7  C   UNL     1      42.593  -7.216  10.500  1.00  0.00     0.068 C 
HETATM    8  C   UNL     1      42.083  -8.112   9.353  1.00  0.00     0.221 C 
HETATM    9  C   UNL     1      44.611 -10.660   9.377  1.00  0.00     0.089 A 
HETATM   10  H   UNL     1      44.740  -9.416  11.867  1.00  0.00     0.162 HD
ENDROOT
BRANCH   1  11
HETATM   11  C   UNL     1      44.273 -11.860   7.116  1.00  0.00     0.276 C 
HETATM   12  N   UNL     1      43.258 -12.791   6.996  1.00  0.00    -0.322 N 
HETATM   13  H   UNL     1      42.455 -12.595   7.589  1.00  0.00     0.169 HD
HETATM   14  O   UNL     1      45.316 -11.826   6.470  1.00  0.00    -0.266 OA
BRANCH  12  15
HETATM   15  C   UNL     1      43.204 -13.906   6.142  1.00  0.00     0.035 A 
HETATM   16  C   UNL     1      43.555 -15.198   6.530  1.00  0.00     0.032 A 
HETATM   17  C   UNL     1      43.469 -16.268   5.626  1.00  0.00     0.032 A 
HETATM   18  C   UNL     1      43.033 -16.063   4.319  1.00  0.00     0.034 A 
HETATM   19  C   UNL     1      42.682 -14.764   3.928  1.00  0.00     0.032 A 
HETATM   20  C   UNL     1      42.762 -13.697   4.833  1.00  0.00     0.032 A 
BRANCH  18  21
HETATM   21  N   UNL     1      42.909 -17.086   3.355  1.00  0.00    -0.327 N 
HETATM   22  C   UNL     1      43.644 -18.254   3.270  1.00  0.00     0.221 C 
HETATM   23  O   UNL     1      44.544 -18.607   4.025  1.00  0.00    -0.273 OA
HETATM   24  H   UNL     1      42.203 -16.937   2.648  1.00  0.00     0.169 HD
BRANCH  22  25
HETATM   25  C   UNL     1      43.202 -19.166   2.135  1.00  0.00     0.098 C 
HETATM   26  C   UNL     1      43.912 -20.507   2.119  1.00  0.00     0.014 C 
ENDBRANCH  22  25
ENDBRANCH  18  21
ENDBRANCH  12  15
ENDBRANCH   1  11
BRANCH   8  27
HETATM   27  C   UNL     1      41.773  -7.261   8.141  1.00  0.00     0.409 C 
HETATM   28  F   UNL     1      42.873  -6.993   7.402  1.00  0.00    -0.169 F 
HETATM   29  F   UNL     1      40.842  -7.804   7.329  1.00  0.00    -0.169 F 
HETATM   30  F   UNL     1      41.271  -6.061   8.538  1.00  0.00    -0.169 F 
ENDBRANCH   8  27
BRANCH   6  31
HETATM   31  C   UNL     1      42.087  -8.681  12.477  1.00  0.00     0.075 A 
HETATM   32  O   UNL     1      41.825  -8.108  13.689  1.00  0.00    -0.325 OA
HETATM   33  C   UNL     1      40.848  -8.845  14.277  1.00  0.00     0.142 A 
HETATM   34  C   UNL     1      40.467  -9.880  13.457  1.00  0.00     0.027 A 
HETATM   35  C   UNL     1      41.265  -9.776  12.293  1.00  0.00     0.037 A 
ENDBRANCH   6  31
TORSDOF 6
ENDMDL
MODEL 4
REMARK VINA RESULT:      -8.3      7.661     11.405
REMARK  6 active torsions:
REMARK  status: ('A' for Active; 'I' for Inactive)
REMARK    1  A    between atoms: C_2  and  C_3 
REMARK       I    between atoms: C_3  and  N_4 
REMARK    2  A    between atoms: N_4  and  C_5 
REMARK    3  A    between atoms: C_8  and  N_9 
REMARK       I    between atoms: N_9  and  C_10 
REMARK    4  A    between atoms: C_10  and  C_11 
REMARK    5  A    between atoms: C_16  and  C_17 
REMARK    6  A    between atoms: C_23  and  C_24 
ROOT
HETATM    1  C   UNL     1      43.958 -11.757   7.059  1.00  0.00     0.148 A 
HETATM    2  N   UNL     1      43.502 -13.030   7.068  1.00  0.00    -0.165 NA
HETATM    3  N   UNL     1      43.321 -13.314   5.763  1.00  0.00    -0.240 N 
HETATM    4  C   UNL     1      43.620 -12.269   4.929  1.00  0.00     0.123 A 
HETATM    5  N   UNL     1      43.476 -12.366   3.588  1.00  0.00    -0.364 N 
HETATM    6  C   UNL     1      42.693 -13.457   3.003  1.00  0.00     0.143 C 
HETATM    7  C   UNL     1      42.946 -14.745   3.800  1.00  0.00     0.068 C 
HETATM    8  C   UNL     1      42.702 -14.549   5.310  1.00  0.00     0.221 C 
HETATM    9  C   UNL     1      44.042 -11.247   5.736  1.00  0.00     0.089 A 
HETATM   10  H   UNL     1      43.515 -11.524   3.014  1.00  0.00     0.162 HD
ENDROOT
BRANCH   1  11
HETATM   11  C   UNL     1      44.309 -11.035   8.295  1.00  0.00     0.276 C 
HETATM   12  N   UNL     1      43.201 -10.484   8.912  1.00  0.00    -0.322 N 
HETATM   13  H   UNL     1      42.325 -10.696   8.439  1.00  0.00     0.169 HD
HETATM   14  O   UNL     1      45.468 -10.987   8.694  1.00  0.00    -0.266 OA
BRANCH  12  15
HETATM   15  C   UNL     1      43.155  -9.736  10.101  1.00  0.00     0.035 A 
HETATM   16  C   UNL     1      43.109  -8.344  10.139  1.00  0.00     0.032 A 
HETATM   17  C   UNL     1      43.056  -7.660  11.363  1.00  0.00     0.032 A 
HETATM   18  C   UNL     1      43.051  -8.357  12.569  1.00  0.00     0.034 A 
HETATM   19  C   UNL     1      43.099  -9.757  12.531  1.00  0.00     0.032 A 
HETATM   20  C   UNL     1      43.145 -10.439  11.308  1.00  0.00     0.032 A 
BRANCH  18  21
HETATM   21  N   UNL     1      42.990  -7.745  13.839  1.00  0.00    -0.327 N 
HETATM   22  C   UNL     1      41.864  -7.515  14.608  1.00  0.00     0.221 C 
HETATM   23  O   UNL     1      40.708  -7.806  14.316  1.00  0.00    -0.273 OA
HETATM   24  H   UNL     1      43.874  -7.438  14.219  1.00  0.00     0.169 HD
BRANCH  22  25
HETATM   25  C   UNL     1      42.171  -6.886  15.958  1.00  0.00     0.098 C 
HETATM   26  C   UNL     1      41.391  -7.498  17.108  1.00  0.00     0.014 C 
ENDBRANCH  22  25
ENDBRANCH  18  21
ENDBRANCH  12  15
ENDBRANCH   1  11
BRANCH   8  27
HETATM   27  C   UNL     1      43.209 -15.755   6.069  1.00  0.00     0.409 C 
HETATM   28  F   UNL     1      44.537 -15.694   6.311  1.00  0.00    -0.169 F 
HETATM   29  F   UNL     1      42.575 -15.953   7.244  1.00  0.00    -0.169 F 
HETATM   30  F   UNL     1      43.001 -16.881   5.335  1.00  0.00    -0.169 F 
ENDBRANCH   8  27
BRANCH   6  31
HETATM   31  C   UNL     1      41.231 -13.171   2.855  1.00  0.00     0.075 A 
HETATM   32  O   UNL     1      40.867 -11.856   2.907  1.00  0.00    -0.325 OA
HETATM   33  C   UNL     1      39.516 -11.810   2.784  1.00  0.00     0.142 A 
HETATM   34  C   UNL     1      39.002 -13.077   2.642  1.00  0.00     0.027 A 
HETATM   35  C   UNL     1      40.109 -13.959   2.687  1.00  0.00     0.037 A 
ENDBRANCH   6  31
TORSDOF 6
ENDMDL
MODEL 5
REMARK VINA RESULT:      -8.2      3.429      4.726
REMARK  6 active torsions:
REMARK  status: ('A' for Active; 'I' for Inactive)
REMARK    1  A    between atoms: C_2  and  C_3 
REMARK       I    between atoms: C_3  and  N_4 
REMARK    2  A    between atoms: N_4  and  C_5 
REMARK    3  A    between atoms: C_8  and  N_9 
REMARK       I    between atoms: N_9  and  C_10 
REMARK    4  A    between atoms: C_10  and  C_11 
REMARK    5  A    between atoms: C_16  and  C_17 
REMARK    6  A    between atoms: C_23  and  C_24 
ROOT
HETATM    1  C   UNL     1      40.280 -13.937   1.297  1.00  0.00     0.148 A 
HETATM    2  N   UNL     1      41.403 -14.679   1.424  1.00  0.00    -0.165 NA
HETATM    3  N   UNL     1      41.462 -14.950   2.742  1.00  0.00    -0.240 N 
HETATM    4  C   UNL     1      40.437 -14.392   3.461  1.00  0.00     0.123 A 
HETATM    5  N   UNL     1      40.347 -14.539   4.802  1.00  0.00    -0.364 N 
HETATM    6  C   UNL     1      41.499 -15.012   5.576  1.00  0.00     0.143 C 
HETATM    7  C   UNL     1      42.236 -16.095   4.775  1.00  0.00     0.068 C 
HETATM    8  C   UNL     1      42.598 -15.618   3.354  1.00  0.00     0.221 C 
HETATM    9  C   UNL     1      39.650 -13.734   2.555  1.00  0.00     0.089 A 
HETATM   10  H   UNL     1      39.697 -13.959   5.331  1.00  0.00     0.162 HD
ENDROOT
BRANCH   1  11
HETATM   11  C   UNL     1      39.812 -13.426  -0.004  1.00  0.00     0.276 C 
HETATM   12  N   UNL     1      38.552 -12.862   0.078  1.00  0.00    -0.322 N 
HETATM   13  H   UNL     1      38.169 -12.857   1.021  1.00  0.00     0.169 HD
HETATM   14  O   UNL     1      40.519 -13.496  -1.004  1.00  0.00    -0.266 OA
BRANCH  12  15
HETATM   15  C   UNL     1      37.798 -12.277  -0.953  1.00  0.00     0.035 A 
HETATM   16  C   UNL     1      37.336 -10.962  -0.926  1.00  0.00     0.032 A 
HETATM   17  C   UNL     1      36.593 -10.439  -1.996  1.00  0.00     0.032 A 
HETATM   18  C   UNL     1      36.298 -11.224  -3.109  1.00  0.00     0.034 A 
HETATM   19  C   UNL     1      36.760 -12.546  -3.136  1.00  0.00     0.032 A 
HETATM   20  C   UNL     1      37.507 -13.065  -2.070  1.00  0.00     0.032 A 
BRANCH  18  21
HETATM   21  N   UNL     1      35.567 -10.770  -4.227  1.00  0.00    -0.327 N 
HETATM   22  C   UNL     1      34.309 -11.177  -4.632  1.00  0.00     0.221 C 
HETATM   23  O   UNL     1      33.602 -12.016  -4.083  1.00  0.00    -0.273 OA
HETATM   24  H   UNL     1      36.025 -10.070  -4.794  1.00  0.00     0.169 HD
BRANCH  22  25
HETATM   25  C   UNL     1      33.794 -10.430  -5.853  1.00  0.00     0.098 C 
HETATM   26  C   UNL     1      32.345  -9.994  -5.734  1.00  0.00     0.014 C 
ENDBRANCH  22  25
ENDBRANCH  18  21
ENDBRANCH  12  15
ENDBRANCH   1  11
BRANCH   8  27
HETATM   27  C   UNL     1      43.082 -16.792   2.531  1.00  0.00     0.409 C 
HETATM   28  F   UNL     1      43.692 -16.407   1.388  1.00  0.00    -0.169 F 
HETATM   29  F   UNL     1      43.924 -17.606   3.203  1.00  0.00    -0.169 F 
HETATM   30  F   UNL     1      42.024 -17.564   2.165  1.00  0.00    -0.169 F 
ENDBRANCH   8  27
BRANCH   6  31
HETATM   31  C   UNL     1      42.426 -13.933   6.041  1.00  0.00     0.075 A 
HETATM   32  O   UNL     1      41.956 -12.654   5.952  1.00  0.00    -0.325 OA
HETATM   33  C   UNL     1      42.945 -11.834   6.390  1.00  0.00     0.142 A 
HETATM   34  C   UNL     1      44.044 -12.566   6.771  1.00  0.00     0.027 A 
HETATM   35  C   UNL     1      43.712 -13.923   6.547  1.00  0.00     0.037 A 
ENDBRANCH   6  31
TORSDOF 6
ENDMDL
MODEL 6
REMARK VINA RESULT:      -8.0      9.654     13.144
REMARK  6 active torsions:
REMARK  status: ('A' for Active; 'I' for Inactive)
REMARK    1  A    between atoms: C_2  and  C_3 
REMARK       I    between atoms: C_3  and  N_4 
REMARK    2  A    between atoms: N_4  and  C_5 
REMARK    3  A    between atoms: C_8  and  N_9 
REMARK       I    between atoms: N_9  and  C_10 
REMARK    4  A    between atoms: C_10  and  C_11 
REMARK    5  A    between atoms: C_16  and  C_17 
REMARK    6  A    between atoms: C_23  and  C_24 
ROOT
HETATM    1  C   UNL     1      42.159  -9.305   8.888  1.00  0.00     0.148 A 
HETATM    2  N   UNL     1      43.362  -9.916   8.795  1.00  0.00    -0.165 NA
HETATM    3  N   UNL     1      43.390 -10.379   7.529  1.00  0.00    -0.240 N 
HETATM    4  C   UNL     1      42.246 -10.110   6.824  1.00  0.00     0.123 A 
HETATM    5  N   UNL     1      42.088 -10.519   5.545  1.00  0.00    -0.364 N 
HETATM    6  C   UNL     1      42.975 -11.537   4.976  1.00  0.00     0.143 C 
HETATM    7  C   UNL     1      44.403 -11.308   5.492  1.00  0.00     0.068 C 
HETATM    8  C   UNL     1      44.457 -11.231   7.031  1.00  0.00     0.221 C 
HETATM    9  C   UNL     1      41.431  -9.411   7.672  1.00  0.00     0.089 A 
HETATM   10  H   UNL     1      41.165 -10.480   5.114  1.00  0.00     0.162 HD
ENDROOT
BRANCH   1  11
HETATM   11  C   UNL     1      41.706  -8.633  10.119  1.00  0.00     0.276 C 
HETATM   12  N   UNL     1      42.385  -9.078  11.239  1.00  0.00    -0.322 N 
HETATM   13  H   UNL     1      43.106  -9.766  11.030  1.00  0.00     0.169 HD
HETATM   14  O   UNL     1      40.842  -7.763  10.085  1.00  0.00    -0.266 OA
BRANCH  12  15
HETATM   15  C   UNL     1      42.221  -8.663  12.571  1.00  0.00     0.035 A 
HETATM   16  C   UNL     1      43.011  -7.692  13.183  1.00  0.00     0.032 A 
HETATM   17  C   UNL     1      42.787  -7.319  14.517  1.00  0.00     0.032 A 
HETATM   18  C   UNL     1      41.771  -7.915  15.262  1.00  0.00     0.034 A 
HETATM   19  C   UNL     1      40.979  -8.893  14.648  1.00  0.00     0.032 A 
HETATM   20  C   UNL     1      41.199  -9.260  13.314  1.00  0.00     0.032 A 
BRANCH  18  21
HETATM   21  N   UNL     1      41.477  -7.589  16.603  1.00  0.00    -0.327 N 
HETATM   22  C   UNL     1      40.434  -6.810  17.070  1.00  0.00     0.221 C 
HETATM   23  O   UNL     1      39.574  -6.259  16.390  1.00  0.00    -0.273 OA
HETATM   24  H   UNL     1      42.108  -7.970  17.294  1.00  0.00     0.169 HD
BRANCH  22  25
HETATM   25  C   UNL     1      40.379  -6.717  18.587  1.00  0.00     0.098 C 
HETATM   26  C   UNL     1      39.911  -7.995  19.260  1.00  0.00     0.014 C 
ENDBRANCH  22  25
ENDBRANCH  18  21
ENDBRANCH  12  15
ENDBRANCH   1  11
BRANCH   8  27
HETATM   27  C   UNL     1      45.823 -10.751   7.470  1.00  0.00     0.409 C 
HETATM   28  F   UNL     1      45.982  -9.419   7.307  1.00  0.00    -0.169 F 
HETATM   29  F   UNL     1      46.111 -11.055   8.754  1.00  0.00    -0.169 F 
HETATM   30  F   UNL     1      46.785 -11.351   6.717  1.00  0.00    -0.169 F 
ENDBRANCH   8  27
BRANCH   6  31
HETATM   31  C   UNL     1      42.526 -12.949   5.186  1.00  0.00     0.075 A 
HETATM   32  O   UNL     1      43.103 -13.891   4.384  1.00  0.00    -0.325 OA
HETATM   33  C   UNL     1      42.548 -15.086   4.708  1.00  0.00     0.142 A 
HETATM   34  C   UNL     1      41.625 -14.932   5.715  1.00  0.00     0.027 A 
HETATM   35  C   UNL     1      41.610 -13.551   6.027  1.00  0.00     0.037 A 
ENDBRANCH   6  31
TORSDOF 6
ENDMDL
MODEL 7
REMARK VINA RESULT:      -7.7     14.838     17.628
REMARK  6 active torsions:
REMARK  status: ('A' for Active; 'I' for Inactive)
REMARK    1  A    between atoms: C_2  and  C_3 
REMARK       I    between atoms: C_3  and  N_4 
REMARK    2  A    between atoms: N_4  and  C_5 
REMARK    3  A    between atoms: C_8  and  N_9 
REMARK       I    between atoms: N_9  and  C_10 
REMARK    4  A    between atoms: C_10  and  C_11 
REMARK    5  A    between atoms: C_16  and  C_17 
REMARK    6  A    between atoms: C_23  and  C_24 
ROOT
HETATM    1  C   UNL     1      40.691  -6.857  16.800  1.00  0.00     0.148 A 
HETATM    2  N   UNL     1      40.607  -7.789  17.775  1.00  0.00    -0.165 NA
HETATM    3  N   UNL     1      40.607  -7.065  18.912  1.00  0.00    -0.240 N 
HETATM    4  C   UNL     1      40.713  -5.715  18.701  1.00  0.00     0.123 A 
HETATM    5  N   UNL     1      40.753  -4.837  19.727  1.00  0.00    -0.364 N 
HETATM    6  C   UNL     1      41.016  -5.301  21.092  1.00  0.00     0.143 C 
HETATM    7  C   UNL     1      40.307  -6.644  21.315  1.00  0.00     0.068 C 
HETATM    8  C   UNL     1      40.669  -7.677  20.229  1.00  0.00     0.221 C 
HETATM    9  C   UNL     1      40.763  -5.546  17.343  1.00  0.00     0.089 A 
HETATM   10  H   UNL     1      41.027  -3.870  19.553  1.00  0.00     0.162 HD
ENDROOT
BRANCH   1  11
HETATM   11  C   UNL     1      40.705  -7.208  15.369  1.00  0.00     0.276 C 
HETATM   12  N   UNL     1      41.845  -7.904  15.011  1.00  0.00    -0.322 N 
HETATM   13  H   UNL     1      42.468  -8.092  15.794  1.00  0.00     0.169 HD
HETATM   14  O   UNL     1      39.767  -6.914  14.635  1.00  0.00    -0.266 OA
BRANCH  12  15
HETATM   15  C   UNL     1      42.195  -8.399  13.744  1.00  0.00     0.035 A 
HETATM   16  C   UNL     1      43.167  -7.823  12.928  1.00  0.00     0.032 A 
HETATM   17  C   UNL     1      43.472  -8.375  11.674  1.00  0.00     0.032 A 
HETATM   18  C   UNL     1      42.808  -9.511  11.215  1.00  0.00     0.034 A 
HETATM   19  C   UNL     1      41.830 -10.088  12.034  1.00  0.00     0.032 A 
HETATM   20  C   UNL     1      41.530  -9.540  13.288  1.00  0.00     0.032 A 
BRANCH  18  21
HETATM   21  N   UNL     1      43.064 -10.131   9.974  1.00  0.00    -0.327 N 
HETATM   22  C   UNL     1      44.263 -10.658   9.529  1.00  0.00     0.221 C 
HETATM   23  O   UNL     1      45.325 -10.678  10.142  1.00  0.00    -0.273 OA
HETATM   24  H   UNL     1      42.277 -10.187   9.343  1.00  0.00     0.169 HD
BRANCH  22  25
HETATM   25  C   UNL     1      44.164 -11.310   8.157  1.00  0.00     0.098 C 
HETATM   26  C   UNL     1      45.369 -11.048   7.271  1.00  0.00     0.014 C 
ENDBRANCH  22  25
ENDBRANCH  18  21
ENDBRANCH  12  15
ENDBRANCH   1  11
BRANCH   8  27
HETATM   27  C   UNL     1      39.757  -8.878  20.345  1.00  0.00     0.409 C 
HETATM   28  F   UNL     1      38.629  -8.746  19.612  1.00  0.00    -0.169 F 
HETATM   29  F   UNL     1      40.352 -10.039  19.995  1.00  0.00    -0.169 F 
HETATM   30  F   UNL     1      39.362  -9.034  21.637  1.00  0.00    -0.169 F 
ENDBRANCH   8  27
BRANCH   6  31
HETATM   31  C   UNL     1      42.465  -5.366  21.463  1.00  0.00     0.075 A 
HETATM   32  O   UNL     1      42.759  -6.011  22.630  1.00  0.00    -0.325 OA
HETATM   33  C   UNL     1      44.104  -5.938  22.799  1.00  0.00     0.142 A 
HETATM   34  C   UNL     1      44.685  -5.263  21.752  1.00  0.00     0.027 A 
HETATM   35  C   UNL     1      43.628  -4.893  20.886  1.00  0.00     0.037 A 
ENDBRANCH   6  31
TORSDOF 6
ENDMDL
MODEL 8
REMARK VINA RESULT:      -7.5      6.967      9.299
REMARK  6 active torsions:
REMARK  status: ('A' for Active; 'I' for Inactive)
REMARK    1  A    between atoms: C_2  and  C_3 
REMARK       I    between atoms: C_3  and  N_4 
REMARK    2  A    between atoms: N_4  and  C_5 
REMARK    3  A    between atoms: C_8  and  N_9 
REMARK       I    between atoms: N_9  and  C_10 
REMARK    4  A    between atoms: C_10  and  C_11 
REMARK    5  A    between atoms: C_16  and  C_17 
REMARK    6  A    between atoms: C_23  and  C_24 
ROOT
HETATM    1  C   UNL     1      41.312 -11.840   5.009  1.00  0.00     0.148 A 
HETATM    2  N   UNL     1      41.218 -12.057   3.677  1.00  0.00    -0.165 NA
HETATM    3  N   UNL     1      40.845 -13.349   3.588  1.00  0.00    -0.240 N 
HETATM    4  C   UNL     1      40.721 -13.968   4.805  1.00  0.00     0.123 A 
HETATM    5  N   UNL     1      40.377 -15.271   4.907  1.00  0.00    -0.364 N 
HETATM    6  C   UNL     1      40.445 -16.151   3.737  1.00  0.00     0.143 C 
HETATM    7  C   UNL     1      39.986 -15.375   2.494  1.00  0.00     0.068 C 
HETATM    8  C   UNL     1      40.758 -14.052   2.319  1.00  0.00     0.221 C 
HETATM    9  C   UNL     1      41.011 -13.017   5.746  1.00  0.00     0.089 A 
HETATM   10  H   UNL     1      40.484 -15.752   5.800  1.00  0.00     0.162 HD
ENDROOT
BRANCH   1  11
HETATM   11  C   UNL     1      41.685 -10.531   5.573  1.00  0.00     0.276 C 
HETATM   12  N   UNL     1      41.738 -10.551   6.954  1.00  0.00    -0.322 N 
HETATM   13  H   UNL     1      41.548 -11.468   7.355  1.00  0.00     0.169 HD
HETATM   14  O   UNL     1      41.937  -9.576   4.845  1.00  0.00    -0.266 OA
BRANCH  12  15
HETATM   15  C   UNL     1      42.059  -9.495   7.824  1.00  0.00     0.035 A 
HETATM   16  C   UNL     1      43.329  -8.930   7.922  1.00  0.00     0.032 A 
HETATM   17  C   UNL     1      43.578  -7.870   8.807  1.00  0.00     0.032 A 
HETATM   18  C   UNL     1      42.560  -7.360   9.611  1.00  0.00     0.034 A 
HETATM   19  C   UNL     1      41.284  -7.929   9.514  1.00  0.00     0.032 A 
HETATM   20  C   UNL     1      41.035  -8.983   8.625  1.00  0.00     0.032 A 
BRANCH  18  21
HETATM   21  N   UNL     1      42.727  -6.292  10.518  1.00  0.00    -0.327 N 
HETATM   22  C   UNL     1      42.350  -4.973  10.342  1.00  0.00     0.221 C 
HETATM   23  O   UNL     1      41.800  -4.496   9.354  1.00  0.00    -0.273 OA
HETATM   24  H   UNL     1      43.179  -6.526  11.391  1.00  0.00     0.169 HD
BRANCH  22  25
HETATM   25  C   UNL     1      42.628  -4.097  11.554  1.00  0.00     0.098 C 
HETATM   26  C   UNL     1      42.108  -4.678  12.857  1.00  0.00     0.014 C 
ENDBRANCH  22  25
ENDBRANCH  18  21
ENDBRANCH  12  15
ENDBRANCH   1  11
BRANCH   8  27
HETATM   27  C   UNL     1      40.099 -13.215   1.245  1.00  0.00     0.409 C 
HETATM   28  F   UNL     1      39.029 -12.530   1.707  1.00  0.00    -0.169 F 
HETATM   29  F   UNL     1      40.940 -12.337   0.658  1.00  0.00    -0.169 F 
HETATM   30  F   UNL     1      39.642 -14.021   0.249  1.00  0.00    -0.169 F 
ENDBRANCH   8  27
BRANCH   6  31
HETATM   31  C   UNL     1      41.772 -16.810   3.525  1.00  0.00     0.075 A 
HETATM   32  O   UNL     1      42.598 -16.865   4.611  1.00  0.00    -0.325 OA
HETATM   33  C   UNL     1      43.747 -17.467   4.209  1.00  0.00     0.142 A 
HETATM   34  C   UNL     1      43.671 -17.811   2.880  1.00  0.00     0.027 A 
HETATM   35  C   UNL     1      42.395 -17.388   2.436  1.00  0.00     0.037 A 
ENDBRANCH   6  31
TORSDOF 6
ENDMDL
MODEL 9
REMARK VINA RESULT:      -7.4     15.446     18.436
REMARK  6 active torsions:
REMARK  status: ('A' for Active; 'I' for Inactive)
REMARK    1  A    between atoms: C_2  and  C_3 
REMARK       I    between atoms: C_3  and  N_4 
REMARK    2  A    between atoms: N_4  and  C_5 
REMARK    3  A    between atoms: C_8  and  N_9 
REMARK       I    between atoms: N_9  and  C_10 
REMARK    4  A    between atoms: C_10  and  C_11 
REMARK    5  A    between atoms: C_16  and  C_17 
REMARK    6  A    between atoms: C_23  and  C_24 
ROOT
HETATM    1  C   UNL     1      44.012 -30.232   1.353  1.00  0.00     0.148 A 
HETATM    2  N   UNL     1      45.303 -30.457   1.020  1.00  0.00    -0.165 NA
HETATM    3  N   UNL     1      45.490 -29.692  -0.074  1.00  0.00    -0.240 N 
HETATM    4  C   UNL     1      44.366 -29.011  -0.464  1.00  0.00     0.123 A 
HETATM    5  N   UNL     1      44.362 -28.213  -1.555  1.00  0.00    -0.364 N 
HETATM    6  C   UNL     1      45.441 -28.300  -2.542  1.00  0.00     0.143 C 
HETATM    7  C   UNL     1      46.775 -28.526  -1.815  1.00  0.00     0.068 C 
HETATM    8  C   UNL     1      46.714 -29.733  -0.857  1.00  0.00     0.221 C 
HETATM    9  C   UNL     1      43.392 -29.333   0.442  1.00  0.00     0.089 A 
HETATM   10  H   UNL     1      43.476 -27.878  -1.932  1.00  0.00     0.162 HD
ENDROOT
BRANCH   1  11
HETATM   11  C   UNL     1      43.374 -30.865   2.521  1.00  0.00     0.276 C 
HETATM   12  N   UNL     1      42.023 -31.083   2.326  1.00  0.00    -0.322 N 
HETATM   13  H   UNL     1      41.696 -30.807   1.403  1.00  0.00     0.169 HD
HETATM   14  O   UNL     1      44.029 -31.167   3.514  1.00  0.00    -0.266 OA
BRANCH  12  15
HETATM   15  C   UNL     1      41.103 -31.664   3.216  1.00  0.00     0.035 A 
HETATM   16  C   UNL     1      40.745 -31.100   4.439  1.00  0.00     0.032 A 
HETATM   17  C   UNL     1      39.812 -31.732   5.276  1.00  0.00     0.032 A 
HETATM   18  C   UNL     1      39.225 -32.939   4.904  1.00  0.00     0.034 A 
HETATM   19  C   UNL     1      39.586 -33.507   3.676  1.00  0.00     0.032 A 
HETATM   20  C   UNL     1      40.512 -32.872   2.838  1.00  0.00     0.032 A 
BRANCH  18  21
HETATM   21  N   UNL     1      38.273 -33.630   5.683  1.00  0.00    -0.327 N 
HETATM   22  C   UNL     1      36.895 -33.549   5.595  1.00  0.00     0.221 C 
HETATM   23  O   UNL     1      36.253 -32.853   4.816  1.00  0.00    -0.273 OA
HETATM   24  H   UNL     1      38.651 -34.249   6.387  1.00  0.00     0.169 HD
BRANCH  22  25
HETATM   25  C   UNL     1      36.172 -34.484   6.553  1.00  0.00     0.098 C 
HETATM   26  C   UNL     1      36.762 -34.500   7.951  1.00  0.00     0.014 C 
ENDBRANCH  22  25
ENDBRANCH  18  21
ENDBRANCH  12  15
ENDBRANCH   1  11
BRANCH   8  27
HETATM   27  C   UNL     1      47.950 -29.754   0.015  1.00  0.00     0.409 C 
HETATM   28  F   UNL     1      48.200 -30.978   0.530  1.00  0.00    -0.169 F 
HETATM   29  F   UNL     1      49.062 -29.330  -0.622  1.00  0.00    -0.169 F 
HETATM   30  F   UNL     1      47.781 -28.916   1.073  1.00  0.00    -0.169 F 
ENDBRANCH   8  27
BRANCH   6  31
HETATM   31  C   UNL     1      45.219 -29.306  -3.627  1.00  0.00     0.075 A 
HETATM   32  O   UNL     1      46.249 -30.170  -3.868  1.00  0.00    -0.325 OA
HETATM   33  C   UNL     1      45.866 -30.974  -4.892  1.00  0.00     0.142 A 
HETATM   34  C   UNL     1      44.598 -30.648  -5.311  1.00  0.00     0.027 A 
HETATM   35  C   UNL     1      44.177 -29.572  -4.494  1.00  0.00     0.037 A 
ENDBRANCH   6  31
TORSDOF 6
ENDMDL
MODEL 10
REMARK VINA RESULT:      -7.4     15.209     17.209
REMARK  6 active torsions:
REMARK  status: ('A' for Active; 'I' for Inactive)
REMARK    1  A    between atoms: C_2  and  C_3 
REMARK       I    between atoms: C_3  and  N_4 
REMARK    2  A    between atoms: N_4  and  C_5 
REMARK    3  A    between atoms: C_8  and  N_9 
REMARK       I    between atoms: N_9  and  C_10 
REMARK    4  A    between atoms: C_10  and  C_11 
REMARK    5  A    between atoms: C_16  and  C_17 
REMARK    6  A    between atoms: C_23  and  C_24 
ROOT
HETATM    1  C   UNL     1      45.953 -28.854  -1.987  1.00  0.00     0.148 A 
HETATM    2  N   UNL     1      45.313 -29.551  -1.021  1.00  0.00    -0.165 NA
HETATM    3  N   UNL     1      45.923 -29.158   0.115  1.00  0.00    -0.240 N 
HETATM    4  C   UNL     1      46.938 -28.261  -0.091  1.00  0.00     0.123 A 
HETATM    5  N   UNL     1      47.676 -27.776   0.933  1.00  0.00    -0.364 N 
HETATM    6  C   UNL     1      47.644 -28.427   2.245  1.00  0.00     0.143 C 
HETATM    7  C   UNL     1      46.213 -28.896   2.542  1.00  0.00     0.068 C 
HETATM    8  C   UNL     1      45.641 -29.767   1.405  1.00  0.00     0.221 C 
HETATM    9  C   UNL     1      46.981 -28.038  -1.441  1.00  0.00     0.089 A 
HETATM   10  H   UNL     1      48.540 -27.271   0.737  1.00  0.00     0.162 HD
ENDROOT
BRANCH   1  11
HETATM   11  C   UNL     1      45.594 -28.965  -3.412  1.00  0.00     0.276 C 
HETATM   12  N   UNL     1      45.555 -30.279  -3.841  1.00  0.00    -0.322 N 
HETATM   13  H   UNL     1      45.743 -30.953  -3.103  1.00  0.00     0.169 HD
HETATM   14  O   UNL     1      45.341 -27.968  -4.081  1.00  0.00    -0.266 OA
BRANCH  12  15
HETATM   15  C   UNL     1      45.249 -30.760  -5.125  1.00  0.00     0.035 A 
HETATM   16  C   UNL     1      46.108 -31.559  -5.879  1.00  0.00     0.032 A 
HETATM   17  C   UNL     1      45.734 -32.012  -7.153  1.00  0.00     0.032 A 
HETATM   18  C   UNL     1      44.498 -31.671  -7.696  1.00  0.00     0.034 A 
HETATM   19  C   UNL     1      43.635 -30.867  -6.940  1.00  0.00     0.032 A 
HETATM   20  C   UNL     1      44.006 -30.420  -5.665  1.00  0.00     0.032 A 
BRANCH  18  21
HETATM   21  N   UNL     1      44.045 -32.094  -8.964  1.00  0.00    -0.327 N 
HETATM   22  C   UNL     1      43.153 -33.114  -9.242  1.00  0.00     0.221 C 
HETATM   23  O   UNL     1      42.594 -33.837  -8.424  1.00  0.00    -0.273 OA
HETATM   24  H   UNL     1      44.426 -31.592  -9.754  1.00  0.00     0.169 HD
BRANCH  22  25
HETATM   25  C   UNL     1      42.840 -33.258 -10.723  1.00  0.00     0.098 C 
HETATM   26  C   UNL     1      41.393 -33.618 -11.009  1.00  0.00     0.014 C 
ENDBRANCH  22  25
ENDBRANCH  18  21
ENDBRANCH  12  15
ENDBRANCH   1  11
BRANCH   8  27
HETATM   27  C   UNL     1      44.160 -29.983   1.624  1.00  0.00     0.409 C 
HETATM   28  F   UNL     1      43.725 -31.155   1.110  1.00  0.00    -0.169 F 
HETATM   29  F   UNL     1      43.798 -29.933   2.924  1.00  0.00    -0.169 F 
HETATM   30  F   UNL     1      43.455 -29.001   1.000  1.00  0.00    -0.169 F 
ENDBRANCH   8  27
BRANCH   6  31
HETATM   31  C   UNL     1      48.641 -29.530   2.422  1.00  0.00     0.075 A 
HETATM   32  O   UNL     1      48.932 -29.878   3.710  1.00  0.00    -0.325 OA
HETATM   33  C   UNL     1      49.865 -30.863   3.656  1.00  0.00     0.142 A 
HETATM   34  C   UNL     1      50.173 -31.164   2.351  1.00  0.00     0.027 A 
HETATM   35  C   UNL     1      49.383 -30.304   1.551  1.00  0.00     0.037 A 
ENDBRANCH   6  31
TORSDOF 6
ENDMDL
