MODEL 1
REMARK VINA RESULT:      -8.9      0.000      0.000
REMARK  9 active torsions:
REMARK  status: ('A' for Active; 'I' for Inactive)
REMARK    1  A    between atoms: C_2  and  O_3 
REMARK    2  A    between atoms: O_3  and  C_4 
REMARK    3  A    between atoms: C_4  and  C_5 
REMARK    4  A    between atoms: C_8  and  N_9 
REMARK       I    between atoms: N_9  and  C_10 
REMARK    5  A    between atoms: C_10  and  C_11 
REMARK    6  A    between atoms: C_11  and  C_12 
REMARK    7  A    between atoms: N_13  and  C_14 
REMARK    8  A    between atoms: C_14  and  C_15 
REMARK    9  A    between atoms: N_23  and  C_24 
ROOT
HETATM    1  C   UNL     1      41.520 -13.058   1.515  1.00  0.00     0.191 C 
HETATM    2  N   UNL     1      40.725 -14.058   0.831  1.00  0.00    -0.315 N 
HETATM    3  C   UNL     1      40.876 -15.302   1.451  1.00  0.00     0.333 C 
HETATM    4  O   UNL     1      40.055 -16.199   1.328  1.00  0.00    -0.246 OA
HETATM    5  N   UNL     1      42.036 -15.269   2.202  1.00  0.00    -0.232 N 
HETATM    6  C   UNL     1      42.540 -13.983   2.178  1.00  0.00     0.256 C 
HETATM    7  O   UNL     1      43.591 -13.551   2.634  1.00  0.00    -0.270 OA
ENDROOT
BRANCH   1   8
HETATM    8  C   UNL     1      40.700 -12.327   2.574  1.00  0.00     0.138 C 
BRANCH   8   9
HETATM    9  C   UNL     1      41.534 -11.400   3.432  1.00  0.00     0.224 C 
HETATM   10  N   UNL     1      41.770 -11.893   4.705  1.00  0.00    -0.327 N 
HETATM   11  H   UNL     1      41.329 -12.766   4.960  1.00  0.00     0.169 HD
HETATM   12  O   UNL     1      41.965 -10.355   2.960  1.00  0.00    -0.273 OA
BRANCH  10  13
HETATM   13  C   UNL     1      42.650 -11.355   5.671  1.00  0.00     0.034 A 
HETATM   14  C   UNL     1      42.307 -10.335   6.563  1.00  0.00     0.030 A 
HETATM   15  C   UNL     1      43.250  -9.822   7.466  1.00  0.00     0.020 A 
HETATM   16  C   UNL     1      44.554 -10.327   7.491  1.00  0.00     0.039 A 
HETATM   17  C   UNL     1      44.900 -11.354   6.605  1.00  0.00     0.020 A 
HETATM   18  C   UNL     1      43.955 -11.863   5.704  1.00  0.00     0.030 A 
BRANCH  16  19
HETATM   19  C   UNL     1      45.594  -9.820   8.428  1.00  0.00     0.293 C 
HETATM   20  O   UNL     1      46.319  -8.872   8.174  1.00  0.00    -0.259 OA
BRANCH  19  21
HETATM   21  O   UNL     1      45.611 -10.555   9.568  1.00  0.00    -0.318 OA
BRANCH  21  22
HETATM   22  C   UNL     1      45.042  -9.928  10.728  1.00  0.00     0.174 C 
HETATM   23  C   UNL     1      43.766 -10.635  11.142  1.00  0.00     0.034 C 
ENDBRANCH  21  22
ENDBRANCH  19  21
ENDBRANCH  16  19
ENDBRANCH  10  13
ENDBRANCH   8   9
ENDBRANCH   1   8
BRANCH   2  24
HETATM   24  C   UNL     1      39.563 -13.719   0.029  1.00  0.00     0.168 C 
BRANCH  24  25
HETATM   25  C   UNL     1      39.896 -12.859  -1.158  1.00  0.00    -0.023 A 
HETATM   26  C   UNL     1      40.547 -13.381  -2.271  1.00  0.00     0.125 A 
HETATM   27  N   UNL     1      40.867 -12.664  -3.372  1.00  0.00    -0.273 NA
HETATM   28  C   UNL     1      40.502 -11.363  -3.376  1.00  0.00     0.116 A 
HETATM   29  C   UNL     1      39.843 -10.747  -2.328  1.00  0.00     0.020 A 
HETATM   30  C   UNL     1      39.540 -11.508  -1.204  1.00  0.00     0.012 A 
ENDBRANCH  24  25
ENDBRANCH   2  24
BRANCH   5  31
HETATM   31  C   UNL     1      42.622 -16.391   2.872  1.00  0.00     0.047 A 
HETATM   32  C   UNL     1      42.682 -16.466   4.274  1.00  0.00     0.031 A 
HETATM   33  C   UNL     1      43.250 -17.564   4.937  1.00  0.00     0.009 A 
HETATM   34  C   UNL     1      43.777 -18.632   4.216  1.00  0.00    -0.062 A 
HETATM   35  C   UNL     1      44.367 -19.822   4.912  1.00  0.00     0.048 C 
HETATM   36  C   UNL     1      43.721 -18.585   2.824  1.00  0.00     0.009 A 
HETATM   37  C   UNL     1      43.157 -17.480   2.166  1.00  0.00     0.031 A 
ENDBRANCH   5  31
TORSDOF 9
ENDMDL
MODEL 2
REMARK VINA RESULT:      -8.4      1.446      2.049
REMARK  9 active torsions:
REMARK  status: ('A' for Active; 'I' for Inactive)
REMARK    1  A    between atoms: C_2  and  O_3 
REMARK    2  A    between atoms: O_3  and  C_4 
REMARK    3  A    between atoms: C_4  and  C_5 
REMARK    4  A    between atoms: C_8  and  N_9 
REMARK       I    between atoms: N_9  and  C_10 
REMARK    5  A    between atoms: C_10  and  C_11 
REMARK    6  A    between atoms: C_11  and  C_12 
REMARK    7  A    between atoms: N_13  and  C_14 
REMARK    8  A    between atoms: C_14  and  C_15 
REMARK    9  A    between atoms: N_23  and  C_24 
ROOT
HETATM    1  C   UNL     1      41.456 -13.079   2.835  1.00  0.00     0.191 C 
HETATM    2  N   UNL     1      40.817 -13.917   1.840  1.00  0.00    -0.315 N 
HETATM    3  C   UNL     1      41.001 -15.266   2.155  1.00  0.00     0.333 C 
HETATM    4  O   UNL     1      40.271 -16.146   1.721  1.00  0.00    -0.246 OA
HETATM    5  N   UNL     1      42.070 -15.362   3.026  1.00  0.00    -0.232 N 
HETATM    6  C   UNL     1      42.471 -14.087   3.373  1.00  0.00     0.256 C 
HETATM    7  O   UNL     1      43.431 -13.728   4.043  1.00  0.00    -0.270 OA
ENDROOT
BRANCH   1   8
HETATM    8  C   UNL     1      40.474 -12.677   3.932  1.00  0.00     0.138 C 
BRANCH   8   9
HETATM    9  C   UNL     1      41.133 -12.520   5.286  1.00  0.00     0.224 C 
HETATM   10  N   UNL     1      42.066 -11.497   5.328  1.00  0.00    -0.327 N 
HETATM   11  H   UNL     1      42.263 -11.005   4.466  1.00  0.00     0.169 HD
HETATM   12  O   UNL     1      40.786 -13.232   6.220  1.00  0.00    -0.273 OA
BRANCH  10  13
HETATM   13  C   UNL     1      42.715 -10.987   6.476  1.00  0.00     0.034 A 
HETATM   14  C   UNL     1      43.922 -11.481   6.978  1.00  0.00     0.030 A 
HETATM   15  C   UNL     1      44.482 -10.952   8.149  1.00  0.00     0.020 A 
HETATM   16  C   UNL     1      43.842  -9.916   8.836  1.00  0.00     0.039 A 
HETATM   17  C   UNL     1      42.637  -9.413   8.333  1.00  0.00     0.020 A 
HETATM   18  C   UNL     1      42.080  -9.944   7.163  1.00  0.00     0.030 A 
BRANCH  16  19
HETATM   19  C   UNL     1      44.393  -9.317  10.084  1.00  0.00     0.293 C 
HETATM   20  O   UNL     1      45.531  -9.519  10.477  1.00  0.00    -0.259 OA
BRANCH  19  21
HETATM   21  O   UNL     1      43.463  -8.543  10.695  1.00  0.00    -0.318 OA
BRANCH  21  22
HETATM   22  C   UNL     1      43.494  -8.540  12.130  1.00  0.00     0.174 C 
HETATM   23  C   UNL     1      42.560  -9.598  12.685  1.00  0.00     0.034 C 
ENDBRANCH  21  22
ENDBRANCH  19  21
ENDBRANCH  16  19
ENDBRANCH  10  13
ENDBRANCH   8   9
ENDBRANCH   1   8
BRANCH   2  24
HETATM   24  C   UNL     1      39.722 -13.448   1.009  1.00  0.00     0.168 C 
BRANCH  24  25
HETATM   25  C   UNL     1      40.124 -13.215  -0.420  1.00  0.00    -0.023 A 
HETATM   26  C   UNL     1      40.890 -12.112  -0.787  1.00  0.00     0.125 A 
HETATM   27  N   UNL     1      41.290 -11.850  -2.052  1.00  0.00    -0.273 NA
HETATM   28  C   UNL     1      40.929 -12.742  -3.000  1.00  0.00     0.116 A 
HETATM   29  C   UNL     1      40.178 -13.875  -2.743  1.00  0.00     0.020 A 
HETATM   30  C   UNL     1      39.769 -14.110  -1.434  1.00  0.00     0.012 A 
ENDBRANCH  24  25
ENDBRANCH   2  24
BRANCH   5  31
HETATM   31  C   UNL     1      42.670 -16.585   3.470  1.00  0.00     0.047 A 
HETATM   32  C   UNL     1      43.181 -17.529   2.564  1.00  0.00     0.031 A 
HETATM   33  C   UNL     1      43.774 -18.726   2.991  1.00  0.00     0.009 A 
HETATM   34  C   UNL     1      43.880 -19.019   4.348  1.00  0.00    -0.062 A 
HETATM   35  C   UNL     1      44.531 -20.284   4.821  1.00  0.00     0.048 C 
HETATM   36  C   UNL     1      43.388 -18.093   5.267  1.00  0.00     0.009 A 
HETATM   37  C   UNL     1      42.789 -16.900   4.833  1.00  0.00     0.031 A 
ENDBRANCH   5  31
TORSDOF 9
ENDMDL
MODEL 3
REMARK VINA RESULT:      -8.4      2.330      8.867
REMARK  9 active torsions:
REMARK  status: ('A' for Active; 'I' for Inactive)
REMARK    1  A    between atoms: C_2  and  O_3 
REMARK    2  A    between atoms: O_3  and  C_4 
REMARK    3  A    between atoms: C_4  and  C_5 
REMARK    4  A    between atoms: C_8  and  N_9 
REMARK       I    between atoms: N_9  and  C_10 
REMARK    5  A    between atoms: C_10  and  C_11 
REMARK    6  A    between atoms: C_11  and  C_12 
REMARK    7  A    between atoms: N_13  and  C_14 
REMARK    8  A    between atoms: C_14  and  C_15 
REMARK    9  A    between atoms: N_23  and  C_24 
ROOT
HETATM    1  C   UNL     1      41.827 -11.180   5.878  1.00  0.00     0.191 C 
HETATM    2  N   UNL     1      43.022 -11.247   6.696  1.00  0.00    -0.315 N 
HETATM    3  C   UNL     1      43.753 -12.398   6.389  1.00  0.00     0.333 C 
HETATM    4  O   UNL     1      44.945 -12.503   6.636  1.00  0.00    -0.246 OA
HETATM    5  N   UNL     1      42.905 -13.289   5.758  1.00  0.00    -0.232 N 
HETATM    6  C   UNL     1      41.693 -12.664   5.537  1.00  0.00     0.256 C 
HETATM    7  O   UNL     1      40.650 -13.124   5.092  1.00  0.00    -0.270 OA
ENDROOT
BRANCH   1   8
HETATM    8  C   UNL     1      42.067 -10.363   4.612  1.00  0.00     0.138 C 
BRANCH   8   9
HETATM    9  C   UNL     1      42.181 -11.220   3.369  1.00  0.00     0.224 C 
HETATM   10  N   UNL     1      40.957 -11.523   2.795  1.00  0.00    -0.327 N 
HETATM   11  H   UNL     1      40.123 -11.209   3.274  1.00  0.00     0.169 HD
HETATM   12  O   UNL     1      43.286 -11.534   2.944  1.00  0.00    -0.273 OA
BRANCH  10  13
HETATM   13  C   UNL     1      40.739 -12.146   1.545  1.00  0.00     0.034 A 
HETATM   14  C   UNL     1      40.487 -13.511   1.383  1.00  0.00     0.030 A 
HETATM   15  C   UNL     1      40.323 -14.064   0.105  1.00  0.00     0.020 A 
HETATM   16  C   UNL     1      40.406 -13.256  -1.033  1.00  0.00     0.039 A 
HETATM   17  C   UNL     1      40.651 -11.887  -0.875  1.00  0.00     0.020 A 
HETATM   18  C   UNL     1      40.814 -11.338   0.403  1.00  0.00     0.030 A 
BRANCH  16  19
HETATM   19  C   UNL     1      40.240 -13.791  -2.413  1.00  0.00     0.293 C 
HETATM   20  O   UNL     1      40.871 -13.377  -3.372  1.00  0.00    -0.259 OA
BRANCH  19  21
HETATM   21  O   UNL     1      39.306 -14.774  -2.436  1.00  0.00    -0.318 OA
BRANCH  21  22
HETATM   22  C   UNL     1      38.191 -14.560  -3.316  1.00  0.00     0.174 C 
HETATM   23  C   UNL     1      37.303 -13.450  -2.788  1.00  0.00     0.034 C 
ENDBRANCH  21  22
ENDBRANCH  19  21
ENDBRANCH  16  19
ENDBRANCH  10  13
ENDBRANCH   8   9
ENDBRANCH   1   8
BRANCH   2  24
HETATM   24  C   UNL     1      43.628 -10.069   7.292  1.00  0.00     0.168 C 
BRANCH  24  25
HETATM   25  C   UNL     1      43.365  -9.954   8.767  1.00  0.00    -0.023 A 
HETATM   26  C   UNL     1      42.210  -9.349   9.252  1.00  0.00     0.125 A 
HETATM   27  N   UNL     1      41.911  -9.221  10.565  1.00  0.00    -0.273 NA
HETATM   28  C   UNL     1      42.798  -9.740  11.442  1.00  0.00     0.116 A 
HETATM   29  C   UNL     1      43.970 -10.370  11.068  1.00  0.00     0.020 A 
HETATM   30  C   UNL     1      44.256 -10.474   9.710  1.00  0.00     0.012 A 
ENDBRANCH  24  25
ENDBRANCH   2  24
BRANCH   5  31
HETATM   31  C   UNL     1      43.230 -14.642   5.415  1.00  0.00     0.047 A 
HETATM   32  C   UNL     1      43.085 -15.127   4.104  1.00  0.00     0.031 A 
HETATM   33  C   UNL     1      43.407 -16.448   3.759  1.00  0.00     0.009 A 
HETATM   34  C   UNL     1      43.889 -17.333   4.720  1.00  0.00    -0.062 A 
HETATM   35  C   UNL     1      44.256 -18.742   4.361  1.00  0.00     0.048 C 
HETATM   36  C   UNL     1      44.049 -16.872   6.026  1.00  0.00     0.009 A 
HETATM   37  C   UNL     1      43.720 -15.550   6.366  1.00  0.00     0.031 A 
ENDBRANCH   5  31
TORSDOF 9
ENDMDL
MODEL 4
REMARK VINA RESULT:      -8.2      3.509      7.113
REMARK  9 active torsions:
REMARK  status: ('A' for Active; 'I' for Inactive)
REMARK    1  A    between atoms: C_2  and  O_3 
REMARK    2  A    between atoms: O_3  and  C_4 
REMARK    3  A    between atoms: C_4  and  C_5 
REMARK    4  A    between atoms: C_8  and  N_9 
REMARK       I    between atoms: N_9  and  C_10 
REMARK    5  A    between atoms: C_10  and  C_11 
REMARK    6  A    between atoms: C_11  and  C_12 
REMARK    7  A    between atoms: N_13  and  C_14 
REMARK    8  A    between atoms: C_14  and  C_15 
REMARK    9  A    between atoms: N_23  and  C_24 
ROOT
HETATM    1  C   UNL     1      41.271 -16.322   3.742  1.00  0.00     0.191 C 
HETATM    2  N   UNL     1      42.566 -16.325   3.092  1.00  0.00    -0.315 N 
HETATM    3  C   UNL     1      42.621 -15.321   2.121  1.00  0.00     0.333 C 
HETATM    4  O   UNL     1      43.678 -14.864   1.710  1.00  0.00    -0.246 OA
HETATM    5  N   UNL     1      41.325 -14.964   1.797  1.00  0.00    -0.232 N 
HETATM    6  C   UNL     1      40.461 -15.626   2.648  1.00  0.00     0.256 C 
HETATM    7  O   UNL     1      39.238 -15.661   2.641  1.00  0.00    -0.270 OA
ENDROOT
BRANCH   1   8
HETATM    8  C   UNL     1      41.290 -15.472   5.010  1.00  0.00     0.138 C 
BRANCH   8   9
HETATM    9  C   UNL     1      41.116 -13.995   4.733  1.00  0.00     0.224 C 
HETATM   10  N   UNL     1      39.793 -13.585   4.745  1.00  0.00    -0.327 N 
HETATM   11  H   UNL     1      39.082 -14.294   4.870  1.00  0.00     0.169 HD
HETATM   12  O   UNL     1      42.101 -13.283   4.574  1.00  0.00    -0.273 OA
BRANCH  10  13
HETATM   13  C   UNL     1      39.317 -12.254   4.699  1.00  0.00     0.034 A 
HETATM   14  C   UNL     1      39.128 -11.530   3.518  1.00  0.00     0.030 A 
HETATM   15  C   UNL     1      38.694 -10.197   3.555  1.00  0.00     0.020 A 
HETATM   16  C   UNL     1      38.438  -9.569   4.778  1.00  0.00     0.039 A 
HETATM   17  C   UNL     1      38.618 -10.293   5.963  1.00  0.00     0.020 A 
HETATM   18  C   UNL     1      39.053 -11.624   5.922  1.00  0.00     0.030 A 
BRANCH  16  19
HETATM   19  C   UNL     1      37.975  -8.157   4.875  1.00  0.00     0.293 C 
HETATM   20  O   UNL     1      36.938  -7.829   5.430  1.00  0.00    -0.259 OA
BRANCH  19  21
HETATM   21  O   UNL     1      38.854  -7.322   4.268  1.00  0.00    -0.318 OA
BRANCH  21  22
HETATM   22  C   UNL     1      39.928  -6.837   5.088  1.00  0.00     0.174 C 
HETATM   23  C   UNL     1      41.267  -7.247   4.506  1.00  0.00     0.034 C 
ENDBRANCH  21  22
ENDBRANCH  19  21
ENDBRANCH  16  19
ENDBRANCH  10  13
ENDBRANCH   8   9
ENDBRANCH   1   8
BRANCH   2  24
HETATM   24  C   UNL     1      43.755 -16.875   3.719  1.00  0.00     0.168 C 
BRANCH  24  25
HETATM   25  C   UNL     1      43.818 -18.374   3.652  1.00  0.00    -0.023 A 
HETATM   26  C   UNL     1      44.155 -19.136   4.767  1.00  0.00     0.125 A 
HETATM   27  N   UNL     1      44.221 -20.487   4.775  1.00  0.00    -0.273 NA
HETATM   28  C   UNL     1      43.915 -21.116   3.619  1.00  0.00     0.116 A 
HETATM   29  C   UNL     1      43.557 -20.457   2.457  1.00  0.00     0.020 A 
HETATM   30  C   UNL     1      43.512 -19.067   2.477  1.00  0.00     0.012 A 
ENDBRANCH  24  25
ENDBRANCH   2  24
BRANCH   5  31
HETATM   31  C   UNL     1      40.950 -14.074   0.740  1.00  0.00     0.047 A 
HETATM   32  C   UNL     1      41.234 -12.699   0.796  1.00  0.00     0.031 A 
HETATM   33  C   UNL     1      40.874 -11.822  -0.239  1.00  0.00     0.009 A 
HETATM   34  C   UNL     1      40.216 -12.295  -1.371  1.00  0.00    -0.062 A 
HETATM   35  C   UNL     1      39.845 -11.373  -2.493  1.00  0.00     0.048 C 
HETATM   36  C   UNL     1      39.931 -13.657  -1.453  1.00  0.00     0.009 A 
HETATM   37  C   UNL     1      40.288 -14.529  -0.412  1.00  0.00     0.031 A 
ENDBRANCH   5  31
TORSDOF 9
ENDMDL
MODEL 5
REMARK VINA RESULT:      -8.2      3.896      6.692
REMARK  9 active torsions:
REMARK  status: ('A' for Active; 'I' for Inactive)
REMARK    1  A    between atoms: C_2  and  O_3 
REMARK    2  A    between atoms: O_3  and  C_4 
REMARK    3  A    between atoms: C_4  and  C_5 
REMARK    4  A    between atoms: C_8  and  N_9 
REMARK       I    between atoms: N_9  and  C_10 
REMARK    5  A    between atoms: C_10  and  C_11 
REMARK    6  A    between atoms: C_11  and  C_12 
REMARK    7  A    between atoms: N_13  and  C_14 
REMARK    8  A    between atoms: C_14  and  C_15 
REMARK    9  A    between atoms: N_23  and  C_24 
ROOT
HETATM    1  C   UNL     1      41.047 -12.584   6.322  1.00  0.00     0.191 C 
HETATM    2  N   UNL     1      42.305 -12.133   5.761  1.00  0.00    -0.315 N 
HETATM    3  C   UNL     1      42.741 -13.024   4.775  1.00  0.00     0.333 C 
HETATM    4  O   UNL     1      43.535 -12.700   3.905  1.00  0.00    -0.246 OA
HETATM    5  N   UNL     1      42.090 -14.228   4.967  1.00  0.00    -0.232 N 
HETATM    6  C   UNL     1      41.150 -14.067   5.966  1.00  0.00     0.256 C 
HETATM    7  O   UNL     1      40.431 -14.902   6.501  1.00  0.00    -0.270 OA
ENDROOT
BRANCH   1   8
HETATM    8  C   UNL     1      39.861 -11.947   5.604  1.00  0.00     0.138 C 
BRANCH   8   9
HETATM    9  C   UNL     1      39.129 -10.933   6.457  1.00  0.00     0.224 C 
HETATM   10  N   UNL     1      39.839 -10.544   7.580  1.00  0.00    -0.327 N 
HETATM   11  H   UNL     1      40.724 -11.001   7.759  1.00  0.00     0.169 HD
HETATM   12  O   UNL     1      38.038 -10.507   6.097  1.00  0.00    -0.273 OA
BRANCH  10  13
HETATM   13  C   UNL     1      39.511  -9.495   8.469  1.00  0.00     0.034 A 
HETATM   14  C   UNL     1      39.329  -8.165   8.080  1.00  0.00     0.030 A 
HETATM   15  C   UNL     1      39.048  -7.171   9.028  1.00  0.00     0.020 A 
HETATM   16  C   UNL     1      38.940  -7.495  10.384  1.00  0.00     0.039 A 
HETATM   17  C   UNL     1      39.114  -8.827  10.778  1.00  0.00     0.020 A 
HETATM   18  C   UNL     1      39.396  -9.817   9.828  1.00  0.00     0.030 A 
BRANCH  16  19
HETATM   19  C   UNL     1      38.643  -6.479  11.432  1.00  0.00     0.293 C 
HETATM   20  O   UNL     1      37.704  -6.572  12.206  1.00  0.00    -0.259 OA
BRANCH  19  21
HETATM   21  O   UNL     1      39.546  -5.469  11.390  1.00  0.00    -0.318 OA
BRANCH  21  22
HETATM   22  C   UNL     1      40.426  -5.366  12.520  1.00  0.00     0.174 C 
HETATM   23  C   UNL     1      41.701  -6.149  12.274  1.00  0.00     0.034 C 
ENDBRANCH  21  22
ENDBRANCH  19  21
ENDBRANCH  16  19
ENDBRANCH  10  13
ENDBRANCH   8   9
ENDBRANCH   1   8
BRANCH   2  24
HETATM   24  C   UNL     1      42.728 -10.744   5.804  1.00  0.00     0.168 C 
BRANCH  24  25
HETATM   25  C   UNL     1      43.495 -10.400   7.049  1.00  0.00    -0.023 A 
HETATM   26  C   UNL     1      44.570 -11.174   7.475  1.00  0.00     0.125 A 
HETATM   27  N   UNL     1      45.305 -10.913   8.581  1.00  0.00    -0.273 NA
HETATM   28  C   UNL     1      44.968  -9.813   9.288  1.00  0.00     0.116 A 
HETATM   29  C   UNL     1      43.925  -8.970   8.948  1.00  0.00     0.020 A 
HETATM   30  C   UNL     1      43.179  -9.273   7.814  1.00  0.00     0.012 A 
ENDBRANCH  24  25
ENDBRANCH   2  24
BRANCH   5  31
HETATM   31  C   UNL     1      42.366 -15.442   4.258  1.00  0.00     0.047 A 
HETATM   32  C   UNL     1      43.344 -16.349   4.700  1.00  0.00     0.031 A 
HETATM   33  C   UNL     1      43.617 -17.542   4.014  1.00  0.00     0.009 A 
HETATM   34  C   UNL     1      42.915 -17.870   2.858  1.00  0.00    -0.062 A 
HETATM   35  C   UNL     1      43.181 -19.152   2.127  1.00  0.00     0.048 C 
HETATM   36  C   UNL     1      41.934 -16.990   2.404  1.00  0.00     0.009 A 
HETATM   37  C   UNL     1      41.670 -15.794   3.092  1.00  0.00     0.031 A 
ENDBRANCH   5  31
TORSDOF 9
ENDMDL
MODEL 6
REMARK VINA RESULT:      -8.1      2.802      8.190
REMARK  9 active torsions:
REMARK  status: ('A' for Active; 'I' for Inactive)
REMARK    1  A    between atoms: C_2  and  O_3 
REMARK    2  A    between atoms: O_3  and  C_4 
REMARK    3  A    between atoms: C_4  and  C_5 
REMARK    4  A    between atoms: C_8  and  N_9 
REMARK       I    between atoms: N_9  and  C_10 
REMARK    5  A    between atoms: C_10  and  C_11 
REMARK    6  A    between atoms: C_11  and  C_12 
REMARK    7  A    between atoms: N_13  and  C_14 
REMARK    8  A    between atoms: C_14  and  C_15 
REMARK    9  A    between atoms: N_23  and  C_24 
ROOT
HETATM    1  C   UNL     1      42.149 -13.989   6.325  1.00  0.00     0.191 C 
HETATM    2  N   UNL     1      43.049 -13.428   5.338  1.00  0.00    -0.315 N 
HETATM    3  C   UNL     1      43.280 -14.352   4.315  1.00  0.00     0.333 C 
HETATM    4  O   UNL     1      43.670 -14.018   3.206  1.00  0.00    -0.246 OA
HETATM    5  N   UNL     1      42.949 -15.608   4.787  1.00  0.00    -0.232 N 
HETATM    6  C   UNL     1      42.383 -15.472   6.040  1.00  0.00     0.256 C 
HETATM    7  O   UNL     1      42.040 -16.336   6.837  1.00  0.00    -0.270 OA
ENDROOT
BRANCH   1   8
HETATM    8  C   UNL     1      40.699 -13.614   6.029  1.00  0.00     0.138 C 
BRANCH   8   9
HETATM    9  C   UNL     1      40.205 -14.166   4.709  1.00  0.00     0.224 C 
HETATM   10  N   UNL     1      40.349 -13.281   3.653  1.00  0.00    -0.327 N 
HETATM   11  H   UNL     1      40.701 -12.356   3.860  1.00  0.00     0.169 HD
HETATM   12  O   UNL     1      39.777 -15.313   4.650  1.00  0.00    -0.273 OA
BRANCH  10  13
HETATM   13  C   UNL     1      40.149 -13.559   2.282  1.00  0.00     0.034 A 
HETATM   14  C   UNL     1      40.444 -14.785   1.679  1.00  0.00     0.030 A 
HETATM   15  C   UNL     1      40.259 -14.971   0.301  1.00  0.00     0.020 A 
HETATM   16  C   UNL     1      39.772 -13.930  -0.496  1.00  0.00     0.039 A 
HETATM   17  C   UNL     1      39.469 -12.702   0.105  1.00  0.00     0.020 A 
HETATM   18  C   UNL     1      39.655 -12.521   1.482  1.00  0.00     0.030 A 
BRANCH  16  19
HETATM   19  C   UNL     1      39.558 -14.073  -1.962  1.00  0.00     0.293 C 
HETATM   20  O   UNL     1      40.437 -13.891  -2.788  1.00  0.00    -0.259 OA
BRANCH  19  21
HETATM   21  O   UNL     1      38.274 -14.420  -2.226  1.00  0.00    -0.318 OA
BRANCH  21  22
HETATM   22  C   UNL     1      37.603 -13.633  -3.222  1.00  0.00     0.174 C 
HETATM   23  C   UNL     1      37.096 -12.336  -2.623  1.00  0.00     0.034 C 
ENDBRANCH  21  22
ENDBRANCH  19  21
ENDBRANCH  16  19
ENDBRANCH  10  13
ENDBRANCH   8   9
ENDBRANCH   1   8
BRANCH   2  24
HETATM   24  C   UNL     1      43.215 -11.997   5.154  1.00  0.00     0.168 C 
BRANCH  24  25
HETATM   25  C   UNL     1      43.986 -11.344   6.266  1.00  0.00    -0.023 A 
HETATM   26  C   UNL     1      43.340 -10.664   7.294  1.00  0.00     0.125 A 
HETATM   27  N   UNL     1      43.974 -10.063   8.326  1.00  0.00    -0.273 NA
HETATM   28  C   UNL     1      45.322 -10.161   8.350  1.00  0.00     0.116 A 
HETATM   29  C   UNL     1      46.061 -10.822   7.386  1.00  0.00     0.020 A 
HETATM   30  C   UNL     1      45.380 -11.418   6.329  1.00  0.00     0.012 A 
ENDBRANCH  24  25
ENDBRANCH   2  24
BRANCH   5  31
HETATM   31  C   UNL     1      43.180 -16.841   4.097  1.00  0.00     0.047 A 
HETATM   32  C   UNL     1      42.493 -17.165   2.913  1.00  0.00     0.031 A 
HETATM   33  C   UNL     1      42.718 -18.368   2.228  1.00  0.00     0.009 A 
HETATM   34  C   UNL     1      43.643 -19.293   2.705  1.00  0.00    -0.062 A 
HETATM   35  C   UNL     1      43.909 -20.573   1.971  1.00  0.00     0.048 C 
HETATM   36  C   UNL     1      44.343 -18.990   3.872  1.00  0.00     0.009 A 
HETATM   37  C   UNL     1      44.109 -17.787   4.557  1.00  0.00     0.031 A 
ENDBRANCH   5  31
TORSDOF 9
ENDMDL
MODEL 7
REMARK VINA RESULT:      -8.1      2.754      8.742
REMARK  9 active torsions:
REMARK  status: ('A' for Active; 'I' for Inactive)
REMARK    1  A    between atoms: C_2  and  O_3 
REMARK    2  A    between atoms: O_3  and  C_4 
REMARK    3  A    between atoms: C_4  and  C_5 
REMARK    4  A    between atoms: C_8  and  N_9 
REMARK       I    between atoms: N_9  and  C_10 
REMARK    5  A    between atoms: C_10  and  C_11 
REMARK    6  A    between atoms: C_11  and  C_12 
REMARK    7  A    between atoms: N_13  and  C_14 
REMARK    8  A    between atoms: C_14  and  C_15 
REMARK    9  A    between atoms: N_23  and  C_24 
ROOT
HETATM    1  C   UNL     1      42.123 -13.431   3.197  1.00  0.00     0.191 C 
HETATM    2  N   UNL     1      42.256 -14.422   4.246  1.00  0.00    -0.315 N 
HETATM    3  C   UNL     1      42.640 -13.809   5.443  1.00  0.00     0.333 C 
HETATM    4  O   UNL     1      42.454 -14.328   6.534  1.00  0.00    -0.246 OA
HETATM    5  N   UNL     1      43.185 -12.576   5.138  1.00  0.00    -0.232 N 
HETATM    6  C   UNL     1      43.021 -12.344   3.786  1.00  0.00     0.256 C 
HETATM    7  O   UNL     1      43.439 -11.421   3.099  1.00  0.00    -0.270 OA
ENDROOT
BRANCH   1   8
HETATM    8  C   UNL     1      40.686 -12.930   3.088  1.00  0.00     0.138 C 
BRANCH   8   9
HETATM    9  C   UNL     1      40.524 -11.814   2.078  1.00  0.00     0.224 C 
HETATM   10  N   UNL     1      41.137 -12.077   0.864  1.00  0.00    -0.327 N 
HETATM   11  H   UNL     1      41.672 -12.932   0.783  1.00  0.00     0.169 HD
HETATM   12  O   UNL     1      39.859 -10.825   2.363  1.00  0.00    -0.273 OA
BRANCH  10  13
HETATM   13  C   UNL     1      41.020 -11.323  -0.326  1.00  0.00     0.034 A 
HETATM   14  C   UNL     1      41.669 -10.106  -0.550  1.00  0.00     0.030 A 
HETATM   15  C   UNL     1      41.468  -9.393  -1.740  1.00  0.00     0.020 A 
HETATM   16  C   UNL     1      40.614  -9.891  -2.729  1.00  0.00     0.039 A 
HETATM   17  C   UNL     1      39.967 -11.114  -2.513  1.00  0.00     0.020 A 
HETATM   18  C   UNL     1      40.171 -11.823  -1.321  1.00  0.00     0.030 A 
BRANCH  16  19
HETATM   19  C   UNL     1      40.365  -9.177  -4.012  1.00  0.00     0.293 C 
HETATM   20  O   UNL     1      39.275  -9.148  -4.562  1.00  0.00    -0.259 OA
BRANCH  19  21
HETATM   21  O   UNL     1      41.500  -8.586  -4.459  1.00  0.00    -0.318 OA
BRANCH  21  22
HETATM   22  C   UNL     1      41.436  -7.165  -4.650  1.00  0.00     0.174 C 
HETATM   23  C   UNL     1      42.819  -6.599  -4.905  1.00  0.00     0.034 C 
ENDBRANCH  21  22
ENDBRANCH  19  21
ENDBRANCH  16  19
ENDBRANCH  10  13
ENDBRANCH   8   9
ENDBRANCH   1   8
BRANCH   2  24
HETATM   24  C   UNL     1      41.568 -15.701   4.207  1.00  0.00     0.168 C 
BRANCH  24  25
HETATM   25  C   UNL     1      42.461 -16.838   3.799  1.00  0.00    -0.023 A 
HETATM   26  C   UNL     1      43.434 -17.339   4.658  1.00  0.00     0.125 A 
HETATM   27  N   UNL     1      44.263 -18.365   4.355  1.00  0.00    -0.273 NA
HETATM   28  C   UNL     1      44.102 -18.936   3.141  1.00  0.00     0.116 A 
HETATM   29  C   UNL     1      43.160 -18.524   2.216  1.00  0.00     0.020 A 
HETATM   30  C   UNL     1      42.332 -17.458   2.552  1.00  0.00     0.012 A 
ENDBRANCH  24  25
ENDBRANCH   2  24
BRANCH   5  31
HETATM   31  C   UNL     1      43.831 -11.702   6.071  1.00  0.00     0.047 A 
HETATM   32  C   UNL     1      43.107 -10.763   6.826  1.00  0.00     0.031 A 
HETATM   33  C   UNL     1      43.732  -9.907   7.745  1.00  0.00     0.009 A 
HETATM   34  C   UNL     1      45.109  -9.963   7.943  1.00  0.00    -0.062 A 
HETATM   35  C   UNL     1      45.787  -9.069   8.938  1.00  0.00     0.048 C 
HETATM   36  C   UNL     1      45.847 -10.893   7.212  1.00  0.00     0.009 A 
HETATM   37  C   UNL     1      45.217 -11.743   6.288  1.00  0.00     0.031 A 
ENDBRANCH   5  31
TORSDOF 9
ENDMDL
MODEL 8
REMARK VINA RESULT:      -7.8     16.786     19.476
REMARK  9 active torsions:
REMARK  status: ('A' for Active; 'I' for Inactive)
REMARK    1  A    between atoms: C_2  and  O_3 
REMARK    2  A    between atoms: O_3  and  C_4 
REMARK    3  A    between atoms: C_4  and  C_5 
REMARK    4  A    between atoms: C_8  and  N_9 
REMARK       I    between atoms: N_9  and  C_10 
REMARK    5  A    between atoms: C_10  and  C_11 
REMARK    6  A    between atoms: C_11  and  C_12 
REMARK    7  A    between atoms: N_13  and  C_14 
REMARK    8  A    between atoms: C_14  and  C_15 
REMARK    9  A    between atoms: N_23  and  C_24 
ROOT
HETATM    1  C   UNL     1      45.194 -29.965   1.631  1.00  0.00     0.191 C 
HETATM    2  N   UNL     1      46.362 -29.285   1.110  1.00  0.00    -0.315 N 
HETATM    3  C   UNL     1      46.231 -29.086  -0.268  1.00  0.00     0.333 C 
HETATM    4  O   UNL     1      46.862 -28.230  -0.869  1.00  0.00    -0.246 OA
HETATM    5  N   UNL     1      45.276 -29.967  -0.740  1.00  0.00    -0.232 N 
HETATM    6  C   UNL     1      44.705 -30.617   0.338  1.00  0.00     0.256 C 
HETATM    7  O   UNL     1      43.893 -31.533   0.353  1.00  0.00    -0.270 OA
ENDROOT
BRANCH   1   8
HETATM    8  C   UNL     1      44.158 -28.969   2.147  1.00  0.00     0.138 C 
BRANCH   8   9
HETATM    9  C   UNL     1      42.770 -29.563   2.254  1.00  0.00     0.224 C 
HETATM   10  N   UNL     1      42.679 -30.587   3.182  1.00  0.00    -0.327 N 
HETATM   11  H   UNL     1      43.530 -30.880   3.643  1.00  0.00     0.169 HD
HETATM   12  O   UNL     1      41.854 -29.095   1.588  1.00  0.00    -0.273 OA
BRANCH  10  13
HETATM   13  C   UNL     1      41.498 -31.216   3.637  1.00  0.00     0.034 A 
HETATM   14  C   UNL     1      40.991 -31.089   4.933  1.00  0.00     0.030 A 
HETATM   15  C   UNL     1      39.835 -31.781   5.323  1.00  0.00     0.020 A 
HETATM   16  C   UNL     1      39.165 -32.609   4.418  1.00  0.00     0.039 A 
HETATM   17  C   UNL     1      39.665 -32.734   3.116  1.00  0.00     0.020 A 
HETATM   18  C   UNL     1      40.820 -32.042   2.730  1.00  0.00     0.030 A 
BRANCH  16  19
HETATM   19  C   UNL     1      37.934 -33.366   4.779  1.00  0.00     0.293 C 
HETATM   20  O   UNL     1      37.394 -34.163   4.029  1.00  0.00    -0.259 OA
BRANCH  19  21
HETATM   21  O   UNL     1      37.520 -33.037   6.027  1.00  0.00    -0.318 OA
BRANCH  21  22
HETATM   22  C   UNL     1      37.516 -34.104   6.988  1.00  0.00     0.174 C 
HETATM   23  C   UNL     1      36.098 -34.567   7.262  1.00  0.00     0.034 C 
ENDBRANCH  21  22
ENDBRANCH  19  21
ENDBRANCH  16  19
ENDBRANCH  10  13
ENDBRANCH   8   9
ENDBRANCH   1   8
BRANCH   2  24
HETATM   24  C   UNL     1      47.226 -28.464   1.941  1.00  0.00     0.168 C 
BRANCH  24  25
HETATM   25  C   UNL     1      48.432 -29.203   2.447  1.00  0.00    -0.023 A 
HETATM   26  C   UNL     1      49.242 -29.943   1.590  1.00  0.00     0.125 A 
HETATM   27  N   UNL     1      50.344 -30.622   1.982  1.00  0.00    -0.273 NA
HETATM   28  C   UNL     1      50.672 -30.545   3.290  1.00  0.00     0.116 A 
HETATM   29  C   UNL     1      49.944 -29.830   4.224  1.00  0.00     0.020 A 
HETATM   30  C   UNL     1      48.808 -29.153   3.793  1.00  0.00     0.012 A 
ENDBRANCH  24  25
ENDBRANCH   2  24
BRANCH   5  31
HETATM   31  C   UNL     1      44.955 -30.180  -2.119  1.00  0.00     0.047 A 
HETATM   32  C   UNL     1      44.023 -29.373  -2.794  1.00  0.00     0.031 A 
HETATM   33  C   UNL     1      43.707 -29.573  -4.146  1.00  0.00     0.009 A 
HETATM   34  C   UNL     1      44.317 -30.591  -4.874  1.00  0.00    -0.062 A 
HETATM   35  C   UNL     1      44.006 -30.802  -6.325  1.00  0.00     0.048 C 
HETATM   36  C   UNL     1      45.252 -31.400  -4.227  1.00  0.00     0.009 A 
HETATM   37  C   UNL     1      45.559 -31.199  -2.872  1.00  0.00     0.031 A 
ENDBRANCH   5  31
TORSDOF 9
ENDMDL
MODEL 9
REMARK VINA RESULT:      -7.7      3.503      8.298
REMARK  9 active torsions:
REMARK  status: ('A' for Active; 'I' for Inactive)
REMARK    1  A    between atoms: C_2  and  O_3 
REMARK    2  A    between atoms: O_3  and  C_4 
REMARK    3  A    between atoms: C_4  and  C_5 
REMARK    4  A    between atoms: C_8  and  N_9 
REMARK       I    between atoms: N_9  and  C_10 
REMARK    5  A    between atoms: C_10  and  C_11 
REMARK    6  A    between atoms: C_11  and  C_12 
REMARK    7  A    between atoms: N_13  and  C_14 
REMARK    8  A    between atoms: C_14  and  C_15 
REMARK    9  A    between atoms: N_23  and  C_24 
ROOT
HETATM    1  C   UNL     1      40.705 -11.834   5.159  1.00  0.00     0.191 C 
HETATM    2  N   UNL     1      40.789 -11.191   3.862  1.00  0.00    -0.315 N 
HETATM    3  C   UNL     1      40.294  -9.886   3.937  1.00  0.00     0.333 C 
HETATM    4  O   UNL     1      40.592  -9.025   3.123  1.00  0.00    -0.246 OA
HETATM    5  N   UNL     1      39.502  -9.791   5.066  1.00  0.00    -0.232 N 
HETATM    6  C   UNL     1      39.604 -10.972   5.776  1.00  0.00     0.256 C 
HETATM    7  O   UNL     1      38.999 -11.333   6.777  1.00  0.00    -0.270 OA
ENDROOT
BRANCH   1   8
HETATM    8  C   UNL     1      42.006 -11.674   5.941  1.00  0.00     0.138 C 
BRANCH   8   9
HETATM    9  C   UNL     1      42.773 -12.971   6.082  1.00  0.00     0.224 C 
HETATM   10  N   UNL     1      42.076 -14.076   5.623  1.00  0.00    -0.327 N 
HETATM   11  H   UNL     1      41.126 -13.933   5.304  1.00  0.00     0.169 HD
HETATM   12  O   UNL     1      43.916 -12.958   6.523  1.00  0.00    -0.273 OA
BRANCH  10  13
HETATM   13  C   UNL     1      42.579 -15.386   5.456  1.00  0.00     0.034 A 
HETATM   14  C   UNL     1      43.160 -15.858   4.275  1.00  0.00     0.030 A 
HETATM   15  C   UNL     1      43.597 -17.186   4.171  1.00  0.00     0.020 A 
HETATM   16  C   UNL     1      43.462 -18.064   5.251  1.00  0.00     0.039 A 
HETATM   17  C   UNL     1      42.887 -17.594   6.438  1.00  0.00     0.020 A 
HETATM   18  C   UNL     1      42.451 -16.266   6.538  1.00  0.00     0.030 A 
BRANCH  16  19
HETATM   19  C   UNL     1      43.908 -19.483   5.195  1.00  0.00     0.293 C 
HETATM   20  O   UNL     1      43.768 -20.267   6.120  1.00  0.00    -0.259 OA
BRANCH  19  21
HETATM   21  O   UNL     1      44.480 -19.758   3.997  1.00  0.00    -0.318 OA
BRANCH  21  22
HETATM   22  C   UNL     1      43.866 -20.808   3.234  1.00  0.00     0.174 C 
HETATM   23  C   UNL     1      43.174 -20.241   2.009  1.00  0.00     0.034 C 
ENDBRANCH  21  22
ENDBRANCH  19  21
ENDBRANCH  16  19
ENDBRANCH  10  13
ENDBRANCH   8   9
ENDBRANCH   1   8
BRANCH   2  24
HETATM   24  C   UNL     1      41.728 -11.616   2.838  1.00  0.00     0.168 C 
BRANCH  24  25
HETATM   25  C   UNL     1      41.118 -12.547   1.829  1.00  0.00    -0.023 A 
HETATM   26  C   UNL     1      40.777 -12.110   0.553  1.00  0.00     0.125 A 
HETATM   27  N   UNL     1      40.233 -12.899  -0.402  1.00  0.00    -0.273 NA
HETATM   28  C   UNL     1      40.038 -14.196  -0.079  1.00  0.00     0.116 A 
HETATM   29  C   UNL     1      40.351 -14.736   1.155  1.00  0.00     0.020 A 
HETATM   30  C   UNL     1      40.896 -13.896   2.121  1.00  0.00     0.012 A 
ENDBRANCH  24  25
ENDBRANCH   2  24
BRANCH   5  31
HETATM   31  C   UNL     1      38.696  -8.662   5.420  1.00  0.00     0.047 A 
HETATM   32  C   UNL     1      39.013  -7.842   6.517  1.00  0.00     0.031 A 
HETATM   33  C   UNL     1      38.231  -6.731   6.866  1.00  0.00     0.009 A 
HETATM   34  C   UNL     1      37.099  -6.400   6.126  1.00  0.00    -0.062 A 
HETATM   35  C   UNL     1      36.266  -5.203   6.475  1.00  0.00     0.048 C 
HETATM   36  C   UNL     1      36.769  -7.194   5.028  1.00  0.00     0.009 A 
HETATM   37  C   UNL     1      37.552  -8.308   4.687  1.00  0.00     0.031 A 
ENDBRANCH   5  31
TORSDOF 9
ENDMDL
MODEL 10
REMARK VINA RESULT:      -7.6      2.982      9.139
REMARK  9 active torsions:
REMARK  status: ('A' for Active; 'I' for Inactive)
REMARK    1  A    between atoms: C_2  and  O_3 
REMARK    2  A    between atoms: O_3  and  C_4 
REMARK    3  A    between atoms: C_4  and  C_5 
REMARK    4  A    between atoms: C_8  and  N_9 
REMARK       I    between atoms: N_9  and  C_10 
REMARK    5  A    between atoms: C_10  and  C_11 
REMARK    6  A    between atoms: C_11  and  C_12 
REMARK    7  A    between atoms: N_13  and  C_14 
REMARK    8  A    between atoms: C_14  and  C_15 
REMARK    9  A    between atoms: N_23  and  C_24 
ROOT
HETATM    1  C   UNL     1      41.551 -13.542   3.758  1.00  0.00     0.191 C 
HETATM    2  N   UNL     1      41.998 -14.550   4.699  1.00  0.00    -0.315 N 
HETATM    3  C   UNL     1      42.558 -13.942   5.826  1.00  0.00     0.333 C 
HETATM    4  O   UNL     1      42.656 -14.518   6.900  1.00  0.00    -0.246 OA
HETATM    5  N   UNL     1      42.901 -12.646   5.490  1.00  0.00    -0.232 N 
HETATM    6  C   UNL     1      42.438 -12.384   4.215  1.00  0.00     0.256 C 
HETATM    7  O   UNL     1      42.609 -11.397   3.513  1.00  0.00    -0.270 OA
ENDROOT
BRANCH   1   8
HETATM    8  C   UNL     1      40.079 -13.199   3.971  1.00  0.00     0.138 C 
BRANCH   8   9
HETATM    9  C   UNL     1      39.556 -12.192   2.969  1.00  0.00     0.224 C 
HETATM   10  N   UNL     1      39.345 -12.727   1.709  1.00  0.00    -0.327 N 
HETATM   11  H   UNL     1      39.609 -13.692   1.559  1.00  0.00     0.169 HD
HETATM   12  O   UNL     1      39.319 -11.044   3.325  1.00  0.00    -0.273 OA
BRANCH  10  13
HETATM   13  C   UNL     1      38.703 -12.099   0.618  1.00  0.00     0.034 A 
HETATM   14  C   UNL     1      37.556 -11.309   0.732  1.00  0.00     0.030 A 
HETATM   15  C   UNL     1      36.950 -10.754  -0.405  1.00  0.00     0.020 A 
HETATM   16  C   UNL     1      37.488 -10.979  -1.676  1.00  0.00     0.039 A 
HETATM   17  C   UNL     1      38.641 -11.764  -1.794  1.00  0.00     0.020 A 
HETATM   18  C   UNL     1      39.243 -12.317  -0.657  1.00  0.00     0.030 A 
BRANCH  16  19
HETATM   19  C   UNL     1      36.886 -10.414  -2.915  1.00  0.00     0.293 C 
HETATM   20  O   UNL     1      37.548  -9.961  -3.835  1.00  0.00    -0.259 OA
BRANCH  19  21
HETATM   21  O   UNL     1      35.533 -10.477  -2.861  1.00  0.00    -0.318 OA
BRANCH  21  22
HETATM   22  C   UNL     1      34.908 -11.377  -3.789  1.00  0.00     0.174 C 
HETATM   23  C   UNL     1      33.400 -11.237  -3.732  1.00  0.00     0.034 C 
ENDBRANCH  21  22
ENDBRANCH  19  21
ENDBRANCH  16  19
ENDBRANCH  10  13
ENDBRANCH   8   9
ENDBRANCH   1   8
BRANCH   2  24
HETATM   24  C   UNL     1      41.449 -15.894   4.724  1.00  0.00     0.168 C 
BRANCH  24  25
HETATM   25  C   UNL     1      42.350 -16.911   4.083  1.00  0.00    -0.023 A 
HETATM   26  C   UNL     1      42.221 -17.248   2.739  1.00  0.00     0.125 A 
HETATM   27  N   UNL     1      43.005 -18.147   2.101  1.00  0.00    -0.273 NA
HETATM   28  C   UNL     1      43.981 -18.728   2.832  1.00  0.00     0.116 A 
HETATM   29  C   UNL     1      44.203 -18.458   4.170  1.00  0.00     0.020 A 
HETATM   30  C   UNL     1      43.372 -17.538   4.801  1.00  0.00     0.012 A 
ENDBRANCH  24  25
ENDBRANCH   2  24
BRANCH   5  31
HETATM   31  C   UNL     1      43.635 -11.741   6.323  1.00  0.00     0.047 A 
HETATM   32  C   UNL     1      45.024 -11.864   6.504  1.00  0.00     0.031 A 
HETATM   33  C   UNL     1      45.750 -10.978   7.313  1.00  0.00     0.009 A 
HETATM   34  C   UNL     1      45.109  -9.931   7.971  1.00  0.00    -0.062 A 
HETATM   35  C   UNL     1      45.876  -8.964   8.821  1.00  0.00     0.048 C 
HETATM   36  C   UNL     1      43.734  -9.784   7.799  1.00  0.00     0.009 A 
HETATM   37  C   UNL     1      43.011 -10.677   6.993  1.00  0.00     0.031 A 
ENDBRANCH   5  31
TORSDOF 9
ENDMDL
