MODEL 1
REMARK VINA RESULT:      -7.8      0.000      0.000
REMARK  5 active torsions:
REMARK  status: ('A' for Active; 'I' for Inactive)
REMARK    1  A    between atoms: N_1  and  C_5 
REMARK    2  A    between atoms: C_5  and  C_6 
REMARK    3  A    between atoms: C_6  and  C_7 
REMARK    4  A    between atoms: C_6  and  C_20 
REMARK       I    between atoms: C_7  and  N_9 
REMARK    5  A    between atoms: N_9  and  C_10 
ROOT
HETATM    1  C   UNL     1      42.228 -16.086   3.325  1.00  0.00     0.232 C 
HETATM    2  O   UNL     1      41.133 -16.423   3.779  1.00  0.00    -0.272 OA
HETATM    3  N   UNL     1      42.453 -15.239   2.259  1.00  0.00    -0.327 N 
HETATM    4  H   UNL     1      43.376 -15.255   1.833  1.00  0.00     0.169 HD
ENDROOT
BRANCH   1   5
HETATM    5  C   UNL     1      43.498 -16.681   3.926  1.00  0.00     0.136 C 
BRANCH   5   6
HETATM    6  C   UNL     1      43.580 -16.306   5.422  1.00  0.00     0.248 C 
BRANCH   6   7
HETATM    7  N   UNL     1      43.068 -14.930   5.695  1.00  0.00    -0.078 N 
HETATM    8  H   UNL     1      42.810 -14.489   4.790  1.00  0.00     0.274 HD
HETATM    9  H   UNL     1      42.231 -14.933   6.293  1.00  0.00     0.274 HD
HETATM   10  H   UNL     1      43.777 -14.330   6.132  1.00  0.00     0.274 HD
ENDBRANCH   6   7
ENDBRANCH   5   6
BRANCH   5  11
HETATM   11  C   UNL     1      43.644 -18.182   3.733  1.00  0.00    -0.043 A 
HETATM   12  C   UNL     1      44.028 -18.969   4.833  1.00  0.00     0.008 A 
HETATM   13  C   UNL     1      44.143 -20.354   4.712  1.00  0.00     0.001 A 
HETATM   14  C   UNL     1      43.879 -20.972   3.493  1.00  0.00     0.000 A 
HETATM   15  C   UNL     1      43.499 -20.205   2.394  1.00  0.00     0.001 A 
HETATM   16  C   UNL     1      43.379 -18.819   2.510  1.00  0.00     0.008 A 
ENDBRANCH   5  11
ENDBRANCH   1   5
BRANCH   3  17
HETATM   17  C   UNL     1      41.495 -14.442   1.596  1.00  0.00     0.035 A 
HETATM   18  C   UNL     1      41.117 -13.247   2.215  1.00  0.00     0.030 A 
HETATM   19  C   UNL     1      40.156 -12.416   1.630  1.00  0.00     0.016 A 
HETATM   20  C   UNL     1      39.539 -12.784   0.425  1.00  0.00    -0.008 A 
HETATM   21  C   UNL     1      38.560 -12.004  -0.197  1.00  0.00     0.128 A 
HETATM   22  C   UNL     1      39.899 -13.994  -0.200  1.00  0.00    -0.021 A 
HETATM   23  N   UNL     1      37.933 -12.339  -1.346  1.00  0.00    -0.272 NA
HETATM   24  C   UNL     1      38.292 -13.507  -1.915  1.00  0.00     0.117 A 
HETATM   25  C   UNL     1      39.256 -14.354  -1.391  1.00  0.00     0.031 A 
HETATM   26  C   UNL     1      40.884 -14.809   0.392  1.00  0.00     0.042 A 
ENDBRANCH   3  17
TORSDOF 5
ENDMDL
MODEL 2
REMARK VINA RESULT:      -7.6      3.295      7.362
REMARK  5 active torsions:
REMARK  status: ('A' for Active; 'I' for Inactive)
REMARK    1  A    between atoms: N_1  and  C_5 
REMARK    2  A    between atoms: C_5  and  C_6 
REMARK    3  A    between atoms: C_6  and  C_7 
REMARK    4  A    between atoms: C_6  and  C_20 
REMARK       I    between atoms: C_7  and  N_9 
REMARK    5  A    between atoms: N_9  and  C_10 
ROOT
HETATM    1  C   UNL     1      41.944 -14.231   4.260  1.00  0.00     0.232 C 
HETATM    2  O   UNL     1      40.838 -14.753   4.417  1.00  0.00    -0.272 OA
HETATM    3  N   UNL     1      43.132 -14.880   3.996  1.00  0.00    -0.327 N 
HETATM    4  H   UNL     1      43.994 -14.364   4.148  1.00  0.00     0.169 HD
ENDROOT
BRANCH   1   5
HETATM    5  C   UNL     1      42.082 -12.720   4.422  1.00  0.00     0.136 C 
BRANCH   5   6
HETATM    6  C   UNL     1      40.722 -12.124   4.845  1.00  0.00     0.248 C 
BRANCH   6   7
HETATM    7  N   UNL     1      39.704 -12.195   3.756  1.00  0.00    -0.078 N 
HETATM    8  H   UNL     1      38.881 -12.722   4.108  1.00  0.00     0.274 HD
HETATM    9  H   UNL     1      39.378 -11.265   3.461  1.00  0.00     0.274 HD
HETATM   10  H   UNL     1      40.051 -12.694   2.928  1.00  0.00     0.274 HD
ENDBRANCH   6   7
ENDBRANCH   5   6
BRANCH   5  11
HETATM   11  C   UNL     1      43.185 -12.286   5.375  1.00  0.00    -0.043 A 
HETATM   12  C   UNL     1      44.327 -11.660   4.844  1.00  0.00     0.008 A 
HETATM   13  C   UNL     1      45.349 -11.215   5.682  1.00  0.00     0.001 A 
HETATM   14  C   UNL     1      45.248 -11.389   7.059  1.00  0.00     0.000 A 
HETATM   15  C   UNL     1      44.123 -12.008   7.600  1.00  0.00     0.001 A 
HETATM   16  C   UNL     1      43.095 -12.452   6.766  1.00  0.00     0.008 A 
ENDBRANCH   5  11
ENDBRANCH   1   5
BRANCH   3  17
HETATM   17  C   UNL     1      43.295 -16.242   3.664  1.00  0.00     0.035 A 
HETATM   18  C   UNL     1      43.040 -16.614   2.340  1.00  0.00     0.030 A 
HETATM   19  C   UNL     1      43.157 -17.949   1.942  1.00  0.00     0.016 A 
HETATM   20  C   UNL     1      43.509 -18.939   2.872  1.00  0.00    -0.008 A 
HETATM   21  C   UNL     1      43.623 -20.291   2.537  1.00  0.00     0.128 A 
HETATM   22  C   UNL     1      43.752 -18.580   4.212  1.00  0.00    -0.021 A 
HETATM   23  N   UNL     1      43.941 -21.271   3.411  1.00  0.00    -0.272 NA
HETATM   24  C   UNL     1      44.157 -20.897   4.688  1.00  0.00     0.117 A 
HETATM   25  C   UNL     1      44.080 -19.585   5.130  1.00  0.00     0.031 A 
HETATM   26  C   UNL     1      43.650 -17.227   4.592  1.00  0.00     0.042 A 
ENDBRANCH   3  17
TORSDOF 5
ENDMDL
MODEL 3
REMARK VINA RESULT:      -7.6      4.771      7.097
REMARK  5 active torsions:
REMARK  status: ('A' for Active; 'I' for Inactive)
REMARK    1  A    between atoms: N_1  and  C_5 
REMARK    2  A    between atoms: C_5  and  C_6 
REMARK    3  A    between atoms: C_6  and  C_7 
REMARK    4  A    between atoms: C_6  and  C_20 
REMARK       I    between atoms: C_7  and  N_9 
REMARK    5  A    between atoms: N_9  and  C_10 
ROOT
HETATM    1  C   UNL     1      42.637 -13.734   4.808  1.00  0.00     0.232 C 
HETATM    2  O   UNL     1      43.051 -13.142   3.810  1.00  0.00    -0.272 OA
HETATM    3  N   UNL     1      42.919 -13.430   6.123  1.00  0.00    -0.327 N 
HETATM    4  H   UNL     1      42.730 -14.144   6.822  1.00  0.00     0.169 HD
ENDROOT
BRANCH   1   5
HETATM    5  C   UNL     1      41.768 -14.976   4.628  1.00  0.00     0.136 C 
BRANCH   5   6
HETATM    6  C   UNL     1      40.597 -14.647   3.677  1.00  0.00     0.248 C 
BRANCH   6   7
HETATM    7  N   UNL     1      39.819 -13.452   4.120  1.00  0.00    -0.078 N 
HETATM    8  H   UNL     1      38.819 -13.725   4.207  1.00  0.00     0.274 HD
HETATM    9  H   UNL     1      40.129 -13.097   5.034  1.00  0.00     0.274 HD
HETATM   10  H   UNL     1      39.864 -12.683   3.441  1.00  0.00     0.274 HD
ENDBRANCH   6   7
ENDBRANCH   5   6
BRANCH   5  11
HETATM   11  C   UNL     1      42.520 -16.211   4.158  1.00  0.00    -0.043 A 
HETATM   12  C   UNL     1      42.294 -16.682   2.853  1.00  0.00     0.008 A 
HETATM   13  C   UNL     1      42.986 -17.791   2.367  1.00  0.00     0.001 A 
HETATM   14  C   UNL     1      43.910 -18.446   3.175  1.00  0.00     0.000 A 
HETATM   15  C   UNL     1      44.145 -17.991   4.471  1.00  0.00     0.001 A 
HETATM   16  C   UNL     1      43.458 -16.880   4.962  1.00  0.00     0.008 A 
ENDBRANCH   5  11
ENDBRANCH   1   5
BRANCH   3  17
HETATM   17  C   UNL     1      43.576 -12.275   6.601  1.00  0.00     0.035 A 
HETATM   18  C   UNL     1      44.972 -12.314   6.669  1.00  0.00     0.030 A 
HETATM   19  C   UNL     1      45.691 -11.217   7.154  1.00  0.00     0.016 A 
HETATM   20  C   UNL     1      45.018 -10.071   7.603  1.00  0.00    -0.008 A 
HETATM   21  C   UNL     1      45.681  -8.952   8.115  1.00  0.00     0.128 A 
HETATM   22  C   UNL     1      43.611 -10.025   7.555  1.00  0.00    -0.021 A 
HETATM   23  N   UNL     1      45.064  -7.841   8.573  1.00  0.00    -0.272 NA
HETATM   24  C   UNL     1      43.717  -7.832   8.524  1.00  0.00     0.117 A 
HETATM   25  C   UNL     1      42.957  -8.881   8.029  1.00  0.00     0.031 A 
HETATM   26  C   UNL     1      42.903 -11.132   7.044  1.00  0.00     0.042 A 
ENDBRANCH   3  17
TORSDOF 5
ENDMDL
MODEL 4
REMARK VINA RESULT:      -7.5      4.403      6.825
REMARK  5 active torsions:
REMARK  status: ('A' for Active; 'I' for Inactive)
REMARK    1  A    between atoms: N_1  and  C_5 
REMARK    2  A    between atoms: C_5  and  C_6 
REMARK    3  A    between atoms: C_6  and  C_7 
REMARK    4  A    between atoms: C_6  and  C_20 
REMARK       I    between atoms: C_7  and  N_9 
REMARK    5  A    between atoms: N_9  and  C_10 
ROOT
HETATM    1  C   UNL     1      42.422 -13.836   4.262  1.00  0.00     0.232 C 
HETATM    2  O   UNL     1      43.110 -13.260   3.417  1.00  0.00    -0.272 OA
HETATM    3  N   UNL     1      42.310 -13.507   5.597  1.00  0.00    -0.327 N 
HETATM    4  H   UNL     1      41.925 -14.209   6.224  1.00  0.00     0.169 HD
ENDROOT
BRANCH   1   5
HETATM    5  C   UNL     1      41.640 -15.083   3.860  1.00  0.00     0.136 C 
BRANCH   5   6
HETATM    6  C   UNL     1      40.869 -14.804   2.552  1.00  0.00     0.248 C 
BRANCH   6   7
HETATM    7  N   UNL     1      39.390 -14.921   2.725  1.00  0.00    -0.078 N 
HETATM    8  H   UNL     1      39.024 -15.566   1.997  1.00  0.00     0.274 HD
HETATM    9  H   UNL     1      39.130 -15.302   3.643  1.00  0.00     0.274 HD
HETATM   10  H   UNL     1      38.910 -14.021   2.600  1.00  0.00     0.274 HD
ENDBRANCH   6   7
ENDBRANCH   5   6
BRANCH   5  11
HETATM   11  C   UNL     1      42.481 -16.344   3.736  1.00  0.00    -0.043 A 
HETATM   12  C   UNL     1      42.345 -17.135   2.582  1.00  0.00     0.008 A 
HETATM   13  C   UNL     1      43.120 -18.282   2.410  1.00  0.00     0.001 A 
HETATM   14  C   UNL     1      44.039 -18.656   3.385  1.00  0.00     0.000 A 
HETATM   15  C   UNL     1      44.185 -17.883   4.535  1.00  0.00     0.001 A 
HETATM   16  C   UNL     1      43.415 -16.732   4.712  1.00  0.00     0.008 A 
ENDBRANCH   5  11
ENDBRANCH   1   5
BRANCH   3  17
HETATM   17  C   UNL     1      42.802 -12.343   6.224  1.00  0.00     0.035 A 
HETATM   18  C   UNL     1      41.893 -11.307   6.457  1.00  0.00     0.030 A 
HETATM   19  C   UNL     1      42.311 -10.113   7.053  1.00  0.00     0.016 A 
HETATM   20  C   UNL     1      43.657  -9.930   7.403  1.00  0.00    -0.008 A 
HETATM   21  C   UNL     1      44.137  -8.752   7.984  1.00  0.00     0.128 A 
HETATM   22  C   UNL     1      44.587 -10.959   7.159  1.00  0.00    -0.021 A 
HETATM   23  N   UNL     1      45.429  -8.536   8.316  1.00  0.00    -0.272 NA
HETATM   24  C   UNL     1      46.296  -9.535   8.060  1.00  0.00     0.117 A 
HETATM   25  C   UNL     1      45.930 -10.747   7.495  1.00  0.00     0.031 A 
HETATM   26  C   UNL     1      44.144 -12.163   6.577  1.00  0.00     0.042 A 
ENDBRANCH   3  17
TORSDOF 5
ENDMDL
MODEL 5
REMARK VINA RESULT:      -7.3      2.070      2.687
REMARK  5 active torsions:
REMARK  status: ('A' for Active; 'I' for Inactive)
REMARK    1  A    between atoms: N_1  and  C_5 
REMARK    2  A    between atoms: C_5  and  C_6 
REMARK    3  A    between atoms: C_6  and  C_7 
REMARK    4  A    between atoms: C_6  and  C_20 
REMARK       I    between atoms: C_7  and  N_9 
REMARK    5  A    between atoms: N_9  and  C_10 
ROOT
HETATM    1  C   UNL     1      42.182 -14.967   2.291  1.00  0.00     0.232 C 
HETATM    2  O   UNL     1      43.303 -14.659   1.883  1.00  0.00    -0.272 OA
HETATM    3  N   UNL     1      40.973 -14.526   1.793  1.00  0.00    -0.327 N 
HETATM    4  H   UNL     1      40.151 -14.649   2.378  1.00  0.00     0.169 HD
ENDROOT
BRANCH   1   5
HETATM    5  C   UNL     1      42.058 -15.879   3.508  1.00  0.00     0.136 C 
BRANCH   5   6
HETATM    6  C   UNL     1      40.565 -16.084   3.844  1.00  0.00     0.248 C 
BRANCH   6   7
HETATM    7  N   UNL     1      40.308 -16.106   5.315  1.00  0.00    -0.078 N 
HETATM    8  H   UNL     1      39.879 -15.200   5.587  1.00  0.00     0.274 HD
HETATM    9  H   UNL     1      39.660 -16.856   5.589  1.00  0.00     0.274 HD
HETATM   10  H   UNL     1      41.172 -16.208   5.860  1.00  0.00     0.274 HD
ENDBRANCH   6   7
ENDBRANCH   5   6
BRANCH   5  11
HETATM   11  C   UNL     1      42.773 -17.214   3.372  1.00  0.00    -0.043 A 
HETATM   12  C   UNL     1      43.622 -17.635   4.411  1.00  0.00     0.008 A 
HETATM   13  C   UNL     1      44.272 -18.866   4.344  1.00  0.00     0.001 A 
HETATM   14  C   UNL     1      44.086 -19.695   3.242  1.00  0.00     0.000 A 
HETATM   15  C   UNL     1      43.249 -19.292   2.204  1.00  0.00     0.001 A 
HETATM   16  C   UNL     1      42.593 -18.062   2.266  1.00  0.00     0.008 A 
ENDBRANCH   5  11
ENDBRANCH   1   5
BRANCH   3  17
HETATM   17  C   UNL     1      40.766 -13.792   0.605  1.00  0.00     0.035 A 
HETATM   18  C   UNL     1      40.219 -14.476  -0.484  1.00  0.00     0.030 A 
HETATM   19  C   UNL     1      40.007 -13.822  -1.701  1.00  0.00     0.016 A 
HETATM   20  C   UNL     1      40.363 -12.473  -1.853  1.00  0.00    -0.008 A 
HETATM   21  C   UNL     1      40.192 -11.771  -3.050  1.00  0.00     0.128 A 
HETATM   22  C   UNL     1      40.930 -11.777  -0.768  1.00  0.00    -0.021 A 
HETATM   23  N   UNL     1      40.542 -10.479  -3.235  1.00  0.00    -0.272 NA
HETATM   24  C   UNL     1      41.092  -9.844  -2.181  1.00  0.00     0.117 A 
HETATM   25  C   UNL     1      41.300 -10.438  -0.946  1.00  0.00     0.031 A 
HETATM   26  C   UNL     1      41.118 -12.446   0.458  1.00  0.00     0.042 A 
ENDBRANCH   3  17
TORSDOF 5
ENDMDL
MODEL 6
REMARK VINA RESULT:      -7.3      2.703      3.874
REMARK  5 active torsions:
REMARK  status: ('A' for Active; 'I' for Inactive)
REMARK    1  A    between atoms: N_1  and  C_5 
REMARK    2  A    between atoms: C_5  and  C_6 
REMARK    3  A    between atoms: C_6  and  C_7 
REMARK    4  A    between atoms: C_6  and  C_20 
REMARK       I    between atoms: C_7  and  N_9 
REMARK    5  A    between atoms: N_9  and  C_10 
ROOT
HETATM    1  C   UNL     1      42.566 -16.082   4.758  1.00  0.00     0.232 C 
HETATM    2  O   UNL     1      41.478 -16.645   4.891  1.00  0.00    -0.272 OA
HETATM    3  N   UNL     1      42.774 -14.766   4.400  1.00  0.00    -0.327 N 
HETATM    4  H   UNL     1      43.703 -14.508   4.077  1.00  0.00     0.169 HD
ENDROOT
BRANCH   1   5
HETATM    5  C   UNL     1      43.849 -16.889   4.937  1.00  0.00     0.136 C 
BRANCH   5   6
HETATM    6  C   UNL     1      44.210 -16.948   6.437  1.00  0.00     0.248 C 
BRANCH   6   7
HETATM    7  N   UNL     1      43.003 -16.958   7.316  1.00  0.00    -0.078 N 
HETATM    8  H   UNL     1      43.127 -16.236   8.054  1.00  0.00     0.274 HD
HETATM    9  H   UNL     1      42.140 -16.737   6.802  1.00  0.00     0.274 HD
HETATM   10  H   UNL     1      42.874 -17.858   7.793  1.00  0.00     0.274 HD
ENDBRANCH   6   7
ENDBRANCH   5   6
BRANCH   5  11
HETATM   11  C   UNL     1      43.808 -18.283   4.333  1.00  0.00    -0.043 A 
HETATM   12  C   UNL     1      43.568 -18.414   2.954  1.00  0.00     0.008 A 
HETATM   13  C   UNL     1      43.554 -19.671   2.350  1.00  0.00     0.001 A 
HETATM   14  C   UNL     1      43.778 -20.814   3.112  1.00  0.00     0.000 A 
HETATM   15  C   UNL     1      44.016 -20.701   4.480  1.00  0.00     0.001 A 
HETATM   16  C   UNL     1      44.034 -19.445   5.090  1.00  0.00     0.008 A 
ENDBRANCH   5  11
ENDBRANCH   1   5
BRANCH   3  17
HETATM   17  C   UNL     1      41.796 -13.753   4.299  1.00  0.00     0.035 A 
HETATM   18  C   UNL     1      41.515 -13.258   3.022  1.00  0.00     0.030 A 
HETATM   19  C   UNL     1      40.575 -12.238   2.846  1.00  0.00     0.016 A 
HETATM   20  C   UNL     1      39.920 -11.679   3.954  1.00  0.00    -0.008 A 
HETATM   21  C   UNL     1      38.985 -10.645   3.842  1.00  0.00     0.128 A 
HETATM   22  C   UNL     1      40.206 -12.157   5.247  1.00  0.00    -0.021 A 
HETATM   23  N   UNL     1      38.351 -10.072   4.888  1.00  0.00    -0.272 NA
HETATM   24  C   UNL     1      38.654 -10.544   6.113  1.00  0.00     0.117 A 
HETATM   25  C   UNL     1      39.558 -11.570   6.341  1.00  0.00     0.031 A 
HETATM   26  C   UNL     1      41.141 -13.200   5.404  1.00  0.00     0.042 A 
ENDBRANCH   3  17
TORSDOF 5
ENDMDL
MODEL 7
REMARK VINA RESULT:      -7.2      3.783      7.465
REMARK  5 active torsions:
REMARK  status: ('A' for Active; 'I' for Inactive)
REMARK    1  A    between atoms: N_1  and  C_5 
REMARK    2  A    between atoms: C_5  and  C_6 
REMARK    3  A    between atoms: C_6  and  C_7 
REMARK    4  A    between atoms: C_6  and  C_20 
REMARK       I    between atoms: C_7  and  N_9 
REMARK    5  A    between atoms: N_9  and  C_10 
ROOT
HETATM    1  C   UNL     1      43.152 -12.864   4.192  1.00  0.00     0.232 C 
HETATM    2  O   UNL     1      43.396 -12.984   2.990  1.00  0.00    -0.272 OA
HETATM    3  N   UNL     1      42.978 -13.885   5.103  1.00  0.00    -0.327 N 
HETATM    4  H   UNL     1      42.531 -13.655   5.987  1.00  0.00     0.169 HD
ENDROOT
BRANCH   1   5
HETATM    5  C   UNL     1      42.953 -11.468   4.775  1.00  0.00     0.136 C 
BRANCH   5   6
HETATM    6  C   UNL     1      41.457 -11.256   5.096  1.00  0.00     0.248 C 
BRANCH   6   7
HETATM    7  N   UNL     1      40.566 -11.694   3.980  1.00  0.00    -0.078 N 
HETATM    8  H   UNL     1      40.894 -12.620   3.642  1.00  0.00     0.274 HD
HETATM    9  H   UNL     1      39.587 -11.796   4.276  1.00  0.00     0.274 HD
HETATM   10  H   UNL     1      40.598 -11.051   3.180  1.00  0.00     0.274 HD
ENDBRANCH   6   7
ENDBRANCH   5   6
BRANCH   5  11
HETATM   11  C   UNL     1      43.818 -11.161   5.987  1.00  0.00    -0.043 A 
HETATM   12  C   UNL     1      43.190 -10.769   7.182  1.00  0.00     0.008 A 
HETATM   13  C   UNL     1      43.940 -10.509   8.329  1.00  0.00     0.001 A 
HETATM   14  C   UNL     1      45.325 -10.635   8.299  1.00  0.00     0.000 A 
HETATM   15  C   UNL     1      45.963 -11.021   7.122  1.00  0.00     0.001 A 
HETATM   16  C   UNL     1      45.217 -11.286   5.972  1.00  0.00     0.008 A 
ENDBRANCH   5  11
ENDBRANCH   1   5
BRANCH   3  17
HETATM   17  C   UNL     1      43.229 -15.258   4.892  1.00  0.00     0.035 A 
HETATM   18  C   UNL     1      43.876 -15.956   5.916  1.00  0.00     0.030 A 
HETATM   19  C   UNL     1      44.180 -17.313   5.771  1.00  0.00     0.016 A 
HETATM   20  C   UNL     1      43.860 -17.987   4.583  1.00  0.00    -0.008 A 
HETATM   21  C   UNL     1      44.155 -19.337   4.372  1.00  0.00     0.128 A 
HETATM   22  C   UNL     1      43.222 -17.292   3.537  1.00  0.00    -0.021 A 
HETATM   23  N   UNL     1      43.878 -20.011   3.234  1.00  0.00    -0.272 NA
HETATM   24  C   UNL     1      43.278 -19.316   2.248  1.00  0.00     0.117 A 
HETATM   25  C   UNL     1      42.932 -17.977   2.350  1.00  0.00     0.031 A 
HETATM   26  C   UNL     1      42.905 -15.929   3.708  1.00  0.00     0.042 A 
ENDBRANCH   3  17
TORSDOF 5
ENDMDL
MODEL 8
REMARK VINA RESULT:      -6.9      4.443      7.910
REMARK  5 active torsions:
REMARK  status: ('A' for Active; 'I' for Inactive)
REMARK    1  A    between atoms: N_1  and  C_5 
REMARK    2  A    between atoms: C_5  and  C_6 
REMARK    3  A    between atoms: C_6  and  C_7 
REMARK    4  A    between atoms: C_6  and  C_20 
REMARK       I    between atoms: C_7  and  N_9 
REMARK    5  A    between atoms: N_9  and  C_10 
ROOT
HETATM    1  C   UNL     1      43.298 -12.106   5.237  1.00  0.00     0.232 C 
HETATM    2  O   UNL     1      43.894 -12.025   4.162  1.00  0.00    -0.272 OA
HETATM    3  N   UNL     1      42.875 -13.261   5.861  1.00  0.00    -0.327 N 
HETATM    4  H   UNL     1      42.178 -13.171   6.596  1.00  0.00     0.169 HD
ENDROOT
BRANCH   1   5
HETATM    5  C   UNL     1      42.909 -10.825   5.970  1.00  0.00     0.136 C 
BRANCH   5   6
HETATM    6  C   UNL     1      41.400 -10.860   6.296  1.00  0.00     0.248 C 
BRANCH   6   7
HETATM    7  N   UNL     1      40.549 -10.673   5.084  1.00  0.00    -0.078 N 
HETATM    8  H   UNL     1      41.008 -11.151   4.283  1.00  0.00     0.274 HD
HETATM    9  H   UNL     1      39.610 -11.078   5.196  1.00  0.00     0.274 HD
HETATM   10  H   UNL     1      40.447  -9.684   4.827  1.00  0.00     0.274 HD
ENDBRANCH   6   7
ENDBRANCH   5   6
BRANCH   5  11
HETATM   11  C   UNL     1      43.729 -10.537   7.218  1.00  0.00    -0.043 A 
HETATM   12  C   UNL     1      45.111 -10.791   7.191  1.00  0.00     0.008 A 
HETATM   13  C   UNL     1      45.908 -10.512   8.301  1.00  0.00     0.001 A 
HETATM   14  C   UNL     1      45.338  -9.977   9.452  1.00  0.00     0.000 A 
HETATM   15  C   UNL     1      43.969  -9.721   9.495  1.00  0.00     0.001 A 
HETATM   16  C   UNL     1      43.167  -9.996   8.386  1.00  0.00     0.008 A 
ENDBRANCH   5  11
ENDBRANCH   1   5
BRANCH   3  17
HETATM   17  C   UNL     1      43.200 -14.585   5.497  1.00  0.00     0.035 A 
HETATM   18  C   UNL     1      44.007 -15.312   6.378  1.00  0.00     0.030 A 
HETATM   19  C   UNL     1      44.391 -16.622   6.075  1.00  0.00     0.016 A 
HETATM   20  C   UNL     1      43.992 -17.216   4.869  1.00  0.00    -0.008 A 
HETATM   21  C   UNL     1      44.359 -18.515   4.503  1.00  0.00     0.128 A 
HETATM   22  C   UNL     1      43.192 -16.490   3.965  1.00  0.00    -0.021 A 
HETATM   23  N   UNL     1      44.008 -19.110   3.342  1.00  0.00    -0.272 NA
HETATM   24  C   UNL     1      43.252 -18.385   2.494  1.00  0.00     0.117 A 
HETATM   25  C   UNL     1      42.823 -17.093   2.757  1.00  0.00     0.031 A 
HETATM   26  C   UNL     1      42.797 -15.178   4.296  1.00  0.00     0.042 A 
ENDBRANCH   3  17
TORSDOF 5
ENDMDL
MODEL 9
REMARK VINA RESULT:      -6.9      1.323      1.678
REMARK  5 active torsions:
REMARK  status: ('A' for Active; 'I' for Inactive)
REMARK    1  A    between atoms: N_1  and  C_5 
REMARK    2  A    between atoms: C_5  and  C_6 
REMARK    3  A    between atoms: C_6  and  C_7 
REMARK    4  A    between atoms: C_6  and  C_20 
REMARK       I    between atoms: C_7  and  N_9 
REMARK    5  A    between atoms: N_9  and  C_10 
ROOT
HETATM    1  C   UNL     1      41.373 -14.465   3.390  1.00  0.00     0.232 C 
HETATM    2  O   UNL     1      40.227 -14.324   3.818  1.00  0.00    -0.272 OA
HETATM    3  N   UNL     1      41.813 -14.204   2.109  1.00  0.00    -0.327 N 
HETATM    4  H   UNL     1      42.703 -14.606   1.826  1.00  0.00     0.169 HD
ENDROOT
BRANCH   1   5
HETATM    5  C   UNL     1      42.445 -15.041   4.311  1.00  0.00     0.136 C 
BRANCH   5   6
HETATM    6  C   UNL     1      41.913 -15.069   5.760  1.00  0.00     0.248 C 
BRANCH   6   7
HETATM    7  N   UNL     1      41.887 -13.713   6.386  1.00  0.00    -0.078 N 
HETATM    8  H   UNL     1      42.818 -13.271   6.252  1.00  0.00     0.274 HD
HETATM    9  H   UNL     1      41.182 -13.097   5.961  1.00  0.00     0.274 HD
HETATM   10  H   UNL     1      41.714 -13.754   7.397  1.00  0.00     0.274 HD
ENDBRANCH   6   7
ENDBRANCH   5   6
BRANCH   5  11
HETATM   11  C   UNL     1      42.967 -16.408   3.897  1.00  0.00    -0.043 A 
HETATM   12  C   UNL     1      43.860 -17.076   4.752  1.00  0.00     0.008 A 
HETATM   13  C   UNL     1      44.339 -18.346   4.429  1.00  0.00     0.001 A 
HETATM   14  C   UNL     1      43.934 -18.965   3.250  1.00  0.00     0.000 A 
HETATM   15  C   UNL     1      43.049 -18.315   2.393  1.00  0.00     0.001 A 
HETATM   16  C   UNL     1      42.565 -17.046   2.712  1.00  0.00     0.008 A 
ENDBRANCH   5  11
ENDBRANCH   1   5
BRANCH   3  17
HETATM   17  C   UNL     1      41.094 -13.548   1.087  1.00  0.00     0.035 A 
HETATM   18  C   UNL     1      41.127 -12.150   1.076  1.00  0.00     0.030 A 
HETATM   19  C   UNL     1      40.421 -11.430   0.108  1.00  0.00     0.016 A 
HETATM   20  C   UNL     1      39.649 -12.101  -0.852  1.00  0.00    -0.008 A 
HETATM   21  C   UNL     1      38.907 -11.434  -1.832  1.00  0.00     0.128 A 
HETATM   22  C   UNL     1      39.594 -13.508  -0.843  1.00  0.00    -0.021 A 
HETATM   23  N   UNL     1      38.139 -12.049  -2.759  1.00  0.00    -0.272 NA
HETATM   24  C   UNL     1      38.099 -13.395  -2.717  1.00  0.00     0.117 A 
HETATM   25  C   UNL     1      38.800 -14.158  -1.795  1.00  0.00     0.031 A 
HETATM   26  C   UNL     1      40.329 -14.219   0.127  1.00  0.00     0.042 A 
ENDBRANCH   3  17
TORSDOF 5
ENDMDL
MODEL 10
REMARK VINA RESULT:      -6.8      4.116      5.879
REMARK  5 active torsions:
REMARK  status: ('A' for Active; 'I' for Inactive)
REMARK    1  A    between atoms: N_1  and  C_5 
REMARK    2  A    between atoms: C_5  and  C_6 
REMARK    3  A    between atoms: C_6  and  C_7 
REMARK    4  A    between atoms: C_6  and  C_20 
REMARK       I    between atoms: C_7  and  N_9 
REMARK    5  A    between atoms: N_9  and  C_10 
ROOT
HETATM    1  C   UNL     1      41.575 -14.269   4.001  1.00  0.00     0.232 C 
HETATM    2  O   UNL     1      42.119 -13.641   3.091  1.00  0.00    -0.272 OA
HETATM    3  N   UNL     1      41.424 -13.860   5.310  1.00  0.00    -0.327 N 
HETATM    4  H   UNL     1      41.197 -14.570   6.001  1.00  0.00     0.169 HD
ENDROOT
BRANCH   1   5
HETATM    5  C   UNL     1      41.048 -15.674   3.723  1.00  0.00     0.136 C 
BRANCH   5   6
HETATM    6  C   UNL     1      40.103 -15.634   2.503  1.00  0.00     0.248 C 
BRANCH   6   7
HETATM    7  N   UNL     1      39.153 -14.483   2.554  1.00  0.00    -0.078 N 
HETATM    8  H   UNL     1      38.226 -14.806   2.213  1.00  0.00     0.274 HD
HETATM    9  H   UNL     1      39.028 -14.118   3.507  1.00  0.00     0.274 HD
HETATM   10  H   UNL     1      39.445 -13.709   1.946  1.00  0.00     0.274 HD
ENDBRANCH   6   7
ENDBRANCH   5   6
BRANCH   5  11
HETATM   11  C   UNL     1      42.128 -16.729   3.539  1.00  0.00    -0.043 A 
HETATM   12  C   UNL     1      43.029 -16.963   4.593  1.00  0.00     0.008 A 
HETATM   13  C   UNL     1      44.015 -17.943   4.482  1.00  0.00     0.001 A 
HETATM   14  C   UNL     1      44.117 -18.702   3.320  1.00  0.00     0.000 A 
HETATM   15  C   UNL     1      43.233 -18.481   2.266  1.00  0.00     0.001 A 
HETATM   16  C   UNL     1      42.242 -17.503   2.373  1.00  0.00     0.008 A 
ENDBRANCH   5  11
ENDBRANCH   1   5
BRANCH   3  17
HETATM   17  C   UNL     1      41.687 -12.574   5.829  1.00  0.00     0.035 A 
HETATM   18  C   UNL     1      43.002 -12.294   6.212  1.00  0.00     0.030 A 
HETATM   19  C   UNL     1      43.335 -11.050   6.756  1.00  0.00     0.016 A 
HETATM   20  C   UNL     1      42.346 -10.073   6.948  1.00  0.00    -0.008 A 
HETATM   21  C   UNL     1      42.615  -8.819   7.504  1.00  0.00     0.128 A 
HETATM   22  C   UNL     1      41.015 -10.348   6.582  1.00  0.00    -0.021 A 
HETATM   23  N   UNL     1      41.684  -7.864   7.721  1.00  0.00    -0.272 NA
HETATM   24  C   UNL     1      40.417  -8.161   7.370  1.00  0.00     0.117 A 
HETATM   25  C   UNL     1      40.038  -9.369   6.803  1.00  0.00     0.031 A 
HETATM   26  C   UNL     1      40.701 -11.600   6.016  1.00  0.00     0.042 A 
ENDBRANCH   3  17
TORSDOF 5
ENDMDL
