MODEL 1
REMARK VINA RESULT:      -7.8      0.000      0.000
REMARK  4 active torsions:
REMARK  status: ('A' for Active; 'I' for Inactive)
REMARK    1  A    between atoms: C_6  and  C_7 
REMARK       I    between atoms: C_7  and  N_8 
REMARK    2  A    between atoms: N_8  and  C_9 
REMARK    3  A    between atoms: C_10  and  O_11 
REMARK    4  A    between atoms: N_13  and  C_15 
ROOT
HETATM    1  C   UNL     1      42.853 -15.693   1.954  1.00  0.00     0.252 C 
HETATM    2  N   UNL     1      41.537 -15.491   1.587  1.00  0.00    -0.348 N 
HETATM    3  O   UNL     1      43.734 -14.929   1.572  1.00  0.00    -0.268 OA
HETATM    4  H   UNL     1      40.851 -16.217   1.759  1.00  0.00     0.163 HD
ENDROOT
BRANCH   2   5
HETATM    5  C   UNL     1      41.143 -14.361   0.748  1.00  0.00     0.141 C 
HETATM    6  C   UNL     1      40.753 -13.098   1.539  1.00  0.00     0.168 C 
HETATM    7  C   UNL     1      39.305 -12.808   1.140  1.00  0.00     0.269 C 
HETATM    8  N   UNL     1      39.175 -13.335  -0.288  1.00  0.00    -0.063 N 
HETATM    9  H   UNL     1      38.182 -13.549  -0.448  1.00  0.00     0.280 HD
HETATM   10  C   UNL     1      39.946 -14.642  -0.186  1.00  0.00     0.263 C 
BRANCH   6  11
HETATM   11  O   UNL     1      41.587 -12.008   1.129  1.00  0.00    -0.392 OA
HETATM   12  H   UNL     1      42.143 -11.752   1.891  1.00  0.00     0.210 HD
ENDBRANCH   6  11
BRANCH   8  13
HETATM   13  C   UNL     1      39.640 -12.397  -1.400  1.00  0.00     0.180 C 
HETATM   14  C   UNL     1      40.119 -13.234  -2.591  1.00  0.00     0.039 C 
HETATM   15  C   UNL     1      38.490 -11.502  -1.862  1.00  0.00     0.039 C 
ENDBRANCH   8  13
ENDBRANCH   2   5
BRANCH   1  16
HETATM   16  C   UNL     1      43.171 -16.870   2.811  1.00  0.00     0.035 A 
HETATM   17  C   UNL     1      43.319 -16.775   4.195  1.00  0.00     0.041 A 
HETATM   18  C   UNL     1      43.639 -17.913   4.950  1.00  0.00     0.042 A 
HETATM   19  C   UNL     1      43.815 -19.170   4.345  1.00  0.00    -0.018 A 
HETATM   20 CL   UNL     1      43.830 -17.677   6.653  1.00  0.00    -0.084 Cl
HETATM   21  C   UNL     1      44.190 -20.386   5.151  1.00  0.00     0.052 C 
HETATM   22  C   UNL     1      43.701 -19.235   2.944  1.00  0.00     0.042 A 
HETATM   23  C   UNL     1      43.377 -18.102   2.188  1.00  0.00     0.041 A 
HETATM   24 CL   UNL     1      43.977 -20.702   2.072  1.00  0.00    -0.084 Cl
ENDBRANCH   1  16
TORSDOF 4
ENDMDL
MODEL 2
REMARK VINA RESULT:      -7.7      0.196      2.002
REMARK  4 active torsions:
REMARK  status: ('A' for Active; 'I' for Inactive)
REMARK    1  A    between atoms: C_6  and  C_7 
REMARK       I    between atoms: C_7  and  N_8 
REMARK    2  A    between atoms: N_8  and  C_9 
REMARK    3  A    between atoms: C_10  and  O_11 
REMARK    4  A    between atoms: N_13  and  C_15 
ROOT
HETATM    1  C   UNL     1      42.864 -15.500   1.995  1.00  0.00     0.252 C 
HETATM    2  N   UNL     1      41.586 -15.410   1.479  1.00  0.00    -0.348 N 
HETATM    3  O   UNL     1      43.678 -14.600   1.813  1.00  0.00    -0.268 OA
HETATM    4  H   UNL     1      40.985 -16.226   1.483  1.00  0.00     0.163 HD
ENDROOT
BRANCH   2   5
HETATM    5  C   UNL     1      41.152 -14.243   0.713  1.00  0.00     0.141 C 
HETATM    6  C   UNL     1      40.740 -13.041   1.583  1.00  0.00     0.168 C 
HETATM    7  C   UNL     1      39.280 -12.766   1.219  1.00  0.00     0.269 C 
HETATM    8  N   UNL     1      39.144 -13.211  -0.235  1.00  0.00    -0.063 N 
HETATM    9  H   UNL     1      38.155 -13.440  -0.396  1.00  0.00     0.280 HD
HETATM   10  C   UNL     1      39.950 -14.500  -0.222  1.00  0.00     0.263 C 
BRANCH   6  11
HETATM   11  O   UNL     1      41.540 -11.906   1.230  1.00  0.00    -0.392 OA
HETATM   12  H   UNL     1      41.571 -11.308   2.003  1.00  0.00     0.210 HD
ENDBRANCH   6  11
BRANCH   8  13
HETATM   13  C   UNL     1      39.570 -12.195  -1.295  1.00  0.00     0.180 C 
HETATM   14  C   UNL     1      40.064 -12.947  -2.536  1.00  0.00     0.039 C 
HETATM   15  C   UNL     1      38.389 -11.311  -1.695  1.00  0.00     0.039 C 
ENDBRANCH   8  13
ENDBRANCH   2   5
BRANCH   1  16
HETATM   16  C   UNL     1      43.228 -16.724   2.763  1.00  0.00     0.035 A 
HETATM   17  C   UNL     1      43.369 -17.976   2.163  1.00  0.00     0.041 A 
HETATM   18  C   UNL     1      43.693 -19.098   2.939  1.00  0.00     0.042 A 
HETATM   19  C   UNL     1      43.887 -18.999   4.328  1.00  0.00    -0.018 A 
HETATM   20 CL   UNL     1      43.813 -20.605   2.099  1.00  0.00    -0.084 Cl
HETATM   21  C   UNL     1      44.202 -20.210   5.168  1.00  0.00     0.052 C 
HETATM   22  C   UNL     1      43.699 -17.736   4.919  1.00  0.00     0.042 A 
HETATM   23  C   UNL     1      43.380 -16.613   4.147  1.00  0.00     0.041 A 
HETATM   24 CL   UNL     1      43.825 -17.498   6.627  1.00  0.00    -0.084 Cl
ENDBRANCH   1  16
TORSDOF 4
ENDMDL
MODEL 3
REMARK VINA RESULT:      -7.4      1.807      3.090
REMARK  4 active torsions:
REMARK  status: ('A' for Active; 'I' for Inactive)
REMARK    1  A    between atoms: C_6  and  C_7 
REMARK       I    between atoms: C_7  and  N_8 
REMARK    2  A    between atoms: N_8  and  C_9 
REMARK    3  A    between atoms: C_10  and  O_11 
REMARK    4  A    between atoms: N_13  and  C_15 
ROOT
HETATM    1  C   UNL     1      40.938 -15.169   1.879  1.00  0.00     0.252 C 
HETATM    2  N   UNL     1      41.258 -14.660   0.635  1.00  0.00    -0.348 N 
HETATM    3  O   UNL     1      39.902 -14.833   2.445  1.00  0.00    -0.268 OA
HETATM    4  H   UNL     1      42.188 -14.804   0.258  1.00  0.00     0.163 HD
ENDROOT
BRANCH   2   5
HETATM    5  C   UNL     1      40.377 -13.721  -0.056  1.00  0.00     0.141 C 
HETATM    6  C   UNL     1      39.890 -14.214  -1.432  1.00  0.00     0.168 C 
HETATM    7  C   UNL     1      40.388 -13.169  -2.430  1.00  0.00     0.269 C 
HETATM    8  N   UNL     1      40.427 -11.859  -1.646  1.00  0.00    -0.063 N 
HETATM    9  H   UNL     1      41.115 -11.247  -2.102  1.00  0.00     0.280 HD
HETATM   10  C   UNL     1      40.998 -12.332  -0.318  1.00  0.00     0.263 C 
BRANCH   6  11
HETATM   11  O   UNL     1      38.457 -14.240  -1.444  1.00  0.00    -0.392 OA
HETATM   12  H   UNL     1      38.149 -13.512  -2.019  1.00  0.00     0.210 HD
ENDBRANCH   6  11
BRANCH   8  13
HETATM   13  C   UNL     1      39.109 -11.092  -1.543  1.00  0.00     0.180 C 
HETATM   14  C   UNL     1      39.390  -9.688  -0.997  1.00  0.00     0.039 C 
HETATM   15  C   UNL     1      38.458 -10.961  -2.920  1.00  0.00     0.039 C 
ENDBRANCH   8  13
ENDBRANCH   2   5
BRANCH   1  16
HETATM   16  C   UNL     1      41.891 -16.121   2.515  1.00  0.00     0.035 A 
HETATM   17  C   UNL     1      42.151 -17.389   1.993  1.00  0.00     0.041 A 
HETATM   18  C   UNL     1      43.043 -18.251   2.647  1.00  0.00     0.042 A 
HETATM   19  C   UNL     1      43.698 -17.870   3.831  1.00  0.00    -0.018 A 
HETATM   20 CL   UNL     1      43.268 -19.810   1.931  1.00  0.00    -0.084 Cl
HETATM   21  C   UNL     1      44.632 -18.809   4.552  1.00  0.00     0.052 C 
HETATM   22  C   UNL     1      43.390 -16.605   4.362  1.00  0.00     0.042 A 
HETATM   23  C   UNL     1      42.505 -15.739   3.711  1.00  0.00     0.041 A 
HETATM   24 CL   UNL     1      44.064 -16.052   5.856  1.00  0.00    -0.084 Cl
ENDBRANCH   1  16
TORSDOF 4
ENDMDL
MODEL 4
REMARK VINA RESULT:      -7.4      5.050      6.604
REMARK  4 active torsions:
REMARK  status: ('A' for Active; 'I' for Inactive)
REMARK    1  A    between atoms: C_6  and  C_7 
REMARK       I    between atoms: C_7  and  N_8 
REMARK    2  A    between atoms: N_8  and  C_9 
REMARK    3  A    between atoms: C_10  and  O_11 
REMARK    4  A    between atoms: N_13  and  C_15 
ROOT
HETATM    1  C   UNL     1      43.311 -15.122   6.340  1.00  0.00     0.252 C 
HETATM    2  N   UNL     1      43.379 -13.834   5.848  1.00  0.00    -0.348 N 
HETATM    3  O   UNL     1      43.191 -15.327   7.545  1.00  0.00    -0.268 OA
HETATM    4  H   UNL     1      43.652 -13.679   4.884  1.00  0.00     0.163 HD
ENDROOT
BRANCH   2   5
HETATM    5  C   UNL     1      43.298 -12.673   6.732  1.00  0.00     0.141 C 
HETATM    6  C   UNL     1      42.447 -11.517   6.173  1.00  0.00     0.168 C 
HETATM    7  C   UNL     1      43.399 -10.324   6.088  1.00  0.00     0.269 C 
HETATM    8  N   UNL     1      44.412 -10.545   7.210  1.00  0.00    -0.063 N 
HETATM    9  H   UNL     1      45.271 -10.043   6.952  1.00  0.00     0.280 HD
HETATM   10  C   UNL     1      44.661 -12.039   7.086  1.00  0.00     0.263 C 
BRANCH   6  11
HETATM   11  O   UNL     1      41.392 -11.220   7.096  1.00  0.00    -0.392 OA
HETATM   12  H   UNL     1      40.824 -12.012   7.170  1.00  0.00     0.210 HD
ENDBRANCH   6  11
BRANCH   8  13
HETATM   13  C   UNL     1      43.992 -10.074   8.602  1.00  0.00     0.180 C 
HETATM   14  C   UNL     1      45.214 -10.099   9.527  1.00  0.00     0.039 C 
HETATM   15  C   UNL     1      43.450  -8.646   8.544  1.00  0.00     0.039 C 
ENDBRANCH   8  13
ENDBRANCH   2   5
BRANCH   1  16
HETATM   16  C   UNL     1      43.403 -16.251   5.372  1.00  0.00     0.035 A 
HETATM   17  C   UNL     1      43.692 -17.559   5.764  1.00  0.00     0.041 A 
HETATM   18  C   UNL     1      43.785 -18.578   4.805  1.00  0.00     0.042 A 
HETATM   19  C   UNL     1      43.590 -18.320   3.437  1.00  0.00    -0.018 A 
HETATM   20 CL   UNL     1      44.179 -20.155   5.397  1.00  0.00    -0.084 Cl
HETATM   21  C   UNL     1      43.723 -19.408   2.403  1.00  0.00     0.052 C 
HETATM   22  C   UNL     1      43.340 -16.988   3.060  1.00  0.00     0.042 A 
HETATM   23  C   UNL     1      43.241 -15.969   4.014  1.00  0.00     0.041 A 
HETATM   24 CL   UNL     1      43.165 -16.525   1.403  1.00  0.00    -0.084 Cl
ENDBRANCH   1  16
TORSDOF 4
ENDMDL
MODEL 5
REMARK VINA RESULT:      -7.3      1.781      2.399
REMARK  4 active torsions:
REMARK  status: ('A' for Active; 'I' for Inactive)
REMARK    1  A    between atoms: C_6  and  C_7 
REMARK       I    between atoms: C_7  and  N_8 
REMARK    2  A    between atoms: N_8  and  C_9 
REMARK    3  A    between atoms: C_10  and  O_11 
REMARK    4  A    between atoms: N_13  and  C_15 
ROOT
HETATM    1  C   UNL     1      41.014 -14.882   2.072  1.00  0.00     0.252 C 
HETATM    2  N   UNL     1      41.188 -14.671   0.718  1.00  0.00    -0.348 N 
HETATM    3  O   UNL     1      40.151 -14.270   2.695  1.00  0.00    -0.268 OA
HETATM    4  H   UNL     1      42.008 -15.044   0.254  1.00  0.00     0.163 HD
ENDROOT
BRANCH   2   5
HETATM    5  C   UNL     1      40.351 -13.730  -0.022  1.00  0.00     0.141 C 
HETATM    6  C   UNL     1      39.879 -14.254  -1.392  1.00  0.00     0.168 C 
HETATM    7  C   UNL     1      40.430 -13.257  -2.412  1.00  0.00     0.269 C 
HETATM    8  N   UNL     1      40.491 -11.924  -1.670  1.00  0.00    -0.063 N 
HETATM    9  H   UNL     1      41.207 -11.347  -2.130  1.00  0.00     0.280 HD
HETATM   10  C   UNL     1      41.019 -12.370  -0.315  1.00  0.00     0.263 C 
BRANCH   6  11
HETATM   11  O   UNL     1      38.448 -14.239  -1.436  1.00  0.00    -0.392 OA
HETATM   12  H   UNL     1      38.117 -14.716  -0.650  1.00  0.00     0.210 HD
ENDBRANCH   6  11
BRANCH   8  13
HETATM   13  C   UNL     1      39.194 -11.116  -1.622  1.00  0.00     0.180 C 
HETATM   14  C   UNL     1      39.474  -9.762  -0.961  1.00  0.00     0.039 C 
HETATM   15  C   UNL     1      38.664 -10.871  -3.035  1.00  0.00     0.039 C 
ENDBRANCH   8  13
ENDBRANCH   2   5
BRANCH   1  16
HETATM   16  C   UNL     1      41.911 -15.858   2.753  1.00  0.00     0.035 A 
HETATM   17  C   UNL     1      42.597 -15.556   3.930  1.00  0.00     0.041 A 
HETATM   18  C   UNL     1      43.444 -16.508   4.517  1.00  0.00     0.042 A 
HETATM   19  C   UNL     1      43.624 -17.780   3.947  1.00  0.00    -0.018 A 
HETATM   20 CL   UNL     1      44.270 -16.019   5.956  1.00  0.00    -0.084 Cl
HETATM   21  C   UNL     1      44.559 -18.792   4.558  1.00  0.00     0.052 C 
HETATM   22  C   UNL     1      42.955 -18.049   2.739  1.00  0.00     0.042 A 
HETATM   23  C   UNL     1      42.105 -17.104   2.154  1.00  0.00     0.041 A 
HETATM   24 CL   UNL     1      43.158 -19.544   1.895  1.00  0.00    -0.084 Cl
ENDBRANCH   1  16
TORSDOF 4
ENDMDL
MODEL 6
REMARK VINA RESULT:      -7.2      5.126      6.757
REMARK  4 active torsions:
REMARK  status: ('A' for Active; 'I' for Inactive)
REMARK    1  A    between atoms: C_6  and  C_7 
REMARK       I    between atoms: C_7  and  N_8 
REMARK    2  A    between atoms: N_8  and  C_9 
REMARK    3  A    between atoms: C_10  and  O_11 
REMARK    4  A    between atoms: N_13  and  C_15 
ROOT
HETATM    1  C   UNL     1      43.343 -14.988   6.297  1.00  0.00     0.252 C 
HETATM    2  N   UNL     1      43.369 -13.680   5.854  1.00  0.00    -0.348 N 
HETATM    3  O   UNL     1      43.250 -15.242   7.494  1.00  0.00    -0.268 OA
HETATM    4  H   UNL     1      43.621 -13.481   4.892  1.00  0.00     0.163 HD
ENDROOT
BRANCH   2   5
HETATM    5  C   UNL     1      43.275 -12.557   6.784  1.00  0.00     0.141 C 
HETATM    6  C   UNL     1      42.441 -11.374   6.256  1.00  0.00     0.168 C 
HETATM    7  C   UNL     1      43.400 -10.183   6.241  1.00  0.00     0.269 C 
HETATM    8  N   UNL     1      44.388 -10.456   7.373  1.00  0.00    -0.063 N 
HETATM    9  H   UNL     1      45.255  -9.949   7.154  1.00  0.00     0.280 HD
HETATM   10  C   UNL     1      44.633 -11.946   7.192  1.00  0.00     0.263 C 
BRANCH   6  11
HETATM   11  O   UNL     1      41.368 -11.109   7.168  1.00  0.00    -0.392 OA
HETATM   12  H   UNL     1      41.019 -10.218   6.972  1.00  0.00     0.210 HD
ENDBRANCH   6  11
BRANCH   8  13
HETATM   13  C   UNL     1      43.941 -10.042   8.775  1.00  0.00     0.180 C 
HETATM   14  C   UNL     1      45.149 -10.087   9.717  1.00  0.00     0.039 C 
HETATM   15  C   UNL     1      43.384  -8.618   8.760  1.00  0.00     0.039 C 
ENDBRANCH   8  13
ENDBRANCH   2   5
BRANCH   1  16
HETATM   16  C   UNL     1      43.445 -16.075   5.283  1.00  0.00     0.035 A 
HETATM   17  C   UNL     1      43.257 -15.854   3.919  1.00  0.00     0.041 A 
HETATM   18  C   UNL     1      43.345 -16.920   3.012  1.00  0.00     0.042 A 
HETATM   19  C   UNL     1      43.625 -18.228   3.442  1.00  0.00    -0.018 A 
HETATM   20 CL   UNL     1      43.063 -16.539   1.348  1.00  0.00    -0.084 Cl
HETATM   21  C   UNL     1      43.688 -19.381   2.472  1.00  0.00     0.052 C 
HETATM   22  C   UNL     1      43.771 -18.437   4.826  1.00  0.00     0.042 A 
HETATM   23  C   UNL     1      43.688 -17.375   5.733  1.00  0.00     0.041 A 
HETATM   24 CL   UNL     1      44.035 -20.012   5.490  1.00  0.00    -0.084 Cl
ENDBRANCH   1  16
TORSDOF 4
ENDMDL
MODEL 7
REMARK VINA RESULT:      -6.9      1.507      1.839
REMARK  4 active torsions:
REMARK  status: ('A' for Active; 'I' for Inactive)
REMARK    1  A    between atoms: C_6  and  C_7 
REMARK       I    between atoms: C_7  and  N_8 
REMARK    2  A    between atoms: N_8  and  C_9 
REMARK    3  A    between atoms: C_10  and  O_11 
REMARK    4  A    between atoms: N_13  and  C_15 
ROOT
HETATM    1  C   UNL     1      42.944 -15.456   2.551  1.00  0.00     0.252 C 
HETATM    2  N   UNL     1      41.915 -14.656   3.009  1.00  0.00    -0.348 N 
HETATM    3  O   UNL     1      43.608 -15.124   1.574  1.00  0.00    -0.268 OA
HETATM    4  H   UNL     1      41.267 -15.018   3.698  1.00  0.00     0.163 HD
ENDROOT
BRANCH   2   5
HETATM    5  C   UNL     1      41.589 -13.387   2.361  1.00  0.00     0.141 C 
HETATM    6  C   UNL     1      41.919 -12.146   3.213  1.00  0.00     0.168 C 
HETATM    7  C   UNL     1      40.585 -11.423   3.399  1.00  0.00     0.269 C 
HETATM    8  N   UNL     1      39.777 -11.754   2.146  1.00  0.00    -0.063 N 
HETATM    9  H   UNL     1      38.782 -11.662   2.388  1.00  0.00     0.280 HD
HETATM   10  C   UNL     1      40.104 -13.228   1.971  1.00  0.00     0.263 C 
BRANCH   6  11
HETATM   11  O   UNL     1      42.821 -11.302   2.487  1.00  0.00    -0.392 OA
HETATM   12  H   UNL     1      42.428 -11.125   1.610  1.00  0.00     0.210 HD
ENDBRANCH   6  11
BRANCH   8  13
HETATM   13  C   UNL     1      40.045 -10.884   0.919  1.00  0.00     0.180 C 
HETATM   14  C   UNL     1      39.449 -11.567  -0.317  1.00  0.00     0.039 C 
HETATM   15  C   UNL     1      39.392  -9.511   1.082  1.00  0.00     0.039 C 
ENDBRANCH   8  13
ENDBRANCH   2   5
BRANCH   1  16
HETATM   16  C   UNL     1      43.211 -16.736   3.266  1.00  0.00     0.035 A 
HETATM   17  C   UNL     1      43.284 -16.820   4.657  1.00  0.00     0.041 A 
HETATM   18  C   UNL     1      43.559 -18.048   5.276  1.00  0.00     0.042 A 
HETATM   19  C   UNL     1      43.763 -19.219   4.526  1.00  0.00    -0.018 A 
HETATM   20 CL   UNL     1      43.658 -18.033   7.003  1.00  0.00    -0.084 Cl
HETATM   21  C   UNL     1      44.091 -20.532   5.189  1.00  0.00     0.052 C 
HETATM   22  C   UNL     1      43.726 -19.104   3.124  1.00  0.00     0.042 A 
HETATM   23  C   UNL     1      43.447 -17.881   2.503  1.00  0.00     0.041 A 
HETATM   24 CL   UNL     1      44.043 -20.451   2.088  1.00  0.00    -0.084 Cl
ENDBRANCH   1  16
TORSDOF 4
ENDMDL
MODEL 8
REMARK VINA RESULT:      -6.4      4.144      7.820
REMARK  4 active torsions:
REMARK  status: ('A' for Active; 'I' for Inactive)
REMARK    1  A    between atoms: C_6  and  C_7 
REMARK       I    between atoms: C_7  and  N_8 
REMARK    2  A    between atoms: N_8  and  C_9 
REMARK    3  A    between atoms: C_10  and  O_11 
REMARK    4  A    between atoms: N_13  and  C_15 
ROOT
HETATM    1  C   UNL     1      40.910 -14.184   1.433  1.00  0.00     0.252 C 
HETATM    2  N   UNL     1      40.512 -14.123   2.754  1.00  0.00    -0.348 N 
HETATM    3  O   UNL     1      42.011 -14.633   1.131  1.00  0.00    -0.268 OA
HETATM    4  H   UNL     1      39.684 -13.595   3.005  1.00  0.00     0.163 HD
ENDROOT
BRANCH   2   5
HETATM    5  C   UNL     1      41.373 -14.600   3.834  1.00  0.00     0.141 C 
HETATM    6  C   UNL     1      41.052 -16.031   4.306  1.00  0.00     0.168 C 
HETATM    7  C   UNL     1      40.701 -15.893   5.789  1.00  0.00     0.269 C 
HETATM    8  N   UNL     1      41.511 -14.694   6.277  1.00  0.00    -0.063 N 
HETATM    9  H   UNL     1      41.026 -14.309   7.098  1.00  0.00     0.280 HD
HETATM   10  C   UNL     1      41.341 -13.734   5.111  1.00  0.00     0.263 C 
BRANCH   6  11
HETATM   11  O   UNL     1      42.221 -16.847   4.168  1.00  0.00    -0.392 OA
HETATM   12  H   UNL     1      42.229 -17.489   4.905  1.00  0.00     0.210 HD
ENDBRANCH   6  11
BRANCH   8  13
HETATM   13  C   UNL     1      42.960 -14.974   6.675  1.00  0.00     0.180 C 
HETATM   14  C   UNL     1      43.737 -13.653   6.693  1.00  0.00     0.039 C 
HETATM   15  C   UNL     1      43.022 -15.597   8.070  1.00  0.00     0.039 C 
ENDBRANCH   8  13
ENDBRANCH   2   5
BRANCH   1  16
HETATM   16  C   UNL     1      39.973 -13.675   0.392  1.00  0.00     0.035 A 
HETATM   17  C   UNL     1      39.306 -12.455   0.509  1.00  0.00     0.041 A 
HETATM   18  C   UNL     1      38.419 -12.036  -0.493  1.00  0.00     0.042 A 
HETATM   19  C   UNL     1      38.179 -12.820  -1.635  1.00  0.00    -0.018 A 
HETATM   20 CL   UNL     1      37.623 -10.523  -0.232  1.00  0.00    -0.084 Cl
HETATM   21  C   UNL     1      37.201 -12.386  -2.696  1.00  0.00     0.052 C 
HETATM   22  C   UNL     1      38.829 -14.065  -1.713  1.00  0.00     0.042 A 
HETATM   23  C   UNL     1      39.719 -14.484  -0.718  1.00  0.00     0.041 A 
HETATM   24 CL   UNL     1      38.554 -15.159  -3.024  1.00  0.00    -0.084 Cl
ENDBRANCH   1  16
TORSDOF 4
ENDMDL
MODEL 9
REMARK VINA RESULT:      -6.4      5.462      6.821
REMARK  4 active torsions:
REMARK  status: ('A' for Active; 'I' for Inactive)
REMARK    1  A    between atoms: C_6  and  C_7 
REMARK       I    between atoms: C_7  and  N_8 
REMARK    2  A    between atoms: N_8  and  C_9 
REMARK    3  A    between atoms: C_10  and  O_11 
REMARK    4  A    between atoms: N_13  and  C_15 
ROOT
HETATM    1  C   UNL     1      43.375 -13.775   5.880  1.00  0.00     0.252 C 
HETATM    2  N   UNL     1      43.830 -12.608   5.297  1.00  0.00    -0.348 N 
HETATM    3  O   UNL     1      43.063 -13.802   7.067  1.00  0.00    -0.268 OA
HETATM    4  H   UNL     1      44.247 -12.639   4.374  1.00  0.00     0.163 HD
ENDROOT
BRANCH   2   5
HETATM    5  C   UNL     1      43.944 -11.367   6.060  1.00  0.00     0.141 C 
HETATM    6  C   UNL     1      45.007 -11.412   7.174  1.00  0.00     0.168 C 
HETATM    7  C   UNL     1      44.239 -11.145   8.469  1.00  0.00     0.269 C 
HETATM    8  N   UNL     1      43.066 -10.258   8.059  1.00  0.00    -0.063 N 
HETATM    9  H   UNL     1      42.321 -10.389   8.756  1.00  0.00     0.280 HD
HETATM   10  C   UNL     1      42.641 -10.921   6.758  1.00  0.00     0.263 C 
BRANCH   6  11
HETATM   11  O   UNL     1      45.959 -10.363   6.960  1.00  0.00    -0.392 OA
HETATM   12  H   UNL     1      46.349 -10.488   6.072  1.00  0.00     0.210 HD
ENDBRANCH   6  11
BRANCH   8  13
HETATM   13  C   UNL     1      43.354  -8.761   7.954  1.00  0.00     0.180 C 
HETATM   14  C   UNL     1      42.039  -8.016   7.699  1.00  0.00     0.039 C 
HETATM   15  C   UNL     1      43.967  -8.241   9.255  1.00  0.00     0.039 C 
ENDBRANCH   8  13
ENDBRANCH   2   5
BRANCH   1  16
HETATM   16  C   UNL     1      43.289 -14.998   5.033  1.00  0.00     0.035 A 
HETATM   17  C   UNL     1      43.589 -16.272   5.516  1.00  0.00     0.041 A 
HETATM   18  C   UNL     1      43.510 -17.385   4.666  1.00  0.00     0.042 A 
HETATM   19  C   UNL     1      43.128 -17.256   3.320  1.00  0.00    -0.018 A 
HETATM   20 CL   UNL     1      43.934 -18.912   5.360  1.00  0.00    -0.084 Cl
HETATM   21  C   UNL     1      43.074 -18.447   2.398  1.00  0.00     0.052 C 
HETATM   22  C   UNL     1      42.869 -15.958   2.843  1.00  0.00     0.042 A 
HETATM   23  C   UNL     1      42.942 -14.845   3.688  1.00  0.00     0.041 A 
HETATM   24 CL   UNL     1      42.472 -15.655   1.188  1.00  0.00    -0.084 Cl
ENDBRANCH   1  16
TORSDOF 4
ENDMDL
MODEL 10
REMARK VINA RESULT:      -6.3      6.985      9.140
REMARK  4 active torsions:
REMARK  status: ('A' for Active; 'I' for Inactive)
REMARK    1  A    between atoms: C_6  and  C_7 
REMARK       I    between atoms: C_7  and  N_8 
REMARK    2  A    between atoms: N_8  and  C_9 
REMARK    3  A    between atoms: C_10  and  O_11 
REMARK    4  A    between atoms: N_13  and  C_15 
ROOT
HETATM    1  C   UNL     1      44.194 -11.564   7.506  1.00  0.00     0.252 C 
HETATM    2  N   UNL     1      43.284 -12.582   7.299  1.00  0.00    -0.348 N 
HETATM    3  O   UNL     1      45.184 -11.454   6.790  1.00  0.00    -0.268 OA
HETATM    4  H   UNL     1      42.572 -12.768   7.996  1.00  0.00     0.163 HD
ENDROOT
BRANCH   2   5
HETATM    5  C   UNL     1      43.457 -13.553   6.220  1.00  0.00     0.141 C 
HETATM    6  C   UNL     1      42.526 -13.322   5.014  1.00  0.00     0.168 C 
HETATM    7  C   UNL     1      41.703 -14.605   4.894  1.00  0.00     0.269 C 
HETATM    8  N   UNL     1      42.611 -15.710   5.427  1.00  0.00    -0.063 N 
HETATM    9  H   UNL     1      42.006 -16.475   5.755  1.00  0.00     0.280 HD
HETATM   10  C   UNL     1      43.227 -15.022   6.635  1.00  0.00     0.263 C 
BRANCH   6  11
HETATM   11  O   UNL     1      43.318 -13.152   3.833  1.00  0.00    -0.392 OA
HETATM   12  H   UNL     1      42.865 -13.609   3.098  1.00  0.00     0.210 HD
ENDBRANCH   6  11
BRANCH   8  13
HETATM   13  C   UNL     1      43.617 -16.296   4.437  1.00  0.00     0.180 C 
HETATM   14  C   UNL     1      44.263 -17.539   5.059  1.00  0.00     0.039 C 
HETATM   15  C   UNL     1      42.916 -16.705   3.141  1.00  0.00     0.039 C 
ENDBRANCH   8  13
ENDBRANCH   2   5
BRANCH   1  16
HETATM   16  C   UNL     1      43.945 -10.617   8.629  1.00  0.00     0.035 A 
HETATM   17  C   UNL     1      43.917  -9.232   8.455  1.00  0.00     0.041 A 
HETATM   18  C   UNL     1      43.698  -8.387   9.552  1.00  0.00     0.042 A 
HETATM   19  C   UNL     1      43.499  -8.901  10.846  1.00  0.00    -0.018 A 
HETATM   20 CL   UNL     1      43.715  -6.688   9.229  1.00  0.00    -0.084 Cl
HETATM   21  C   UNL     1      43.296  -7.992  12.031  1.00  0.00     0.052 C 
HETATM   22  C   UNL     1      43.571 -10.296  11.006  1.00  0.00     0.042 A 
HETATM   23  C   UNL     1      43.785 -11.143   9.913  1.00  0.00     0.041 A 
HETATM   24 CL   UNL     1      43.427 -11.047  12.557  1.00  0.00    -0.084 Cl
ENDBRANCH   1  16
TORSDOF 4
ENDMDL
