MODEL 1
REMARK VINA RESULT:      -8.6      0.000      0.000
REMARK  10 active torsions:
REMARK  status: ('A' for Active; 'I' for Inactive)
REMARK    1  A    between atoms: C_2  and  C_3 
REMARK    2  A    between atoms: C_3  and  C_4 
REMARK    3  A    between atoms: C_4  and  O_5 
REMARK    4  A    between atoms: O_5  and  C_6 
REMARK    5  A    between atoms: C_9  and  C_10 
REMARK       I    between atoms: C_10  and  N_11 
REMARK    6  A    between atoms: N_11  and  C_12 
REMARK    7  A    between atoms: C_12  and  N_13 
REMARK    8  A    between atoms: N_13  and  C_14 
REMARK    9  A    between atoms: C_16  and  C_17 
REMARK   10  A    between atoms: C_26  and  O_27 
ROOT
HETATM    1  N   UNL     1      44.250 -17.377   5.794  1.00  0.00    -0.337 N 
HETATM    2  H   UNL     1      45.130 -17.374   6.301  1.00  0.00     0.168 HD
ENDROOT
BRANCH   1   3
HETATM    3  C   UNL     1      44.033 -18.508   5.033  1.00  0.00     0.157 C 
HETATM    4  S   UNL     1      43.745 -19.956   5.812  1.00  0.00    -0.047 SA
BRANCH   3   5
HETATM    5  N   UNL     1      44.180 -18.321   3.669  1.00  0.00    -0.201 NA
HETATM    6  C   UNL     1      43.192 -18.344   2.702  1.00  0.00     0.237 C 
HETATM    7  O   UNL     1      42.988 -19.338   2.015  1.00  0.00    -0.274 OA
HETATM    8  H   UNL     1      44.896 -18.980   3.380  1.00  0.00     0.139 HD
BRANCH   6   9
HETATM    9  C   UNL     1      42.670 -17.012   2.301  1.00  0.00     0.026 A 
HETATM   10  C   UNL     1      41.304 -16.720   2.234  1.00  0.00     0.019 A 
HETATM   11  C   UNL     1      40.887 -15.415   1.962  1.00  0.00     0.038 A 
HETATM   12  C   UNL     1      41.833 -14.406   1.799  1.00  0.00     0.068 A 
HETATM   13  C   UNL     1      43.196 -14.691   1.827  1.00  0.00     0.038 A 
HETATM   14  C   UNL     1      43.614 -15.998   2.075  1.00  0.00     0.019 A 
BRANCH  12  15
HETATM   15  O   UNL     1      41.393 -13.130   1.582  1.00  0.00    -0.351 OA
BRANCH  15  16
HETATM   16  C   UNL     1      41.053 -12.486   2.819  1.00  0.00     0.175 C 
BRANCH  16  17
HETATM   17  C   UNL     1      41.557 -11.047   2.761  1.00  0.00     0.026 C 
BRANCH  17  18
HETATM   18  C   UNL     1      42.604 -10.769   3.836  1.00  0.00    -0.002 C 
HETATM   19  C   UNL     1      43.837 -11.638   3.650  1.00  0.00     0.005 C 
ENDBRANCH  17  18
ENDBRANCH  16  17
ENDBRANCH  15  16
ENDBRANCH  12  15
ENDBRANCH   6   9
ENDBRANCH   3   5
ENDBRANCH   1   3
BRANCH   1  20
HETATM   20  C   UNL     1      43.405 -16.258   5.969  1.00  0.00     0.035 A 
HETATM   21  C   UNL     1      43.965 -15.072   6.464  1.00  0.00     0.048 A 
HETATM   22  C   UNL     1      43.183 -13.911   6.609  1.00  0.00     0.052 A 
HETATM   23  C   UNL     1      41.815 -13.984   6.292  1.00  0.00     0.080 A 
HETATM   24  C   UNL     1      41.241 -15.172   5.857  1.00  0.00     0.040 A 
HETATM   25  C   UNL     1      42.034 -16.304   5.697  1.00  0.00     0.032 A 
BRANCH  22  26
HETATM   26  C   UNL     1      43.758 -12.641   7.044  1.00  0.00     0.183 A 
HETATM   27  O   UNL     1      45.109 -12.464   6.897  1.00  0.00    -0.289 OA
HETATM   28  C   UNL     1      45.323 -11.201   7.371  1.00  0.00     0.106 A 
HETATM   29  C   UNL     1      44.102 -10.683   7.771  1.00  0.00     0.093 A 
HETATM   30  C   UNL     1      46.531 -10.518   7.449  1.00  0.00     0.040 A 
HETATM   31  N   UNL     1      43.114 -11.611   7.568  1.00  0.00    -0.221 NA
HETATM   32  C   UNL     1      44.047  -9.384   8.290  1.00  0.00     0.034 A 
HETATM   33  C   UNL     1      45.245  -8.661   8.384  1.00  0.00     0.002 A 
HETATM   34  C   UNL     1      46.462  -9.220   7.973  1.00  0.00     0.003 A 
ENDBRANCH  22  26
BRANCH  23  35
HETATM   35  O   UNL     1      40.962 -12.914   6.390  1.00  0.00    -0.360 OA
HETATM   36  H   UNL     1      40.039 -13.244   6.351  1.00  0.00     0.217 HD
ENDBRANCH  23  35
ENDBRANCH   1  20
TORSDOF 10
ENDMDL
MODEL 2
REMARK VINA RESULT:      -8.4      2.809      4.965
REMARK  10 active torsions:
REMARK  status: ('A' for Active; 'I' for Inactive)
REMARK    1  A    between atoms: C_2  and  C_3 
REMARK    2  A    between atoms: C_3  and  C_4 
REMARK    3  A    between atoms: C_4  and  O_5 
REMARK    4  A    between atoms: O_5  and  C_6 
REMARK    5  A    between atoms: C_9  and  C_10 
REMARK       I    between atoms: C_10  and  N_11 
REMARK    6  A    between atoms: N_11  and  C_12 
REMARK    7  A    between atoms: C_12  and  N_13 
REMARK    8  A    between atoms: N_13  and  C_14 
REMARK    9  A    between atoms: C_16  and  C_17 
REMARK   10  A    between atoms: C_26  and  O_27 
ROOT
HETATM    1  N   UNL     1      39.215 -13.027   4.129  1.00  0.00    -0.337 N 
HETATM    2  H   UNL     1      38.335 -13.031   4.636  1.00  0.00     0.168 HD
ENDROOT
BRANCH   1   3
HETATM    3  C   UNL     1      39.134 -12.522   2.847  1.00  0.00     0.157 C 
HETATM    4  S   UNL     1      38.734 -10.914   2.643  1.00  0.00    -0.047 SA
BRANCH   3   5
HETATM    5  N   UNL     1      39.305 -13.462   1.845  1.00  0.00    -0.201 NA
HETATM    6  C   UNL     1      40.448 -13.714   1.110  1.00  0.00     0.237 C 
HETATM    7  O   UNL     1      40.604 -13.254  -0.015  1.00  0.00    -0.274 OA
HETATM    8  H   UNL     1      38.555 -13.293   1.183  1.00  0.00     0.139 HD
BRANCH   6   9
HETATM    9  C   UNL     1      41.276 -14.847   1.598  1.00  0.00     0.026 A 
HETATM   10  C   UNL     1      40.756 -16.126   1.822  1.00  0.00     0.019 A 
HETATM   11  C   UNL     1      41.615 -17.172   2.169  1.00  0.00     0.038 A 
HETATM   12  C   UNL     1      42.986 -16.943   2.252  1.00  0.00     0.068 A 
HETATM   13  C   UNL     1      43.511 -15.667   2.067  1.00  0.00     0.038 A 
HETATM   14  C   UNL     1      42.653 -14.616   1.743  1.00  0.00     0.019 A 
BRANCH  12  15
HETATM   15  O   UNL     1      43.806 -17.996   2.547  1.00  0.00    -0.351 OA
BRANCH  15  16
HETATM   16  C   UNL     1      43.202 -19.241   2.163  1.00  0.00     0.175 C 
BRANCH  16  17
HETATM   17  C   UNL     1      43.787 -20.345   3.038  1.00  0.00     0.026 C 
BRANCH  17  18
HETATM   18  C   UNL     1      44.250 -19.811   4.390  1.00  0.00    -0.002 C 
HETATM   19  C   UNL     1      43.877 -20.757   5.519  1.00  0.00     0.005 C 
ENDBRANCH  17  18
ENDBRANCH  16  17
ENDBRANCH  15  16
ENDBRANCH  12  15
ENDBRANCH   6   9
ENDBRANCH   3   5
ENDBRANCH   1   3
BRANCH   1  20
HETATM   20  C   UNL     1      40.353 -13.508   4.815  1.00  0.00     0.035 A 
HETATM   21  C   UNL     1      41.302 -12.578   5.262  1.00  0.00     0.048 A 
HETATM   22  C   UNL     1      42.428 -12.994   5.996  1.00  0.00     0.052 A 
HETATM   23  C   UNL     1      42.604 -14.370   6.228  1.00  0.00     0.080 A 
HETATM   24  C   UNL     1      41.697 -15.301   5.737  1.00  0.00     0.040 A 
HETATM   25  C   UNL     1      40.577 -14.871   5.033  1.00  0.00     0.032 A 
BRANCH  22  26
HETATM   26  C   UNL     1      43.390 -12.040   6.543  1.00  0.00     0.183 A 
HETATM   27  O   UNL     1      42.901 -10.922   7.168  1.00  0.00    -0.289 OA
HETATM   28  C   UNL     1      44.025 -10.260   7.571  1.00  0.00     0.106 A 
HETATM   29  C   UNL     1      45.124 -11.006   7.179  1.00  0.00     0.093 A 
HETATM   30  C   UNL     1      44.098  -9.054   8.260  1.00  0.00     0.040 A 
HETATM   31  N   UNL     1      44.710 -12.133   6.518  1.00  0.00    -0.221 NA
HETATM   32  C   UNL     1      46.410 -10.545   7.486  1.00  0.00     0.034 A 
HETATM   33  C   UNL     1      46.525  -9.332   8.182  1.00  0.00     0.002 A 
HETATM   34  C   UNL     1      45.390  -8.602   8.558  1.00  0.00     0.003 A 
ENDBRANCH  22  26
BRANCH  23  35
HETATM   35  O   UNL     1      43.660 -14.885   6.935  1.00  0.00    -0.360 OA
HETATM   36  H   UNL     1      43.820 -14.315   7.719  1.00  0.00     0.217 HD
ENDBRANCH  23  35
ENDBRANCH   1  20
TORSDOF 10
ENDMDL
MODEL 3
REMARK VINA RESULT:      -8.2      1.580      2.398
REMARK  10 active torsions:
REMARK  status: ('A' for Active; 'I' for Inactive)
REMARK    1  A    between atoms: C_2  and  C_3 
REMARK    2  A    between atoms: C_3  and  C_4 
REMARK    3  A    between atoms: C_4  and  O_5 
REMARK    4  A    between atoms: O_5  and  C_6 
REMARK    5  A    between atoms: C_9  and  C_10 
REMARK       I    between atoms: C_10  and  N_11 
REMARK    6  A    between atoms: N_11  and  C_12 
REMARK    7  A    between atoms: C_12  and  N_13 
REMARK    8  A    between atoms: N_13  and  C_14 
REMARK    9  A    between atoms: C_16  and  C_17 
REMARK   10  A    between atoms: C_26  and  O_27 
ROOT
HETATM    1  N   UNL     1      44.351 -17.676   5.730  1.00  0.00    -0.337 N 
HETATM    2  H   UNL     1      45.218 -17.742   6.254  1.00  0.00     0.168 HD
ENDROOT
BRANCH   1   3
HETATM    3  C   UNL     1      44.108 -18.745   4.890  1.00  0.00     0.157 C 
HETATM    4  S   UNL     1      43.825 -20.245   5.564  1.00  0.00    -0.047 SA
BRANCH   3   5
HETATM    5  N   UNL     1      44.228 -18.456   3.542  1.00  0.00    -0.201 NA
HETATM    6  C   UNL     1      43.220 -18.404   2.596  1.00  0.00     0.237 C 
HETATM    7  O   UNL     1      42.998 -19.343   1.841  1.00  0.00    -0.274 OA
HETATM    8  H   UNL     1      44.935 -19.092   3.189  1.00  0.00     0.139 HD
BRANCH   6   9
HETATM    9  C   UNL     1      42.694 -17.045   2.308  1.00  0.00     0.026 A 
HETATM   10  C   UNL     1      43.518 -15.968   1.967  1.00  0.00     0.019 A 
HETATM   11  C   UNL     1      42.947 -14.748   1.595  1.00  0.00     0.038 A 
HETATM   12  C   UNL     1      41.561 -14.625   1.530  1.00  0.00     0.068 A 
HETATM   13  C   UNL     1      40.730 -15.678   1.903  1.00  0.00     0.038 A 
HETATM   14  C   UNL     1      41.299 -16.890   2.296  1.00  0.00     0.019 A 
BRANCH  12  15
HETATM   15  O   UNL     1      41.032 -13.434   1.118  1.00  0.00    -0.351 OA
BRANCH  15  16
HETATM   16  C   UNL     1      39.859 -13.642   0.317  1.00  0.00     0.175 C 
BRANCH  16  17
HETATM   17  C   UNL     1      40.301 -13.879  -1.123  1.00  0.00     0.026 C 
BRANCH  17  18
HETATM   18  C   UNL     1      39.983 -12.685  -2.017  1.00  0.00    -0.002 C 
HETATM   19  C   UNL     1      41.084 -12.445  -3.037  1.00  0.00     0.005 C 
ENDBRANCH  17  18
ENDBRANCH  16  17
ENDBRANCH  15  16
ENDBRANCH  12  15
ENDBRANCH   6   9
ENDBRANCH   3   5
ENDBRANCH   1   3
BRANCH   1  20
HETATM   20  C   UNL     1      43.545 -16.538   5.962  1.00  0.00     0.035 A 
HETATM   21  C   UNL     1      44.161 -15.375   6.444  1.00  0.00     0.048 A 
HETATM   22  C   UNL     1      43.418 -14.196   6.643  1.00  0.00     0.052 A 
HETATM   23  C   UNL     1      42.035 -14.228   6.393  1.00  0.00     0.080 A 
HETATM   24  C   UNL     1      41.409 -15.394   5.970  1.00  0.00     0.040 A 
HETATM   25  C   UNL     1      42.162 -16.544   5.756  1.00  0.00     0.032 A 
BRANCH  22  26
HETATM   26  C   UNL     1      44.048 -12.948   7.067  1.00  0.00     0.183 A 
HETATM   27  O   UNL     1      43.564 -12.335   8.193  1.00  0.00    -0.289 OA
HETATM   28  C   UNL     1      44.357 -11.230   8.325  1.00  0.00     0.106 A 
HETATM   29  C   UNL     1      45.272 -11.235   7.286  1.00  0.00     0.093 A 
HETATM   30  C   UNL     1      44.294 -10.255   9.314  1.00  0.00     0.040 A 
HETATM   31  N   UNL     1      45.062 -12.327   6.485  1.00  0.00    -0.221 NA
HETATM   32  C   UNL     1      46.215 -10.203   7.200  1.00  0.00     0.034 A 
HETATM   33  C   UNL     1      46.185  -9.200   8.180  1.00  0.00     0.002 A 
HETATM   34  C   UNL     1      45.241  -9.227   9.214  1.00  0.00     0.003 A 
ENDBRANCH  22  26
BRANCH  23  35
HETATM   35  O   UNL     1      41.218 -13.137   6.548  1.00  0.00    -0.360 OA
HETATM   36  H   UNL     1      41.420 -12.490   5.837  1.00  0.00     0.217 HD
ENDBRANCH  23  35
ENDBRANCH   1  20
TORSDOF 10
ENDMDL
MODEL 4
REMARK VINA RESULT:      -8.0      3.180      6.945
REMARK  10 active torsions:
REMARK  status: ('A' for Active; 'I' for Inactive)
REMARK    1  A    between atoms: C_2  and  C_3 
REMARK    2  A    between atoms: C_3  and  C_4 
REMARK    3  A    between atoms: C_4  and  O_5 
REMARK    4  A    between atoms: O_5  and  C_6 
REMARK    5  A    between atoms: C_9  and  C_10 
REMARK       I    between atoms: C_10  and  N_11 
REMARK    6  A    between atoms: N_11  and  C_12 
REMARK    7  A    between atoms: C_12  and  N_13 
REMARK    8  A    between atoms: N_13  and  C_14 
REMARK    9  A    between atoms: C_16  and  C_17 
REMARK   10  A    between atoms: C_26  and  O_27 
ROOT
HETATM    1  N   UNL     1      38.729 -12.547   2.050  1.00  0.00    -0.337 N 
HETATM    2  H   UNL     1      37.767 -12.838   1.904  1.00  0.00     0.168 HD
ENDROOT
BRANCH   1   3
HETATM    3  C   UNL     1      39.253 -11.775   1.032  1.00  0.00     0.157 C 
HETATM    4  S   UNL     1      38.204 -11.051  -0.046  1.00  0.00    -0.047 SA
BRANCH   3   5
HETATM    5  N   UNL     1      40.635 -11.773   0.965  1.00  0.00    -0.201 NA
HETATM    6  C   UNL     1      41.493 -10.728   1.256  1.00  0.00     0.237 C 
HETATM    7  O   UNL     1      41.970 -10.022   0.375  1.00  0.00    -0.274 OA
HETATM    8  H   UNL     1      40.863 -12.093   0.030  1.00  0.00     0.139 HD
BRANCH   6   9
HETATM    9  C   UNL     1      42.078 -10.753   2.621  1.00  0.00     0.026 A 
HETATM   10  C   UNL     1      41.674  -9.882   3.638  1.00  0.00     0.019 A 
HETATM   11  C   UNL     1      42.185 -10.038   4.928  1.00  0.00     0.038 A 
HETATM   12  C   UNL     1      43.062 -11.085   5.203  1.00  0.00     0.068 A 
HETATM   13  C   UNL     1      43.501 -11.936   4.192  1.00  0.00     0.038 A 
HETATM   14  C   UNL     1      43.010 -11.767   2.897  1.00  0.00     0.019 A 
BRANCH  12  15
HETATM   15  O   UNL     1      43.508 -11.241   6.486  1.00  0.00    -0.351 OA
BRANCH  15  16
HETATM   16  C   UNL     1      44.783 -11.902   6.510  1.00  0.00     0.175 C 
BRANCH  16  17
HETATM   17  C   UNL     1      45.730 -11.081   7.379  1.00  0.00     0.026 C 
BRANCH  17  18
HETATM   18  C   UNL     1      44.970 -10.150   8.320  1.00  0.00    -0.002 C 
HETATM   19  C   UNL     1      45.684  -8.817   8.479  1.00  0.00     0.005 C 
ENDBRANCH  17  18
ENDBRANCH  16  17
ENDBRANCH  15  16
ENDBRANCH  12  15
ENDBRANCH   6   9
ENDBRANCH   3   5
ENDBRANCH   1   3
BRANCH   1  20
HETATM   20  C   UNL     1      39.347 -12.952   3.255  1.00  0.00     0.035 A 
HETATM   21  C   UNL     1      40.121 -14.120   3.245  1.00  0.00     0.048 A 
HETATM   22  C   UNL     1      40.802 -14.543   4.402  1.00  0.00     0.052 A 
HETATM   23  C   UNL     1      40.647 -13.792   5.580  1.00  0.00     0.080 A 
HETATM   24  C   UNL     1      39.835 -12.665   5.611  1.00  0.00     0.040 A 
HETATM   25  C   UNL     1      39.187 -12.247   4.453  1.00  0.00     0.032 A 
BRANCH  22  26
HETATM   26  C   UNL     1      41.679 -15.710   4.399  1.00  0.00     0.183 A 
HETATM   27  O   UNL     1      42.081 -16.209   3.187  1.00  0.00    -0.289 OA
HETATM   28  C   UNL     1      42.885 -17.261   3.520  1.00  0.00     0.106 A 
HETATM   29  C   UNL     1      42.932 -17.341   4.902  1.00  0.00     0.093 A 
HETATM   30  C   UNL     1      43.559 -18.119   2.659  1.00  0.00     0.040 A 
HETATM   31  N   UNL     1      42.154 -16.356   5.452  1.00  0.00    -0.221 NA
HETATM   32  C   UNL     1      43.706 -18.340   5.504  1.00  0.00     0.034 A 
HETATM   33  C   UNL     1      44.403 -19.226   4.669  1.00  0.00     0.002 A 
HETATM   34  C   UNL     1      44.328 -19.116   3.274  1.00  0.00     0.003 A 
ENDBRANCH  22  26
BRANCH  23  35
HETATM   35  O   UNL     1      41.269 -14.109   6.761  1.00  0.00    -0.360 OA
HETATM   36  H   UNL     1      42.065 -13.543   6.858  1.00  0.00     0.217 HD
ENDBRANCH  23  35
ENDBRANCH   1  20
TORSDOF 10
ENDMDL
MODEL 5
REMARK VINA RESULT:      -7.9      3.390      7.143
REMARK  10 active torsions:
REMARK  status: ('A' for Active; 'I' for Inactive)
REMARK    1  A    between atoms: C_2  and  C_3 
REMARK    2  A    between atoms: C_3  and  C_4 
REMARK    3  A    between atoms: C_4  and  O_5 
REMARK    4  A    between atoms: O_5  and  C_6 
REMARK    5  A    between atoms: C_9  and  C_10 
REMARK       I    between atoms: C_10  and  N_11 
REMARK    6  A    between atoms: N_11  and  C_12 
REMARK    7  A    between atoms: C_12  and  N_13 
REMARK    8  A    between atoms: N_13  and  C_14 
REMARK    9  A    between atoms: C_16  and  C_17 
REMARK   10  A    between atoms: C_26  and  O_27 
ROOT
HETATM    1  N   UNL     1      42.004 -12.150   6.183  1.00  0.00    -0.337 N 
HETATM    2  H   UNL     1      42.419 -12.439   7.063  1.00  0.00     0.168 HD
ENDROOT
BRANCH   1   3
HETATM    3  C   UNL     1      41.043 -11.165   6.299  1.00  0.00     0.157 C 
HETATM    4  S   UNL     1      41.423  -9.770   7.133  1.00  0.00    -0.047 SA
BRANCH   3   5
HETATM    5  N   UNL     1      39.806 -11.503   5.777  1.00  0.00    -0.201 NA
HETATM    6  C   UNL     1      39.184 -10.966   4.666  1.00  0.00     0.237 C 
HETATM    7  O   UNL     1      38.322 -10.100   4.767  1.00  0.00    -0.274 OA
HETATM    8  H   UNL     1      39.155 -11.426   6.551  1.00  0.00     0.139 HD
BRANCH   6   9
HETATM    9  C   UNL     1      39.345 -11.747   3.413  1.00  0.00     0.026 A 
HETATM   10  C   UNL     1      39.579 -11.150   2.170  1.00  0.00     0.019 A 
HETATM   11  C   UNL     1      39.836 -11.950   1.054  1.00  0.00     0.038 A 
HETATM   12  C   UNL     1      39.896 -13.335   1.194  1.00  0.00     0.068 A 
HETATM   13  C   UNL     1      39.628 -13.943   2.418  1.00  0.00     0.038 A 
HETATM   14  C   UNL     1      39.348 -13.146   3.529  1.00  0.00     0.019 A 
BRANCH  12  15
HETATM   15  O   UNL     1      40.195 -14.088   0.094  1.00  0.00    -0.351 OA
BRANCH  15  16
HETATM   16  C   UNL     1      39.333 -13.758  -1.005  1.00  0.00     0.175 C 
BRANCH  16  17
HETATM   17  C   UNL     1      40.109 -13.972  -2.301  1.00  0.00     0.026 C 
BRANCH  17  18
HETATM   18  C   UNL     1      40.388 -12.654  -3.019  1.00  0.00    -0.002 C 
HETATM   19  C   UNL     1      41.344 -11.780  -2.224  1.00  0.00     0.005 C 
ENDBRANCH  17  18
ENDBRANCH  16  17
ENDBRANCH  15  16
ENDBRANCH  12  15
ENDBRANCH   6   9
ENDBRANCH   3   5
ENDBRANCH   1   3
BRANCH   1  20
HETATM   20  C   UNL     1      42.487 -12.775   5.010  1.00  0.00     0.035 A 
HETATM   21  C   UNL     1      42.729 -14.155   5.043  1.00  0.00     0.048 A 
HETATM   22  C   UNL     1      43.160 -14.839   3.891  1.00  0.00     0.052 A 
HETATM   23  C   UNL     1      43.388 -14.095   2.719  1.00  0.00     0.080 A 
HETATM   24  C   UNL     1      43.205 -12.718   2.696  1.00  0.00     0.040 A 
HETATM   25  C   UNL     1      42.757 -12.061   3.838  1.00  0.00     0.032 A 
BRANCH  22  26
HETATM   26  C   UNL     1      43.342 -16.287   3.875  1.00  0.00     0.183 A 
HETATM   27  O   UNL     1      43.050 -16.959   2.717  1.00  0.00    -0.289 OA
HETATM   28  C   UNL     1      43.334 -18.261   3.017  1.00  0.00     0.106 A 
HETATM   29  C   UNL     1      43.784 -18.308   4.326  1.00  0.00     0.093 A 
HETATM   30  C   UNL     1      43.214 -19.368   2.186  1.00  0.00     0.040 A 
HETATM   31  N   UNL     1      43.777 -17.049   4.867  1.00  0.00    -0.221 NA
HETATM   32  C   UNL     1      44.155 -19.540   4.878  1.00  0.00     0.034 A 
HETATM   33  C   UNL     1      44.049 -20.682   4.070  1.00  0.00     0.002 A 
HETATM   34  C   UNL     1      43.586 -20.595   2.751  1.00  0.00     0.003 A 
ENDBRANCH  22  26
BRANCH  23  35
HETATM   35  O   UNL     1      43.802 -14.659   1.540  1.00  0.00    -0.360 OA
HETATM   36  H   UNL     1      43.243 -15.445   1.354  1.00  0.00     0.217 HD
ENDBRANCH  23  35
ENDBRANCH   1  20
TORSDOF 10
ENDMDL
MODEL 6
REMARK VINA RESULT:      -7.9      3.582      9.025
REMARK  10 active torsions:
REMARK  status: ('A' for Active; 'I' for Inactive)
REMARK    1  A    between atoms: C_2  and  C_3 
REMARK    2  A    between atoms: C_3  and  C_4 
REMARK    3  A    between atoms: C_4  and  O_5 
REMARK    4  A    between atoms: O_5  and  C_6 
REMARK    5  A    between atoms: C_9  and  C_10 
REMARK       I    between atoms: C_10  and  N_11 
REMARK    6  A    between atoms: N_11  and  C_12 
REMARK    7  A    between atoms: C_12  and  N_13 
REMARK    8  A    between atoms: N_13  and  C_14 
REMARK    9  A    between atoms: C_16  and  C_17 
REMARK   10  A    between atoms: C_26  and  O_27 
ROOT
HETATM    1  N   UNL     1      41.880 -12.440   6.068  1.00  0.00    -0.337 N 
HETATM    2  H   UNL     1      41.135 -12.919   6.565  1.00  0.00     0.168 HD
ENDROOT
BRANCH   1   3
HETATM    3  C   UNL     1      42.310 -11.274   6.669  1.00  0.00     0.157 C 
HETATM    4  S   UNL     1      41.596  -9.833   6.222  1.00  0.00    -0.047 SA
BRANCH   3   5
HETATM    5  N   UNL     1      43.383 -11.430   7.529  1.00  0.00    -0.201 NA
HETATM    6  C   UNL     1      44.297 -10.470   7.923  1.00  0.00     0.237 C 
HETATM    7  O   UNL     1      45.401 -10.380   7.398  1.00  0.00    -0.274 OA
HETATM    8  H   UNL     1      43.913 -12.214   7.162  1.00  0.00     0.139 HD
BRANCH   6   9
HETATM    9  C   UNL     1      44.013  -9.826   9.231  1.00  0.00     0.026 A 
HETATM   10  C   UNL     1      43.695  -8.470   9.357  1.00  0.00     0.019 A 
HETATM   11  C   UNL     1      43.326  -7.958  10.603  1.00  0.00     0.038 A 
HETATM   12  C   UNL     1      43.239  -8.809  11.703  1.00  0.00     0.068 A 
HETATM   13  C   UNL     1      43.589 -10.153  11.598  1.00  0.00     0.038 A 
HETATM   14  C   UNL     1      43.980 -10.661  10.359  1.00  0.00     0.019 A 
BRANCH  12  15
HETATM   15  O   UNL     1      42.830  -8.288  12.898  1.00  0.00    -0.351 OA
BRANCH  15  16
HETATM   16  C   UNL     1      41.399  -8.179  12.949  1.00  0.00     0.175 C 
BRANCH  16  17
HETATM   17  C   UNL     1      40.872  -9.258  13.889  1.00  0.00     0.026 C 
BRANCH  17  18
HETATM   18  C   UNL     1      40.032 -10.295  13.148  1.00  0.00    -0.002 C 
HETATM   19  C   UNL     1      39.813  -9.898  11.698  1.00  0.00     0.005 C 
ENDBRANCH  17  18
ENDBRANCH  16  17
ENDBRANCH  15  16
ENDBRANCH  12  15
ENDBRANCH   6   9
ENDBRANCH   3   5
ENDBRANCH   1   3
BRANCH   1  20
HETATM   20  C   UNL     1      42.358 -13.048   4.885  1.00  0.00     0.035 A 
HETATM   21  C   UNL     1      42.644 -14.420   4.911  1.00  0.00     0.048 A 
HETATM   22  C   UNL     1      43.072 -15.089   3.749  1.00  0.00     0.052 A 
HETATM   23  C   UNL     1      43.253 -14.338   2.574  1.00  0.00     0.080 A 
HETATM   24  C   UNL     1      43.026 -12.968   2.557  1.00  0.00     0.040 A 
HETATM   25  C   UNL     1      42.581 -12.326   3.709  1.00  0.00     0.032 A 
BRANCH  22  26
HETATM   26  C   UNL     1      43.300 -16.531   3.727  1.00  0.00     0.183 A 
HETATM   27  O   UNL     1      43.583 -17.155   4.914  1.00  0.00    -0.289 OA
HETATM   28  C   UNL     1      43.722 -18.468   4.565  1.00  0.00     0.106 A 
HETATM   29  C   UNL     1      43.513 -18.571   3.199  1.00  0.00     0.093 A 
HETATM   30  C   UNL     1      44.014 -19.541   5.399  1.00  0.00     0.040 A 
HETATM   31  N   UNL     1      43.254 -17.331   2.674  1.00  0.00    -0.221 NA
HETATM   32  C   UNL     1      43.590 -19.828   2.588  1.00  0.00     0.034 A 
HETATM   33  C   UNL     1      43.882 -20.937   3.396  1.00  0.00     0.002 A 
HETATM   34  C   UNL     1      44.091 -20.793   4.774  1.00  0.00     0.003 A 
ENDBRANCH  22  26
BRANCH  23  35
HETATM   35  O   UNL     1      43.660 -14.888   1.385  1.00  0.00    -0.360 OA
HETATM   36  H   UNL     1      42.974 -15.521   1.081  1.00  0.00     0.217 HD
ENDBRANCH  23  35
ENDBRANCH   1  20
TORSDOF 10
ENDMDL
MODEL 7
REMARK VINA RESULT:      -7.8      3.756      6.373
REMARK  10 active torsions:
REMARK  status: ('A' for Active; 'I' for Inactive)
REMARK    1  A    between atoms: C_2  and  C_3 
REMARK    2  A    between atoms: C_3  and  C_4 
REMARK    3  A    between atoms: C_4  and  O_5 
REMARK    4  A    between atoms: O_5  and  C_6 
REMARK    5  A    between atoms: C_9  and  C_10 
REMARK       I    between atoms: C_10  and  N_11 
REMARK    6  A    between atoms: N_11  and  C_12 
REMARK    7  A    between atoms: C_12  and  N_13 
REMARK    8  A    between atoms: N_13  and  C_14 
REMARK    9  A    between atoms: C_16  and  C_17 
REMARK   10  A    between atoms: C_26  and  O_27 
ROOT
HETATM    1  N   UNL     1      38.318 -10.993   2.097  1.00  0.00    -0.337 N 
HETATM    2  H   UNL     1      37.354 -10.691   2.002  1.00  0.00     0.168 HD
ENDROOT
BRANCH   1   3
HETATM    3  C   UNL     1      38.914 -11.384   0.914  1.00  0.00     0.157 C 
HETATM    4  S   UNL     1      39.573 -10.213  -0.077  1.00  0.00    -0.047 SA
BRANCH   3   5
HETATM    5  N   UNL     1      38.805 -12.735   0.635  1.00  0.00    -0.201 NA
HETATM    6  C   UNL     1      39.762 -13.561   0.075  1.00  0.00     0.237 C 
HETATM    7  O   UNL     1      39.748 -13.847  -1.117  1.00  0.00    -0.274 OA
HETATM    8  H   UNL     1      37.965 -12.830   0.075  1.00  0.00     0.139 HD
BRANCH   6   9
HETATM    9  C   UNL     1      40.555 -14.358   1.046  1.00  0.00     0.026 A 
HETATM   10  C   UNL     1      40.149 -15.613   1.511  1.00  0.00     0.019 A 
HETATM   11  C   UNL     1      40.999 -16.356   2.332  1.00  0.00     0.038 A 
HETATM   12  C   UNL     1      42.262 -15.860   2.651  1.00  0.00     0.068 A 
HETATM   13  C   UNL     1      42.663 -14.596   2.225  1.00  0.00     0.038 A 
HETATM   14  C   UNL     1      41.806 -13.843   1.424  1.00  0.00     0.019 A 
BRANCH  12  15
HETATM   15  O   UNL     1      43.090 -16.631   3.419  1.00  0.00    -0.351 OA
BRANCH  15  16
HETATM   16  C   UNL     1      43.627 -17.723   2.657  1.00  0.00     0.175 C 
BRANCH  16  17
HETATM   17  C   UNL     1      44.239 -18.726   3.630  1.00  0.00     0.026 C 
BRANCH  17  18
HETATM   18  C   UNL     1      43.866 -20.162   3.271  1.00  0.00    -0.002 C 
HETATM   19  C   UNL     1      43.140 -20.232   1.938  1.00  0.00     0.005 C 
ENDBRANCH  17  18
ENDBRANCH  16  17
ENDBRANCH  15  16
ENDBRANCH  12  15
ENDBRANCH   6   9
ENDBRANCH   3   5
ENDBRANCH   1   3
BRANCH   1  20
HETATM   20  C   UNL     1      38.883 -10.940   3.392  1.00  0.00     0.035 A 
HETATM   21  C   UNL     1      39.637 -12.036   3.833  1.00  0.00     0.048 A 
HETATM   22  C   UNL     1      40.266 -12.018   5.092  1.00  0.00     0.052 A 
HETATM   23  C   UNL     1      40.079 -10.894   5.916  1.00  0.00     0.080 A 
HETATM   24  C   UNL     1      39.286  -9.829   5.508  1.00  0.00     0.040 A 
HETATM   25  C   UNL     1      38.690  -9.853   4.250  1.00  0.00     0.032 A 
BRANCH  22  26
HETATM   26  C   UNL     1      41.123 -13.111   5.544  1.00  0.00     0.183 A 
HETATM   27  O   UNL     1      40.547 -14.338   5.745  1.00  0.00    -0.289 OA
HETATM   28  C   UNL     1      41.591 -15.125   6.138  1.00  0.00     0.106 A 
HETATM   29  C   UNL     1      42.735 -14.343   6.149  1.00  0.00     0.093 A 
HETATM   30  C   UNL     1      41.557 -16.475   6.471  1.00  0.00     0.040 A 
HETATM   31  N   UNL     1      42.425 -13.061   5.778  1.00  0.00    -0.221 NA
HETATM   32  C   UNL     1      43.957 -14.923   6.510  1.00  0.00     0.034 A 
HETATM   33  C   UNL     1      43.965 -16.284   6.851  1.00  0.00     0.002 A 
HETATM   34  C   UNL     1      42.787 -17.042   6.833  1.00  0.00     0.003 A 
ENDBRANCH  22  26
BRANCH  23  35
HETATM   35  O   UNL     1      40.650 -10.768   7.157  1.00  0.00    -0.360 OA
HETATM   36  H   UNL     1      40.011 -11.089   7.830  1.00  0.00     0.217 HD
ENDBRANCH  23  35
ENDBRANCH   1  20
TORSDOF 10
ENDMDL
MODEL 8
REMARK VINA RESULT:      -7.8      3.674      8.022
REMARK  10 active torsions:
REMARK  status: ('A' for Active; 'I' for Inactive)
REMARK    1  A    between atoms: C_2  and  C_3 
REMARK    2  A    between atoms: C_3  and  C_4 
REMARK    3  A    between atoms: C_4  and  O_5 
REMARK    4  A    between atoms: O_5  and  C_6 
REMARK    5  A    between atoms: C_9  and  C_10 
REMARK       I    between atoms: C_10  and  N_11 
REMARK    6  A    between atoms: N_11  and  C_12 
REMARK    7  A    between atoms: C_12  and  N_13 
REMARK    8  A    between atoms: N_13  and  C_14 
REMARK    9  A    between atoms: C_16  and  C_17 
REMARK   10  A    between atoms: C_26  and  O_27 
ROOT
HETATM    1  N   UNL     1      42.668 -11.518   4.453  1.00  0.00    -0.337 N 
HETATM    2  H   UNL     1      43.568 -11.069   4.592  1.00  0.00     0.168 HD
ENDROOT
BRANCH   1   3
HETATM    3  C   UNL     1      41.637 -10.972   5.191  1.00  0.00     0.157 C 
HETATM    4  S   UNL     1      41.173  -9.399   4.878  1.00  0.00    -0.047 SA
BRANCH   3   5
HETATM    5  N   UNL     1      41.158 -11.788   6.202  1.00  0.00    -0.201 NA
HETATM    6  C   UNL     1      40.254 -12.828   6.090  1.00  0.00     0.237 C 
HETATM    7  O   UNL     1      39.067 -12.681   6.360  1.00  0.00    -0.274 OA
HETATM    8  H   UNL     1      40.802 -11.158   6.913  1.00  0.00     0.139 HD
BRANCH   6   9
HETATM    9  C   UNL     1      40.858 -14.182   5.996  1.00  0.00     0.026 A 
HETATM   10  C   UNL     1      40.388 -15.163   5.117  1.00  0.00     0.019 A 
HETATM   11  C   UNL     1      41.076 -16.373   4.998  1.00  0.00     0.038 A 
HETATM   12  C   UNL     1      42.247 -16.579   5.725  1.00  0.00     0.068 A 
HETATM   13  C   UNL     1      42.704 -15.624   6.630  1.00  0.00     0.038 A 
HETATM   14  C   UNL     1      42.005 -14.425   6.768  1.00  0.00     0.019 A 
BRANCH  12  15
HETATM   15  O   UNL     1      42.924 -17.753   5.552  1.00  0.00    -0.351 OA
BRANCH  15  16
HETATM   16  C   UNL     1      44.230 -17.518   5.005  1.00  0.00     0.175 C 
BRANCH  16  17
HETATM   17  C   UNL     1      44.497 -18.574   3.937  1.00  0.00     0.026 C 
BRANCH  17  18
HETATM   18  C   UNL     1      43.525 -18.456   2.767  1.00  0.00    -0.002 C 
HETATM   19  C   UNL     1      43.262 -19.808   2.124  1.00  0.00     0.005 C 
ENDBRANCH  17  18
ENDBRANCH  16  17
ENDBRANCH  15  16
ENDBRANCH  12  15
ENDBRANCH   6   9
ENDBRANCH   3   5
ENDBRANCH   1   3
BRANCH   1  20
HETATM   20  C   UNL     1      42.620 -12.587   3.529  1.00  0.00     0.035 A 
HETATM   21  C   UNL     1      41.621 -12.572   2.546  1.00  0.00     0.048 A 
HETATM   22  C   UNL     1      41.556 -13.583   1.569  1.00  0.00     0.052 A 
HETATM   23  C   UNL     1      42.488 -14.634   1.632  1.00  0.00     0.080 A 
HETATM   24  C   UNL     1      43.444 -14.685   2.639  1.00  0.00     0.040 A 
HETATM   25  C   UNL     1      43.509 -13.665   3.584  1.00  0.00     0.032 A 
BRANCH  22  26
HETATM   26  C   UNL     1      40.577 -13.549   0.486  1.00  0.00     0.183 A 
HETATM   27  O   UNL     1      39.917 -12.370   0.253  1.00  0.00    -0.289 OA
HETATM   28  C   UNL     1      39.105 -12.658  -0.807  1.00  0.00     0.106 A 
HETATM   29  C   UNL     1      39.318 -13.981  -1.160  1.00  0.00     0.093 A 
HETATM   30  C   UNL     1      38.216 -11.805  -1.450  1.00  0.00     0.040 A 
HETATM   31  N   UNL     1      40.249 -14.541  -0.326  1.00  0.00    -0.221 NA
HETATM   32  C   UNL     1      38.606 -14.524  -2.237  1.00  0.00     0.034 A 
HETATM   33  C   UNL     1      37.700 -13.694  -2.913  1.00  0.00     0.002 A 
HETATM   34  C   UNL     1      37.509 -12.362  -2.524  1.00  0.00     0.003 A 
ENDBRANCH  22  26
BRANCH  23  35
HETATM   35  O   UNL     1      42.520 -15.666   0.729  1.00  0.00    -0.360 OA
HETATM   36  H   UNL     1      41.598 -15.905   0.493  1.00  0.00     0.217 HD
ENDBRANCH  23  35
ENDBRANCH   1  20
TORSDOF 10
ENDMDL
MODEL 9
REMARK VINA RESULT:      -7.6      4.148      9.289
REMARK  10 active torsions:
REMARK  status: ('A' for Active; 'I' for Inactive)
REMARK    1  A    between atoms: C_2  and  C_3 
REMARK    2  A    between atoms: C_3  and  C_4 
REMARK    3  A    between atoms: C_4  and  O_5 
REMARK    4  A    between atoms: O_5  and  C_6 
REMARK    5  A    between atoms: C_9  and  C_10 
REMARK       I    between atoms: C_10  and  N_11 
REMARK    6  A    between atoms: N_11  and  C_12 
REMARK    7  A    between atoms: C_12  and  N_13 
REMARK    8  A    between atoms: N_13  and  C_14 
REMARK    9  A    between atoms: C_16  and  C_17 
REMARK   10  A    between atoms: C_26  and  O_27 
ROOT
HETATM    1  N   UNL     1      43.404 -10.366   6.917  1.00  0.00    -0.337 N 
HETATM    2  H   UNL     1      43.513  -9.475   6.442  1.00  0.00     0.168 HD
ENDROOT
BRANCH   1   3
HETATM    3  C   UNL     1      44.168 -10.504   8.059  1.00  0.00     0.157 C 
HETATM    4  S   UNL     1      45.828 -10.588   7.906  1.00  0.00    -0.047 SA
BRANCH   3   5
HETATM    5  N   UNL     1      43.438 -10.658   9.225  1.00  0.00    -0.201 NA
HETATM    6  C   UNL     1      43.832 -10.350  10.514  1.00  0.00     0.237 C 
HETATM    7  O   UNL     1      44.251 -11.209  11.281  1.00  0.00    -0.274 OA
HETATM    8  H   UNL     1      43.133 -11.625   9.229  1.00  0.00     0.139 HD
BRANCH   6   9
HETATM    9  C   UNL     1      43.372  -9.030  11.017  1.00  0.00     0.026 A 
HETATM   10  C   UNL     1      42.779  -8.068  10.193  1.00  0.00     0.019 A 
HETATM   11  C   UNL     1      42.266  -6.896  10.754  1.00  0.00     0.038 A 
HETATM   12  C   UNL     1      42.313  -6.711  12.134  1.00  0.00     0.068 A 
HETATM   13  C   UNL     1      42.934  -7.644  12.961  1.00  0.00     0.038 A 
HETATM   14  C   UNL     1      43.467  -8.804  12.399  1.00  0.00     0.019 A 
BRANCH  12  15
HETATM   15  O   UNL     1      41.760  -5.576  12.659  1.00  0.00    -0.351 OA
BRANCH  15  16
HETATM   16  C   UNL     1      40.364  -5.488  12.336  1.00  0.00     0.175 C 
BRANCH  16  17
HETATM   17  C   UNL     1      39.582  -6.279  13.380  1.00  0.00     0.026 C 
BRANCH  17  18
HETATM   18  C   UNL     1      38.668  -7.317  12.738  1.00  0.00    -0.002 C 
HETATM   19  C   UNL     1      39.366  -8.659  12.593  1.00  0.00     0.005 C 
ENDBRANCH  17  18
ENDBRANCH  16  17
ENDBRANCH  15  16
ENDBRANCH  12  15
ENDBRANCH   6   9
ENDBRANCH   3   5
ENDBRANCH   1   3
BRANCH   1  20
HETATM   20  C   UNL     1      42.489 -11.286   6.354  1.00  0.00     0.035 A 
HETATM   21  C   UNL     1      42.986 -12.500   5.860  1.00  0.00     0.048 A 
HETATM   22  C   UNL     1      42.116 -13.474   5.336  1.00  0.00     0.052 A 
HETATM   23  C   UNL     1      40.743 -13.180   5.275  1.00  0.00     0.080 A 
HETATM   24  C   UNL     1      40.251 -11.956   5.710  1.00  0.00     0.040 A 
HETATM   25  C   UNL     1      41.122 -11.012   6.247  1.00  0.00     0.032 A 
BRANCH  22  26
HETATM   26  C   UNL     1      42.597 -14.779   4.890  1.00  0.00     0.183 A 
HETATM   27  O   UNL     1      42.247 -15.197   3.632  1.00  0.00    -0.289 OA
HETATM   28  C   UNL     1      42.852 -16.416   3.516  1.00  0.00     0.106 A 
HETATM   29  C   UNL     1      43.534 -16.667   4.695  1.00  0.00     0.093 A 
HETATM   30  C   UNL     1      42.819 -17.278   2.426  1.00  0.00     0.040 A 
HETATM   31  N   UNL     1      43.359 -15.624   5.566  1.00  0.00    -0.221 NA
HETATM   32  C   UNL     1      44.254 -17.861   4.827  1.00  0.00     0.034 A 
HETATM   33  C   UNL     1      44.248 -18.757   3.748  1.00  0.00     0.002 A 
HETATM   34  C   UNL     1      43.542 -18.470   2.573  1.00  0.00     0.003 A 
ENDBRANCH  22  26
BRANCH  23  35
HETATM   35  O   UNL     1      39.807 -14.058   4.790  1.00  0.00    -0.360 OA
HETATM   36  H   UNL     1      40.246 -14.917   4.611  1.00  0.00     0.217 HD
ENDBRANCH  23  35
ENDBRANCH   1  20
TORSDOF 10
ENDMDL
MODEL 10
REMARK VINA RESULT:      -7.5      3.601      6.449
REMARK  10 active torsions:
REMARK  status: ('A' for Active; 'I' for Inactive)
REMARK    1  A    between atoms: C_2  and  C_3 
REMARK    2  A    between atoms: C_3  and  C_4 
REMARK    3  A    between atoms: C_4  and  O_5 
REMARK    4  A    between atoms: O_5  and  C_6 
REMARK    5  A    between atoms: C_9  and  C_10 
REMARK       I    between atoms: C_10  and  N_11 
REMARK    6  A    between atoms: N_11  and  C_12 
REMARK    7  A    between atoms: C_12  and  N_13 
REMARK    8  A    between atoms: N_13  and  C_14 
REMARK    9  A    between atoms: C_16  and  C_17 
REMARK   10  A    between atoms: C_26  and  O_27 
ROOT
HETATM    1  N   UNL     1      42.373 -10.181   5.815  1.00  0.00    -0.337 N 
HETATM    2  H   UNL     1      42.423  -9.326   5.268  1.00  0.00     0.168 HD
ENDROOT
BRANCH   1   3
HETATM    3  C   UNL     1      41.445 -11.097   5.360  1.00  0.00     0.157 C 
HETATM    4  S   UNL     1      40.921 -10.988   3.778  1.00  0.00    -0.047 SA
BRANCH   3   5
HETATM    5  N   UNL     1      40.971 -11.965   6.328  1.00  0.00    -0.201 NA
HETATM    6  C   UNL     1      40.406 -13.213   6.139  1.00  0.00     0.237 C 
HETATM    7  O   UNL     1      39.191 -13.376   6.142  1.00  0.00    -0.274 OA
HETATM    8  H   UNL     1      40.318 -11.423   6.883  1.00  0.00     0.139 HD
BRANCH   6   9
HETATM    9  C   UNL     1      41.335 -14.359   6.308  1.00  0.00     0.026 A 
HETATM   10  C   UNL     1      40.941 -15.689   6.129  1.00  0.00     0.019 A 
HETATM   11  C   UNL     1      41.894 -16.709   6.190  1.00  0.00     0.038 A 
HETATM   12  C   UNL     1      43.236 -16.391   6.389  1.00  0.00     0.068 A 
HETATM   13  C   UNL     1      43.635 -15.074   6.605  1.00  0.00     0.038 A 
HETATM   14  C   UNL     1      42.681 -14.057   6.568  1.00  0.00     0.019 A 
BRANCH  12  15
HETATM   15  O   UNL     1      44.152 -17.405   6.397  1.00  0.00    -0.351 OA
BRANCH  15  16
HETATM   16  C   UNL     1      43.812 -18.412   5.432  1.00  0.00     0.175 C 
BRANCH  16  17
HETATM   17  C   UNL     1      44.379 -17.987   4.081  1.00  0.00     0.026 C 
BRANCH  17  18
HETATM   18  C   UNL     1      43.475 -18.414   2.928  1.00  0.00    -0.002 C 
HETATM   19  C   UNL     1      42.881 -17.212   2.212  1.00  0.00     0.005 C 
ENDBRANCH  17  18
ENDBRANCH  16  17
ENDBRANCH  15  16
ENDBRANCH  12  15
ENDBRANCH   6   9
ENDBRANCH   3   5
ENDBRANCH   1   3
BRANCH   1  20
HETATM   20  C   UNL     1      43.258 -10.295   6.911  1.00  0.00     0.035 A 
HETATM   21  C   UNL     1      42.860  -9.763   8.145  1.00  0.00     0.048 A 
HETATM   22  C   UNL     1      43.678  -9.894   9.283  1.00  0.00     0.052 A 
HETATM   23  C   UNL     1      44.925 -10.527   9.140  1.00  0.00     0.080 A 
HETATM   24  C   UNL     1      45.350 -11.005   7.907  1.00  0.00     0.040 A 
HETATM   25  C   UNL     1      44.519 -10.889   6.797  1.00  0.00     0.032 A 
BRANCH  22  26
HETATM   26  C   UNL     1      43.253  -9.421  10.598  1.00  0.00     0.183 A 
HETATM   27  O   UNL     1      42.162 -10.018  11.174  1.00  0.00    -0.289 OA
HETATM   28  C   UNL     1      42.038  -9.377  12.373  1.00  0.00     0.106 A 
HETATM   29  C   UNL     1      43.053  -8.438  12.463  1.00  0.00     0.093 A 
HETATM   30  C   UNL     1      41.083  -9.600  13.359  1.00  0.00     0.040 A 
HETATM   31  N   UNL     1      43.815  -8.468  11.324  1.00  0.00    -0.221 NA
HETATM   32  C   UNL     1      43.154  -7.648  13.614  1.00  0.00     0.034 A 
HETATM   33  C   UNL     1      42.210  -7.844  14.633  1.00  0.00     0.002 A 
HETATM   34  C   UNL     1      41.195  -8.800  14.504  1.00  0.00     0.003 A 
ENDBRANCH  22  26
BRANCH  23  35
HETATM   35  O   UNL     1      45.797 -10.714  10.182  1.00  0.00    -0.360 OA
HETATM   36  H   UNL     1      45.609 -10.041  10.873  1.00  0.00     0.217 HD
ENDBRANCH  23  35
ENDBRANCH   1  20
TORSDOF 10
ENDMDL
