MODEL 1
REMARK VINA RESULT:      -8.4      0.000      0.000
REMARK  5 active torsions:
REMARK  status: ('A' for Active; 'I' for Inactive)
REMARK    1  A    between atoms: C_3  and  N_4 
REMARK       I    between atoms: N_4  and  C_5 
REMARK       I    between atoms: C_5  and  N_6 
REMARK    2  A    between atoms: N_6  and  C_7 
REMARK    3  A    between atoms: C_7  and  C_8 
REMARK    4  A    between atoms: C_16  and  N_17 
REMARK       I    between atoms: N_17  and  C_18 
REMARK    5  A    between atoms: C_18  and  C_19 
ROOT
HETATM    1  C   UNL     1      42.318 -10.433   5.685  1.00  0.00     0.050 C 
HETATM    2  C   UNL     1      42.534 -11.882   6.037  1.00  0.00    -0.035 A 
HETATM    3  C   UNL     1      43.783 -12.376   6.456  1.00  0.00     0.044 A 
HETATM    4  C   UNL     1      43.933 -13.740   6.788  1.00  0.00     0.059 A 
HETATM    5  C   UNL     1      42.861 -14.624   6.665  1.00  0.00     0.037 A 
HETATM    6  C   UNL     1      41.636 -14.126   6.195  1.00  0.00     0.030 A 
HETATM    7  C   UNL     1      41.471 -12.774   5.892  1.00  0.00     0.011 A 
ENDROOT
BRANCH   3   8
HETATM    8  N   UNL     1      44.846 -11.465   6.604  1.00  0.00    -0.308 N 
HETATM    9  C   UNL     1      45.164 -10.630   7.631  1.00  0.00     0.321 C 
HETATM   10  N   UNL     1      44.530 -10.831   8.814  1.00  0.00    -0.336 N 
HETATM   11  O   UNL     1      46.078  -9.818   7.496  1.00  0.00    -0.247 OA
HETATM   12  H   UNL     1      44.051 -11.712   8.948  1.00  0.00     0.164 HD
HETATM   13  H   UNL     1      45.586 -11.493   5.915  1.00  0.00     0.170 HD
BRANCH  10  14
HETATM   14  C   UNL     1      45.042 -10.224  10.018  1.00  0.00     0.202 C 
BRANCH  14  15
HETATM   15  C   UNL     1      43.896  -9.785  10.864  1.00  0.00     0.121 A 
HETATM   16  N   UNL     1      43.842  -8.732  11.661  1.00  0.00    -0.244 NA
HETATM   17  C   UNL     1      42.592  -8.752  12.221  1.00  0.00     0.135 A 
HETATM   18  C   UNL     1      41.867  -9.820  11.752  1.00  0.00     0.109 A 
HETATM   19  N   UNL     1      42.702 -10.466  10.883  1.00  0.00    -0.352 N 
HETATM   20  H   UNL     1      42.485 -11.294  10.346  1.00  0.00     0.166 HD
ENDBRANCH  14  15
ENDBRANCH  10  14
ENDBRANCH   3   8
BRANCH   5  21
HETATM   21  N   UNL     1      42.844 -15.980   7.037  1.00  0.00    -0.323 N 
HETATM   22  C   UNL     1      43.111 -17.173   6.421  1.00  0.00     0.256 C 
HETATM   23  O   UNL     1      43.270 -18.170   7.131  1.00  0.00    -0.267 OA
HETATM   24  H   UNL     1      42.725 -16.152   8.030  1.00  0.00     0.169 HD
BRANCH  22  25
HETATM   25  C   UNL     1      43.189 -17.363   4.965  1.00  0.00     0.032 A 
HETATM   26  C   UNL     1      42.252 -16.783   4.106  1.00  0.00     0.017 A 
HETATM   27  C   UNL     1      42.273 -17.108   2.748  1.00  0.00     0.001 A 
HETATM   28  C   UNL     1      43.210 -18.015   2.251  1.00  0.00     0.000 A 
HETATM   29  C   UNL     1      44.127 -18.613   3.114  1.00  0.00     0.001 A 
HETATM   30  C   UNL     1      44.111 -18.295   4.471  1.00  0.00     0.017 A 
ENDBRANCH  22  25
ENDBRANCH   5  21
TORSDOF 5
ENDMDL
MODEL 2
REMARK VINA RESULT:      -8.3      3.607      6.204
REMARK  5 active torsions:
REMARK  status: ('A' for Active; 'I' for Inactive)
REMARK    1  A    between atoms: C_3  and  N_4 
REMARK       I    between atoms: N_4  and  C_5 
REMARK       I    between atoms: C_5  and  N_6 
REMARK    2  A    between atoms: N_6  and  C_7 
REMARK    3  A    between atoms: C_7  and  C_8 
REMARK    4  A    between atoms: C_16  and  N_17 
REMARK       I    between atoms: N_17  and  C_18 
REMARK    5  A    between atoms: C_18  and  C_19 
ROOT
HETATM    1  C   UNL     1      43.017 -11.498   6.119  1.00  0.00     0.050 C 
HETATM    2  C   UNL     1      42.899 -12.973   6.396  1.00  0.00    -0.035 A 
HETATM    3  C   UNL     1      41.659 -13.602   6.612  1.00  0.00     0.044 A 
HETATM    4  C   UNL     1      41.600 -14.991   6.854  1.00  0.00     0.059 A 
HETATM    5  C   UNL     1      42.766 -15.752   6.925  1.00  0.00     0.037 A 
HETATM    6  C   UNL     1      43.998 -15.101   6.759  1.00  0.00     0.030 A 
HETATM    7  C   UNL     1      44.066 -13.734   6.491  1.00  0.00     0.011 A 
ENDROOT
BRANCH   3   8
HETATM    8  N   UNL     1      40.490 -12.826   6.507  1.00  0.00    -0.308 N 
HETATM    9  C   UNL     1      39.810 -12.389   5.411  1.00  0.00     0.321 C 
HETATM   10  N   UNL     1      40.128 -12.950   4.217  1.00  0.00    -0.336 N 
HETATM   11  O   UNL     1      38.870 -11.607   5.550  1.00  0.00    -0.247 OA
HETATM   12  H   UNL     1      40.661 -13.810   4.228  1.00  0.00     0.164 HD
HETATM   13  H   UNL     1      39.968 -12.647   7.354  1.00  0.00     0.170 HD
BRANCH  10  14
HETATM   14  C   UNL     1      39.243 -12.793   3.089  1.00  0.00     0.202 C 
BRANCH  14  15
HETATM   15  C   UNL     1      39.568 -13.834   2.071  1.00  0.00     0.121 A 
HETATM   16  N   UNL     1      39.988 -13.642   0.833  1.00  0.00    -0.244 NA
HETATM   17  C   UNL     1      40.144 -14.893   0.296  1.00  0.00     0.135 A 
HETATM   18  C   UNL     1      39.831 -15.860   1.219  1.00  0.00     0.109 A 
HETATM   19  N   UNL     1      39.473 -15.177   2.347  1.00  0.00    -0.352 N 
HETATM   20  H   UNL     1      39.193 -15.581   3.230  1.00  0.00     0.166 HD
ENDBRANCH  14  15
ENDBRANCH  10  14
ENDBRANCH   3   8
BRANCH   5  21
HETATM   21  N   UNL     1      42.851 -17.148   7.075  1.00  0.00    -0.323 N 
HETATM   22  C   UNL     1      43.249 -18.199   6.292  1.00  0.00     0.256 C 
HETATM   23  O   UNL     1      43.464 -19.283   6.842  1.00  0.00    -0.267 OA
HETATM   24  H   UNL     1      42.705 -17.490   8.019  1.00  0.00     0.169 HD
BRANCH  22  25
HETATM   25  C   UNL     1      43.407 -18.140   4.832  1.00  0.00     0.032 A 
HETATM   26  C   UNL     1      42.773 -17.155   4.071  1.00  0.00     0.017 A 
HETATM   27  C   UNL     1      42.828 -17.222   2.677  1.00  0.00     0.001 A 
HETATM   28  C   UNL     1      43.495 -18.272   2.045  1.00  0.00     0.000 A 
HETATM   29  C   UNL     1      44.105 -19.269   2.804  1.00  0.00     0.001 A 
HETATM   30  C   UNL     1      44.053 -19.209   4.196  1.00  0.00     0.017 A 
ENDBRANCH  22  25
ENDBRANCH   5  21
TORSDOF 5
ENDMDL
MODEL 3
REMARK VINA RESULT:      -8.3      6.805      9.495
REMARK  5 active torsions:
REMARK  status: ('A' for Active; 'I' for Inactive)
REMARK    1  A    between atoms: C_3  and  N_4 
REMARK       I    between atoms: N_4  and  C_5 
REMARK       I    between atoms: C_5  and  N_6 
REMARK    2  A    between atoms: N_6  and  C_7 
REMARK    3  A    between atoms: C_7  and  C_8 
REMARK    4  A    between atoms: C_16  and  N_17 
REMARK       I    between atoms: N_17  and  C_18 
REMARK    5  A    between atoms: C_18  and  C_19 
ROOT
HETATM    1  C   UNL     1      41.272 -11.758  -0.727  1.00  0.00     0.050 C 
HETATM    2  C   UNL     1      40.897 -12.713   0.375  1.00  0.00    -0.035 A 
HETATM    3  C   UNL     1      40.349 -13.983   0.116  1.00  0.00     0.044 A 
HETATM    4  C   UNL     1      40.026 -14.849   1.184  1.00  0.00     0.059 A 
HETATM    5  C   UNL     1      40.205 -14.445   2.506  1.00  0.00     0.037 A 
HETATM    6  C   UNL     1      40.704 -13.156   2.748  1.00  0.00     0.030 A 
HETATM    7  C   UNL     1      41.052 -12.304   1.700  1.00  0.00     0.011 A 
ENDROOT
BRANCH   3   8
HETATM    8  N   UNL     1      40.204 -14.387  -1.224  1.00  0.00    -0.308 N 
HETATM    9  C   UNL     1      39.131 -14.322  -2.060  1.00  0.00     0.321 C 
HETATM   10  N   UNL     1      38.086 -13.548  -1.671  1.00  0.00    -0.336 N 
HETATM   11  O   UNL     1      39.188 -14.855  -3.167  1.00  0.00    -0.247 OA
HETATM   12  H   UNL     1      38.244 -12.883  -0.924  1.00  0.00     0.164 HD
HETATM   13  H   UNL     1      41.039 -14.659  -1.725  1.00  0.00     0.170 HD
BRANCH  10  14
HETATM   14  C   UNL     1      37.079 -13.163  -2.628  1.00  0.00     0.202 C 
BRANCH  14  15
HETATM   15  C   UNL     1      37.144 -11.687  -2.833  1.00  0.00     0.121 A 
HETATM   16  N   UNL     1      36.261 -10.783  -2.447  1.00  0.00    -0.244 NA
HETATM   17  C   UNL     1      36.759  -9.577  -2.864  1.00  0.00     0.135 A 
HETATM   18  C   UNL     1      37.965  -9.741  -3.498  1.00  0.00     0.109 A 
HETATM   19  N   UNL     1      38.206 -11.086  -3.466  1.00  0.00    -0.352 N 
HETATM   20  H   UNL     1      39.019 -11.560  -3.837  1.00  0.00     0.166 HD
ENDBRANCH  14  15
ENDBRANCH  10  14
ENDBRANCH   3   8
BRANCH   5  21
HETATM   21  N   UNL     1      40.008 -15.228   3.658  1.00  0.00    -0.323 N 
HETATM   22  C   UNL     1      40.754 -16.121   4.380  1.00  0.00     0.256 C 
HETATM   23  O   UNL     1      40.367 -16.416   5.514  1.00  0.00    -0.267 OA
HETATM   24  H   UNL     1      39.164 -15.020   4.181  1.00  0.00     0.169 HD
BRANCH  22  25
HETATM   25  C   UNL     1      41.969 -16.786   3.887  1.00  0.00     0.032 A 
HETATM   26  C   UNL     1      42.055 -17.265   2.577  1.00  0.00     0.017 A 
HETATM   27  C   UNL     1      43.165 -18.020   2.194  1.00  0.00     0.001 A 
HETATM   28  C   UNL     1      44.175 -18.310   3.112  1.00  0.00     0.000 A 
HETATM   29  C   UNL     1      44.076 -17.854   4.425  1.00  0.00     0.001 A 
HETATM   30  C   UNL     1      42.969 -17.101   4.816  1.00  0.00     0.017 A 
ENDBRANCH  22  25
ENDBRANCH   5  21
TORSDOF 5
ENDMDL
MODEL 4
REMARK VINA RESULT:      -8.2      3.124      5.131
REMARK  5 active torsions:
REMARK  status: ('A' for Active; 'I' for Inactive)
REMARK    1  A    between atoms: C_3  and  N_4 
REMARK       I    between atoms: N_4  and  C_5 
REMARK       I    between atoms: C_5  and  N_6 
REMARK    2  A    between atoms: N_6  and  C_7 
REMARK    3  A    between atoms: C_7  and  C_8 
REMARK    4  A    between atoms: C_16  and  N_17 
REMARK       I    between atoms: N_17  and  C_18 
REMARK    5  A    between atoms: C_18  and  C_19 
ROOT
HETATM    1  C   UNL     1      39.737 -13.698   0.904  1.00  0.00     0.050 C 
HETATM    2  C   UNL     1      40.792 -14.627   1.445  1.00  0.00    -0.035 A 
HETATM    3  C   UNL     1      42.096 -14.191   1.746  1.00  0.00     0.044 A 
HETATM    4  C   UNL     1      43.046 -15.097   2.264  1.00  0.00     0.059 A 
HETATM    5  C   UNL     1      42.723 -16.441   2.446  1.00  0.00     0.037 A 
HETATM    6  C   UNL     1      41.435 -16.871   2.092  1.00  0.00     0.030 A 
HETATM    7  C   UNL     1      40.480 -15.978   1.605  1.00  0.00     0.011 A 
ENDROOT
BRANCH   3   8
HETATM    8  N   UNL     1      42.397 -12.825   1.586  1.00  0.00    -0.308 N 
HETATM    9  C   UNL     1      42.205 -11.770   2.424  1.00  0.00     0.321 C 
HETATM   10  N   UNL     1      41.895 -12.049   3.716  1.00  0.00    -0.336 N 
HETATM   11  O   UNL     1      42.431 -10.628   2.027  1.00  0.00    -0.247 OA
HETATM   12  H   UNL     1      42.056 -12.993   4.045  1.00  0.00     0.164 HD
HETATM   13  H   UNL     1      42.960 -12.559   0.789  1.00  0.00     0.170 HD
BRANCH  10  14
HETATM   14  C   UNL     1      42.007 -11.023   4.722  1.00  0.00     0.202 C 
BRANCH  14  15
HETATM   15  C   UNL     1      43.192 -11.313   5.579  1.00  0.00     0.121 A 
HETATM   16  N   UNL     1      44.468 -11.217   5.245  1.00  0.00    -0.244 NA
HETATM   17  C   UNL     1      45.172 -11.589   6.359  1.00  0.00     0.135 A 
HETATM   18  C   UNL     1      44.322 -11.903   7.390  1.00  0.00     0.109 A 
HETATM   19  N   UNL     1      43.065 -11.716   6.886  1.00  0.00    -0.352 N 
HETATM   20  H   UNL     1      42.194 -11.846   7.383  1.00  0.00     0.166 HD
ENDBRANCH  14  15
ENDBRANCH  10  14
ENDBRANCH   3   8
BRANCH   5  21
HETATM   21  N   UNL     1      43.536 -17.430   3.028  1.00  0.00    -0.323 N 
HETATM   22  C   UNL     1      43.788 -17.875   4.298  1.00  0.00     0.256 C 
HETATM   23  O   UNL     1      44.353 -18.964   4.430  1.00  0.00    -0.267 OA
HETATM   24  H   UNL     1      43.967 -18.073   2.372  1.00  0.00     0.169 HD
BRANCH  22  25
HETATM   25  C   UNL     1      43.465 -17.129   5.523  1.00  0.00     0.032 A 
HETATM   26  C   UNL     1      42.143 -16.919   5.919  1.00  0.00     0.017 A 
HETATM   27  C   UNL     1      41.875 -16.083   7.004  1.00  0.00     0.001 A 
HETATM   28  C   UNL     1      42.916 -15.447   7.682  1.00  0.00     0.000 A 
HETATM   29  C   UNL     1      44.234 -15.636   7.270  1.00  0.00     0.001 A 
HETATM   30  C   UNL     1      44.509 -16.469   6.186  1.00  0.00     0.017 A 
ENDBRANCH  22  25
ENDBRANCH   5  21
TORSDOF 5
ENDMDL
MODEL 5
REMARK VINA RESULT:      -8.1      2.494      3.126
REMARK  5 active torsions:
REMARK  status: ('A' for Active; 'I' for Inactive)
REMARK    1  A    between atoms: C_3  and  N_4 
REMARK       I    between atoms: N_4  and  C_5 
REMARK       I    between atoms: C_5  and  N_6 
REMARK    2  A    between atoms: N_6  and  C_7 
REMARK    3  A    between atoms: C_7  and  C_8 
REMARK    4  A    between atoms: C_16  and  N_17 
REMARK       I    between atoms: N_17  and  C_18 
REMARK    5  A    between atoms: C_18  and  C_19 
ROOT
HETATM    1  C   UNL     1      42.320 -10.462   4.738  1.00  0.00     0.050 C 
HETATM    2  C   UNL     1      42.304 -11.841   5.342  1.00  0.00    -0.035 A 
HETATM    3  C   UNL     1      41.127 -12.432   5.837  1.00  0.00     0.044 A 
HETATM    4  C   UNL     1      41.160 -13.734   6.382  1.00  0.00     0.059 A 
HETATM    5  C   UNL     1      42.361 -14.436   6.475  1.00  0.00     0.037 A 
HETATM    6  C   UNL     1      43.535 -13.813   6.024  1.00  0.00     0.030 A 
HETATM    7  C   UNL     1      43.508 -12.538   5.459  1.00  0.00     0.011 A 
ENDROOT
BRANCH   3   8
HETATM    8  N   UNL     1      39.918 -11.723   5.708  1.00  0.00    -0.308 N 
HETATM    9  C   UNL     1      39.242 -10.950   6.602  1.00  0.00     0.321 C 
HETATM   10  N   UNL     1      39.902 -10.581   7.730  1.00  0.00    -0.336 N 
HETATM   11  O   UNL     1      38.126 -10.521   6.314  1.00  0.00    -0.247 OA
HETATM   12  H   UNL     1      40.909 -10.685   7.741  1.00  0.00     0.164 HD
HETATM   13  H   UNL     1      39.517 -11.644   4.783  1.00  0.00     0.170 HD
BRANCH  10  14
HETATM   14  C   UNL     1      39.388  -9.510   8.547  1.00  0.00     0.202 C 
BRANCH  14  15
HETATM   15  C   UNL     1      40.051  -9.561   9.882  1.00  0.00     0.121 A 
HETATM   16  N   UNL     1      39.469  -9.539  11.069  1.00  0.00    -0.244 NA
HETATM   17  C   UNL     1      40.487  -9.603  11.983  1.00  0.00     0.135 A 
HETATM   18  C   UNL     1      41.704  -9.679  11.351  1.00  0.00     0.109 A 
HETATM   19  N   UNL     1      41.415  -9.660  10.015  1.00  0.00    -0.352 N 
HETATM   20  H   UNL     1      42.081  -9.713   9.256  1.00  0.00     0.166 HD
ENDBRANCH  14  15
ENDBRANCH  10  14
ENDBRANCH   3   8
BRANCH   5  21
HETATM   21  N   UNL     1      42.528 -15.762   6.913  1.00  0.00    -0.323 N 
HETATM   22  C   UNL     1      42.936 -16.941   6.347  1.00  0.00     0.256 C 
HETATM   23  O   UNL     1      43.238 -17.871   7.101  1.00  0.00    -0.267 OA
HETATM   24  H   UNL     1      42.454 -15.897   7.916  1.00  0.00     0.169 HD
BRANCH  22  25
HETATM   25  C   UNL     1      43.007 -17.194   4.901  1.00  0.00     0.032 A 
HETATM   26  C   UNL     1      42.050 -16.676   4.025  1.00  0.00     0.017 A 
HETATM   27  C   UNL     1      42.068 -17.061   2.683  1.00  0.00     0.001 A 
HETATM   28  C   UNL     1      43.024 -17.966   2.219  1.00  0.00     0.000 A 
HETATM   29  C   UNL     1      43.962 -18.502   3.099  1.00  0.00     0.001 A 
HETATM   30  C   UNL     1      43.949 -18.124   4.441  1.00  0.00     0.017 A 
ENDBRANCH  22  25
ENDBRANCH   5  21
TORSDOF 5
ENDMDL
MODEL 6
REMARK VINA RESULT:      -8.0      1.940      2.699
REMARK  5 active torsions:
REMARK  status: ('A' for Active; 'I' for Inactive)
REMARK    1  A    between atoms: C_3  and  N_4 
REMARK       I    between atoms: N_4  and  C_5 
REMARK       I    between atoms: C_5  and  N_6 
REMARK    2  A    between atoms: N_6  and  C_7 
REMARK    3  A    between atoms: C_7  and  C_8 
REMARK    4  A    between atoms: C_16  and  N_17 
REMARK       I    between atoms: N_17  and  C_18 
REMARK    5  A    between atoms: C_18  and  C_19 
ROOT
HETATM    1  C   UNL     1      45.288 -11.392   6.849  1.00  0.00     0.050 C 
HETATM    2  C   UNL     1      44.079 -12.254   6.597  1.00  0.00    -0.035 A 
HETATM    3  C   UNL     1      42.810 -11.710   6.327  1.00  0.00     0.044 A 
HETATM    4  C   UNL     1      41.710 -12.559   6.083  1.00  0.00     0.059 A 
HETATM    5  C   UNL     1      41.853 -13.945   6.147  1.00  0.00     0.037 A 
HETATM    6  C   UNL     1      43.113 -14.471   6.469  1.00  0.00     0.030 A 
HETATM    7  C   UNL     1      44.213 -13.641   6.684  1.00  0.00     0.011 A 
ENDROOT
BRANCH   3   8
HETATM    8  N   UNL     1      42.690 -10.310   6.235  1.00  0.00    -0.308 N 
HETATM    9  C   UNL     1      42.141  -9.408   7.095  1.00  0.00     0.321 C 
HETATM   10  N   UNL     1      41.861  -9.838   8.352  1.00  0.00    -0.336 N 
HETATM   11  O   UNL     1      42.030  -8.232   6.754  1.00  0.00    -0.247 OA
HETATM   12  H   UNL     1      42.284 -10.705   8.658  1.00  0.00     0.164 HD
HETATM   13  H   UNL     1      43.187  -9.845   5.488  1.00  0.00     0.170 HD
BRANCH  10  14
HETATM   14  C   UNL     1      41.601  -8.881   9.399  1.00  0.00     0.202 C 
BRANCH  14  15
HETATM   15  C   UNL     1      42.117  -9.423  10.688  1.00  0.00     0.121 A 
HETATM   16  N   UNL     1      41.871  -8.971  11.906  1.00  0.00    -0.244 NA
HETATM   17  C   UNL     1      42.568  -9.790  12.754  1.00  0.00     0.135 A 
HETATM   18  C   UNL     1      43.237 -10.762  12.051  1.00  0.00     0.109 A 
HETATM   19  N   UNL     1      42.938 -10.524  10.739  1.00  0.00    -0.352 N 
HETATM   20  H   UNL     1      43.256 -11.062   9.944  1.00  0.00     0.166 HD
ENDBRANCH  14  15
ENDBRANCH  10  14
ENDBRANCH   3   8
BRANCH   5  21
HETATM   21  N   UNL     1      40.871 -14.906   5.846  1.00  0.00    -0.323 N 
HETATM   22  C   UNL     1      40.737 -15.927   4.943  1.00  0.00     0.256 C 
HETATM   23  O   UNL     1      39.853 -16.765   5.142  1.00  0.00    -0.267 OA
HETATM   24  H   UNL     1      40.111 -14.970   6.516  1.00  0.00     0.169 HD
BRANCH  22  25
HETATM   25  C   UNL     1      41.551 -16.079   3.729  1.00  0.00     0.032 A 
HETATM   26  C   UNL     1      42.600 -16.999   3.667  1.00  0.00     0.017 A 
HETATM   27  C   UNL     1      43.440 -17.009   2.552  1.00  0.00     0.001 A 
HETATM   28  C   UNL     1      43.246 -16.099   1.512  1.00  0.00     0.000 A 
HETATM   29  C   UNL     1      42.215 -15.164   1.586  1.00  0.00     0.001 A 
HETATM   30  C   UNL     1      41.374 -15.147   2.697  1.00  0.00     0.017 A 
ENDBRANCH  22  25
ENDBRANCH   5  21
TORSDOF 5
ENDMDL
MODEL 7
REMARK VINA RESULT:      -7.8      3.016      6.091
REMARK  5 active torsions:
REMARK  status: ('A' for Active; 'I' for Inactive)
REMARK    1  A    between atoms: C_3  and  N_4 
REMARK       I    between atoms: N_4  and  C_5 
REMARK       I    between atoms: C_5  and  N_6 
REMARK    2  A    between atoms: N_6  and  C_7 
REMARK    3  A    between atoms: C_7  and  C_8 
REMARK    4  A    between atoms: C_16  and  N_17 
REMARK       I    between atoms: N_17  and  C_18 
REMARK    5  A    between atoms: C_18  and  C_19 
ROOT
HETATM    1  C   UNL     1      44.588 -18.031   4.988  1.00  0.00     0.050 C 
HETATM    2  C   UNL     1      43.498 -17.480   4.107  1.00  0.00    -0.035 A 
HETATM    3  C   UNL     1      42.433 -16.714   4.617  1.00  0.00     0.044 A 
HETATM    4  C   UNL     1      41.442 -16.207   3.749  1.00  0.00     0.059 A 
HETATM    5  C   UNL     1      41.479 -16.492   2.384  1.00  0.00     0.037 A 
HETATM    6  C   UNL     1      42.518 -17.300   1.899  1.00  0.00     0.030 A 
HETATM    7  C   UNL     1      43.518 -17.781   2.744  1.00  0.00     0.011 A 
ENDROOT
BRANCH   3   8
HETATM    8  N   UNL     1      42.427 -16.411   5.992  1.00  0.00    -0.308 N 
HETATM    9  C   UNL     1      42.588 -15.225   6.640  1.00  0.00     0.321 C 
HETATM   10  N   UNL     1      42.514 -14.093   5.894  1.00  0.00    -0.336 N 
HETATM   11  O   UNL     1      42.673 -15.209   7.867  1.00  0.00    -0.247 OA
HETATM   12  H   UNL     1      42.112 -14.165   4.968  1.00  0.00     0.164 HD
HETATM   13  H   UNL     1      42.135 -17.138   6.631  1.00  0.00     0.170 HD
BRANCH  10  14
HETATM   14  C   UNL     1      42.339 -12.816   6.539  1.00  0.00     0.202 C 
BRANCH  14  15
HETATM   15  C   UNL     1      43.672 -12.163   6.689  1.00  0.00     0.121 A 
HETATM   16  N   UNL     1      44.291 -11.848   7.813  1.00  0.00    -0.244 NA
HETATM   17  C   UNL     1      45.474 -11.270   7.436  1.00  0.00     0.135 A 
HETATM   18  C   UNL     1      45.589 -11.244   6.068  1.00  0.00     0.109 A 
HETATM   19  N   UNL     1      44.441 -11.821   5.602  1.00  0.00    -0.352 N 
HETATM   20  H   UNL     1      44.197 -11.975   4.633  1.00  0.00     0.166 HD
ENDBRANCH  14  15
ENDBRANCH  10  14
ENDBRANCH   3   8
BRANCH   5  21
HETATM   21  N   UNL     1      40.613 -15.988   1.397  1.00  0.00    -0.323 N 
HETATM   22  C   UNL     1      40.209 -14.746   0.984  1.00  0.00     0.256 C 
HETATM   23  O   UNL     1      39.647 -14.654  -0.112  1.00  0.00    -0.267 OA
HETATM   24  H   UNL     1      40.277 -16.673   0.728  1.00  0.00     0.169 HD
BRANCH  22  25
HETATM   25  C   UNL     1      40.363 -13.513   1.768  1.00  0.00     0.032 A 
HETATM   26  C   UNL     1      41.569 -12.809   1.786  1.00  0.00     0.017 A 
HETATM   27  C   UNL     1      41.721 -11.729   2.658  1.00  0.00     0.001 A 
HETATM   28  C   UNL     1      40.685 -11.361   3.517  1.00  0.00     0.000 A 
HETATM   29  C   UNL     1      39.490 -12.080   3.517  1.00  0.00     0.001 A 
HETATM   30  C   UNL     1      39.332 -13.161   2.650  1.00  0.00     0.017 A 
ENDBRANCH  22  25
ENDBRANCH   5  21
TORSDOF 5
ENDMDL
MODEL 8
REMARK VINA RESULT:      -7.8      5.147      6.980
REMARK  5 active torsions:
REMARK  status: ('A' for Active; 'I' for Inactive)
REMARK    1  A    between atoms: C_3  and  N_4 
REMARK       I    between atoms: N_4  and  C_5 
REMARK       I    between atoms: C_5  and  N_6 
REMARK    2  A    between atoms: N_6  and  C_7 
REMARK    3  A    between atoms: C_7  and  C_8 
REMARK    4  A    between atoms: C_16  and  N_17 
REMARK       I    between atoms: N_17  and  C_18 
REMARK    5  A    between atoms: C_18  and  C_19 
ROOT
HETATM    1  C   UNL     1      40.556 -16.207   4.484  1.00  0.00     0.050 C 
HETATM    2  C   UNL     1      40.750 -15.242   3.344  1.00  0.00    -0.035 A 
HETATM    3  C   UNL     1      40.262 -13.923   3.383  1.00  0.00     0.044 A 
HETATM    4  C   UNL     1      40.482 -13.051   2.295  1.00  0.00     0.059 A 
HETATM    5  C   UNL     1      41.147 -13.494   1.151  1.00  0.00     0.037 A 
HETATM    6  C   UNL     1      41.581 -14.828   1.107  1.00  0.00     0.030 A 
HETATM    7  C   UNL     1      41.394 -15.688   2.189  1.00  0.00     0.011 A 
ENDROOT
BRANCH   3   8
HETATM    8  N   UNL     1      39.621 -13.483   4.556  1.00  0.00    -0.308 N 
HETATM    9  C   UNL     1      40.079 -12.720   5.586  1.00  0.00     0.321 C 
HETATM   10  N   UNL     1      41.252 -12.062   5.399  1.00  0.00    -0.336 N 
HETATM   11  O   UNL     1      39.378 -12.559   6.584  1.00  0.00    -0.247 OA
HETATM   12  H   UNL     1      41.595 -11.972   4.451  1.00  0.00     0.164 HD
HETATM   13  H   UNL     1      38.622 -13.626   4.626  1.00  0.00     0.170 HD
BRANCH  10  14
HETATM   14  C   UNL     1      41.627 -10.992   6.290  1.00  0.00     0.202 C 
BRANCH  14  15
HETATM   15  C   UNL     1      43.068 -11.140   6.643  1.00  0.00     0.121 A 
HETATM   16  N   UNL     1      43.657 -10.803   7.777  1.00  0.00    -0.244 NA
HETATM   17  C   UNL     1      44.978 -11.127   7.621  1.00  0.00     0.135 A 
HETATM   18  C   UNL     1      45.200 -11.682   6.385  1.00  0.00     0.109 A 
HETATM   19  N   UNL     1      43.978 -11.693   5.773  1.00  0.00    -0.352 N 
HETATM   20  H   UNL     1      43.773 -12.047   4.849  1.00  0.00     0.166 HD
ENDBRANCH  14  15
ENDBRANCH  10  14
ENDBRANCH   3   8
BRANCH   5  21
HETATM   21  N   UNL     1      41.507 -12.718   0.035  1.00  0.00    -0.323 N 
HETATM   22  C   UNL     1      40.911 -12.349  -1.141  1.00  0.00     0.256 C 
HETATM   23  O   UNL     1      41.410 -11.416  -1.777  1.00  0.00    -0.267 OA
HETATM   24  H   UNL     1      42.365 -12.186   0.140  1.00  0.00     0.169 HD
BRANCH  22  25
HETATM   25  C   UNL     1      39.733 -13.008  -1.723  1.00  0.00     0.032 A 
HETATM   26  C   UNL     1      39.853 -14.180  -2.474  1.00  0.00     0.017 A 
HETATM   27  C   UNL     1      38.733 -14.691  -3.133  1.00  0.00     0.001 A 
HETATM   28  C   UNL     1      37.505 -14.032  -3.057  1.00  0.00     0.000 A 
HETATM   29  C   UNL     1      37.392 -12.849  -2.329  1.00  0.00     0.001 A 
HETATM   30  C   UNL     1      38.507 -12.331  -1.670  1.00  0.00     0.017 A 
ENDBRANCH  22  25
ENDBRANCH   5  21
TORSDOF 5
ENDMDL
MODEL 9
REMARK VINA RESULT:      -7.7      5.092      8.388
REMARK  5 active torsions:
REMARK  status: ('A' for Active; 'I' for Inactive)
REMARK    1  A    between atoms: C_3  and  N_4 
REMARK       I    between atoms: N_4  and  C_5 
REMARK       I    between atoms: C_5  and  N_6 
REMARK    2  A    between atoms: N_6  and  C_7 
REMARK    3  A    between atoms: C_7  and  C_8 
REMARK    4  A    between atoms: C_16  and  N_17 
REMARK       I    between atoms: N_17  and  C_18 
REMARK    5  A    between atoms: C_18  and  C_19 
ROOT
HETATM    1  C   UNL     1      42.615 -13.052   4.512  1.00  0.00     0.050 C 
HETATM    2  C   UNL     1      41.796 -13.650   3.399  1.00  0.00    -0.035 A 
HETATM    3  C   UNL     1      40.740 -14.548   3.641  1.00  0.00     0.044 A 
HETATM    4  C   UNL     1      39.992 -15.072   2.564  1.00  0.00     0.059 A 
HETATM    5  C   UNL     1      40.313 -14.742   1.247  1.00  0.00     0.037 A 
HETATM    6  C   UNL     1      41.402 -13.886   1.021  1.00  0.00     0.030 A 
HETATM    7  C   UNL     1      42.129 -13.341   2.079  1.00  0.00     0.011 A 
ENDROOT
BRANCH   3   8
HETATM    8  N   UNL     1      40.410 -14.846   4.976  1.00  0.00    -0.308 N 
HETATM    9  C   UNL     1      40.904 -15.790   5.823  1.00  0.00     0.321 C 
HETATM   10  N   UNL     1      42.053 -16.414   5.457  1.00  0.00    -0.336 N 
HETATM   11  O   UNL     1      40.376 -15.959   6.921  1.00  0.00    -0.247 OA
HETATM   12  H   UNL     1      42.603 -15.993   4.720  1.00  0.00     0.164 HD
HETATM   13  H   UNL     1      39.803 -14.201   5.464  1.00  0.00     0.170 HD
BRANCH  10  14
HETATM   14  C   UNL     1      42.807 -17.164   6.431  1.00  0.00     0.202 C 
BRANCH  14  15
HETATM   15  C   UNL     1      43.397 -18.361   5.767  1.00  0.00     0.121 A 
HETATM   16  N   UNL     1      43.987 -18.417   4.586  1.00  0.00    -0.244 NA
HETATM   17  C   UNL     1      44.356 -19.724   4.415  1.00  0.00     0.135 A 
HETATM   18  C   UNL     1      44.003 -20.476   5.509  1.00  0.00     0.109 A 
HETATM   19  N   UNL     1      43.400 -19.598   6.366  1.00  0.00    -0.352 N 
HETATM   20  H   UNL     1      43.026 -19.814   7.281  1.00  0.00     0.166 HD
ENDBRANCH  14  15
ENDBRANCH  10  14
ENDBRANCH   3   8
BRANCH   5  21
HETATM   21  N   UNL     1      39.607 -15.119   0.091  1.00  0.00    -0.323 N 
HETATM   22  C   UNL     1      39.427 -14.602  -1.164  1.00  0.00     0.256 C 
HETATM   23  O   UNL     1      38.967 -15.344  -2.037  1.00  0.00    -0.267 OA
HETATM   24  H   UNL     1      39.220 -16.057   0.109  1.00  0.00     0.169 HD
BRANCH  22  25
HETATM   25  C   UNL     1      39.711 -13.210  -1.543  1.00  0.00     0.032 A 
HETATM   26  C   UNL     1      38.930 -12.154  -1.069  1.00  0.00     0.017 A 
HETATM   27  C   UNL     1      39.139 -10.867  -1.568  1.00  0.00     0.001 A 
HETATM   28  C   UNL     1      40.108 -10.635  -2.545  1.00  0.00     0.000 A 
HETATM   29  C   UNL     1      40.870 -11.694  -3.037  1.00  0.00     0.001 A 
HETATM   30  C   UNL     1      40.665 -12.982  -2.544  1.00  0.00     0.017 A 
ENDBRANCH  22  25
ENDBRANCH   5  21
TORSDOF 5
ENDMDL
MODEL 10
REMARK VINA RESULT:      -7.4      3.700      5.243
REMARK  5 active torsions:
REMARK  status: ('A' for Active; 'I' for Inactive)
REMARK    1  A    between atoms: C_3  and  N_4 
REMARK       I    between atoms: N_4  and  C_5 
REMARK       I    between atoms: C_5  and  N_6 
REMARK    2  A    between atoms: N_6  and  C_7 
REMARK    3  A    between atoms: C_7  and  C_8 
REMARK    4  A    between atoms: C_16  and  N_17 
REMARK       I    between atoms: N_17  and  C_18 
REMARK    5  A    between atoms: C_18  and  C_19 
ROOT
HETATM    1  C   UNL     1      39.302 -13.125   1.108  1.00  0.00     0.050 C 
HETATM    2  C   UNL     1      40.361 -14.144   1.436  1.00  0.00    -0.035 A 
HETATM    3  C   UNL     1      41.716 -13.799   1.590  1.00  0.00     0.044 A 
HETATM    4  C   UNL     1      42.670 -14.789   1.912  1.00  0.00     0.059 A 
HETATM    5  C   UNL     1      42.292 -16.126   2.040  1.00  0.00     0.037 A 
HETATM    6  C   UNL     1      40.946 -16.461   1.832  1.00  0.00     0.030 A 
HETATM    7  C   UNL     1      39.991 -15.486   1.542  1.00  0.00     0.011 A 
ENDROOT
BRANCH   3   8
HETATM    8  N   UNL     1      42.075 -12.442   1.488  1.00  0.00    -0.308 N 
HETATM    9  C   UNL     1      42.111 -11.459   2.429  1.00  0.00     0.321 C 
HETATM   10  N   UNL     1      42.022 -11.840   3.729  1.00  0.00    -0.336 N 
HETATM   11  O   UNL     1      42.338 -10.299   2.090  1.00  0.00    -0.247 OA
HETATM   12  H   UNL     1      42.175 -12.817   3.946  1.00  0.00     0.164 HD
HETATM   13  H   UNL     1      42.501 -12.134   0.624  1.00  0.00     0.170 HD
BRANCH  10  14
HETATM   14  C   UNL     1      42.384 -10.917   4.776  1.00  0.00     0.202 C 
BRANCH  14  15
HETATM   15  C   UNL     1      41.148 -10.492   5.495  1.00  0.00     0.121 A 
HETATM   16  N   UNL     1      40.157  -9.756   5.022  1.00  0.00    -0.244 NA
HETATM   17  C   UNL     1      39.261  -9.635   6.051  1.00  0.00     0.135 A 
HETATM   18  C   UNL     1      39.699 -10.315   7.160  1.00  0.00     0.109 A 
HETATM   19  N   UNL     1      40.896 -10.863   6.794  1.00  0.00    -0.352 N 
HETATM   20  H   UNL     1      41.492 -11.443   7.369  1.00  0.00     0.166 HD
ENDBRANCH  14  15
ENDBRANCH  10  14
ENDBRANCH   3   8
BRANCH   5  21
HETATM   21  N   UNL     1      43.113 -17.196   2.438  1.00  0.00    -0.323 N 
HETATM   22  C   UNL     1      43.506 -17.746   3.629  1.00  0.00     0.256 C 
HETATM   23  O   UNL     1      44.015 -18.870   3.609  1.00  0.00    -0.267 OA
HETATM   24  H   UNL     1      43.411 -17.811   1.688  1.00  0.00     0.169 HD
BRANCH  22  25
HETATM   25  C   UNL     1      43.398 -17.077   4.933  1.00  0.00     0.032 A 
HETATM   26  C   UNL     1      44.515 -16.897   5.752  1.00  0.00     0.017 A 
HETATM   27  C   UNL     1      44.345 -16.393   7.044  1.00  0.00     0.001 A 
HETATM   28  C   UNL     1      43.072 -16.083   7.521  1.00  0.00     0.000 A 
HETATM   29  C   UNL     1      41.955 -16.288   6.713  1.00  0.00     0.001 A 
HETATM   30  C   UNL     1      42.116 -16.793   5.423  1.00  0.00     0.017 A 
ENDBRANCH  22  25
ENDBRANCH   5  21
TORSDOF 5
ENDMDL
