MODEL 1
REMARK VINA RESULT:      -8.1      0.000      0.000
REMARK  6 active torsions:
REMARK  status: ('A' for Active; 'I' for Inactive)
REMARK    1  A    between atoms: C_2  and  N_3 
REMARK    2  A    between atoms: N_3  and  C_5 
REMARK    3  A    between atoms: N_3  and  C_26 
REMARK    4  A    between atoms: C_5  and  C_6 
REMARK    5  A    between atoms: C_8  and  N_9 
REMARK       I    between atoms: N_9  and  C_10 
REMARK    6  A    between atoms: C_10  and  C_11 
ROOT
HETATM    1  N   UNL     1      41.460 -15.126   3.327  1.00  0.00    -0.322 N 
HETATM    2  C   UNL     1      42.833 -15.131   3.523  1.00  0.00     0.277 C 
HETATM    3  O   UNL     1      43.627 -14.331   3.037  1.00  0.00    -0.266 OA
HETATM    4  H   UNL     1      40.981 -15.872   3.831  1.00  0.00     0.169 HD
ENDROOT
BRANCH   1   5
HETATM    5  C   UNL     1      40.705 -14.284   2.496  1.00  0.00     0.035 A 
HETATM    6  C   UNL     1      40.696 -14.394   1.104  1.00  0.00     0.038 A 
HETATM    7  C   UNL     1      39.851 -13.602   0.308  1.00  0.00    -0.030 A 
HETATM    8  C   UNL     1      39.060 -12.630   0.931  1.00  0.00     0.009 A 
HETATM    9  C   UNL     1      39.090 -12.486   2.319  1.00  0.00     0.003 A 
HETATM   10  C   UNL     1      39.900 -13.317   3.098  1.00  0.00     0.029 A 
BRANCH   7  11
HETATM   11  C   UNL     1      39.797 -13.838  -1.179  1.00  0.00     0.273 C 
BRANCH  11  12
HETATM   12  N   UNL     1      38.899 -12.891  -1.972  1.00  0.00    -0.068 N 
HETATM   13  H   UNL     1      38.445 -12.294  -1.271  1.00  0.00     0.280 HD
BRANCH  12  14
HETATM   14  C   UNL     1      37.777 -13.583  -2.724  1.00  0.00     0.231 C 
HETATM   15  C   UNL     1      38.252 -14.885  -3.344  1.00  0.00     0.034 C 
ENDBRANCH  12  14
BRANCH  12  16
HETATM   16  C   UNL     1      39.647 -11.938  -2.895  1.00  0.00     0.231 C 
HETATM   17  C   UNL     1      41.099 -12.348  -3.058  1.00  0.00     0.034 C 
ENDBRANCH  12  16
ENDBRANCH  11  12
ENDBRANCH   7  11
ENDBRANCH   1   5
BRANCH   2  18
HETATM   18  C   UNL     1      43.264 -16.250   4.378  1.00  0.00     0.157 A 
HETATM   19  N   UNL     1      43.510 -16.066   5.695  1.00  0.00    -0.168 NA
HETATM   20  N   UNL     1      43.812 -17.303   6.136  1.00  0.00    -0.277 N 
HETATM   21  H   UNL     1      44.022 -17.429   7.120  1.00  0.00     0.189 HD
HETATM   22  C   UNL     1      43.799 -18.268   5.167  1.00  0.00     0.063 A 
HETATM   23  C   UNL     1      43.457 -17.608   3.994  1.00  0.00     0.029 A 
HETATM   24  C   UNL     1      44.061 -19.639   5.221  1.00  0.00     0.032 A 
HETATM   25  C   UNL     1      43.381 -18.347   2.796  1.00  0.00     0.023 A 
HETATM   26  C   UNL     1      43.645 -19.727   2.814  1.00  0.00    -0.061 A 
HETATM   27  C   UNL     1      43.983 -20.354   4.019  1.00  0.00     0.009 A 
HETATM   28  C   UNL     1      43.624 -20.505   1.530  1.00  0.00     0.048 C 
ENDBRANCH   2  18
TORSDOF 6
ENDMDL
MODEL 2
REMARK VINA RESULT:      -7.9      5.561      8.441
REMARK  6 active torsions:
REMARK  status: ('A' for Active; 'I' for Inactive)
REMARK    1  A    between atoms: C_2  and  N_3 
REMARK    2  A    between atoms: N_3  and  C_5 
REMARK    3  A    between atoms: N_3  and  C_26 
REMARK    4  A    between atoms: C_5  and  C_6 
REMARK    5  A    between atoms: C_8  and  N_9 
REMARK       I    between atoms: N_9  and  C_10 
REMARK    6  A    between atoms: C_10  and  C_11 
ROOT
HETATM    1  N   UNL     1      43.642 -12.379   5.547  1.00  0.00    -0.322 N 
HETATM    2  C   UNL     1      43.073 -13.631   5.726  1.00  0.00     0.277 C 
HETATM    3  O   UNL     1      42.818 -14.152   6.808  1.00  0.00    -0.266 OA
HETATM    4  H   UNL     1      43.761 -12.130   4.566  1.00  0.00     0.169 HD
ENDROOT
BRANCH   1   5
HETATM    5  C   UNL     1      44.112 -11.491   6.527  1.00  0.00     0.035 A 
HETATM    6  C   UNL     1      43.274 -10.638   7.248  1.00  0.00     0.038 A 
HETATM    7  C   UNL     1      43.763  -9.836   8.293  1.00  0.00    -0.030 A 
HETATM    8  C   UNL     1      45.137  -9.843   8.558  1.00  0.00     0.009 A 
HETATM    9  C   UNL     1      45.990 -10.664   7.816  1.00  0.00     0.003 A 
HETATM   10  C   UNL     1      45.477 -11.492   6.815  1.00  0.00     0.029 A 
BRANCH   7  11
HETATM   11  C   UNL     1      42.800  -9.019   9.114  1.00  0.00     0.273 C 
BRANCH  11  12
HETATM   12  N   UNL     1      42.005  -9.785  10.169  1.00  0.00    -0.068 N 
HETATM   13  H   UNL     1      41.826 -10.709   9.758  1.00  0.00     0.280 HD
BRANCH  12  14
HETATM   14  C   UNL     1      40.642  -9.190  10.472  1.00  0.00     0.231 C 
HETATM   15  C   UNL     1      39.898 -10.018  11.504  1.00  0.00     0.034 C 
ENDBRANCH  12  14
BRANCH  12  16
HETATM   16  C   UNL     1      42.765 -10.055  11.460  1.00  0.00     0.231 C 
HETATM   17  C   UNL     1      43.517  -8.823  11.929  1.00  0.00     0.034 C 
ENDBRANCH  12  16
ENDBRANCH  11  12
ENDBRANCH   7  11
ENDBRANCH   1   5
BRANCH   2  18
HETATM   18  C   UNL     1      42.823 -14.312   4.445  1.00  0.00     0.157 A 
HETATM   19  N   UNL     1      42.283 -13.650   3.397  1.00  0.00    -0.168 NA
HETATM   20  N   UNL     1      42.269 -14.571   2.413  1.00  0.00    -0.277 N 
HETATM   21  H   UNL     1      41.916 -14.301   1.501  1.00  0.00     0.189 HD
HETATM   22  C   UNL     1      42.746 -15.799   2.781  1.00  0.00     0.063 A 
HETATM   23  C   UNL     1      43.107 -15.669   4.116  1.00  0.00     0.029 A 
HETATM   24  C   UNL     1      42.884 -16.992   2.067  1.00  0.00     0.032 A 
HETATM   25  C   UNL     1      43.623 -16.792   4.793  1.00  0.00     0.023 A 
HETATM   26  C   UNL     1      43.768 -18.010   4.106  1.00  0.00    -0.061 A 
HETATM   27  C   UNL     1      43.396 -18.096   2.759  1.00  0.00     0.009 A 
HETATM   28  C   UNL     1      44.261 -19.224   4.840  1.00  0.00     0.048 C 
ENDBRANCH   2  18
TORSDOF 6
ENDMDL
MODEL 3
REMARK VINA RESULT:      -7.7      2.135      3.320
REMARK  6 active torsions:
REMARK  status: ('A' for Active; 'I' for Inactive)
REMARK    1  A    between atoms: C_2  and  N_3 
REMARK    2  A    between atoms: N_3  and  C_5 
REMARK    3  A    between atoms: N_3  and  C_26 
REMARK    4  A    between atoms: C_5  and  C_6 
REMARK    5  A    between atoms: C_8  and  N_9 
REMARK       I    between atoms: N_9  and  C_10 
REMARK    6  A    between atoms: C_10  and  C_11 
ROOT
HETATM    1  N   UNL     1      41.149 -14.619   1.020  1.00  0.00    -0.322 N 
HETATM    2  C   UNL     1      40.685 -15.343   2.108  1.00  0.00     0.277 C 
HETATM    3  O   UNL     1      39.513 -15.642   2.321  1.00  0.00    -0.266 OA
HETATM    4  H   UNL     1      42.160 -14.489   1.028  1.00  0.00     0.169 HD
ENDROOT
BRANCH   1   5
HETATM    5  C   UNL     1      40.402 -14.019  -0.005  1.00  0.00     0.035 A 
HETATM    6  C   UNL     1      40.378 -12.640  -0.225  1.00  0.00     0.038 A 
HETATM    7  C   UNL     1      39.702 -12.081  -1.322  1.00  0.00    -0.030 A 
HETATM    8  C   UNL     1      38.975 -12.929  -2.165  1.00  0.00     0.009 A 
HETATM    9  C   UNL     1      38.961 -14.306  -1.932  1.00  0.00     0.003 A 
HETATM   10  C   UNL     1      39.681 -14.848  -0.865  1.00  0.00     0.029 A 
BRANCH   7  11
HETATM   11  C   UNL     1      39.800 -10.600  -1.578  1.00  0.00     0.273 C 
BRANCH  11  12
HETATM   12  N   UNL     1      41.116 -10.113  -2.182  1.00  0.00    -0.068 N 
HETATM   13  H   UNL     1      41.605 -10.962  -2.489  1.00  0.00     0.280 HD
BRANCH  12  14
HETATM   14  C   UNL     1      42.040  -9.432  -1.190  1.00  0.00     0.231 C 
HETATM   15  C   UNL     1      42.620  -8.153  -1.767  1.00  0.00     0.034 C 
ENDBRANCH  12  14
BRANCH  12  16
HETATM   16  C   UNL     1      40.958  -9.259  -3.433  1.00  0.00     0.231 C 
HETATM   17  C   UNL     1      39.565  -9.388  -4.021  1.00  0.00     0.034 C 
ENDBRANCH  12  16
ENDBRANCH  11  12
ENDBRANCH   7  11
ENDBRANCH   1   5
BRANCH   2  18
HETATM   18  C   UNL     1      41.771 -15.705   3.034  1.00  0.00     0.157 A 
HETATM   19  N   UNL     1      42.161 -14.862   4.016  1.00  0.00    -0.168 NA
HETATM   20  N   UNL     1      43.110 -15.557   4.674  1.00  0.00    -0.277 N 
HETATM   21  H   UNL     1      43.551 -15.131   5.481  1.00  0.00     0.189 HD
HETATM   22  C   UNL     1      43.369 -16.794   4.149  1.00  0.00     0.063 A 
HETATM   23  C   UNL     1      42.517 -16.920   3.061  1.00  0.00     0.029 A 
HETATM   24  C   UNL     1      44.269 -17.792   4.532  1.00  0.00     0.032 A 
HETATM   25  C   UNL     1      42.565 -18.100   2.292  1.00  0.00     0.023 A 
HETATM   26  C   UNL     1      43.464 -19.121   2.645  1.00  0.00    -0.061 A 
HETATM   27  C   UNL     1      44.304 -18.955   3.752  1.00  0.00     0.009 A 
HETATM   28  C   UNL     1      43.562 -20.354   1.793  1.00  0.00     0.048 C 
ENDBRANCH   2  18
TORSDOF 6
ENDMDL
MODEL 4
REMARK VINA RESULT:      -7.7      5.112      8.283
REMARK  6 active torsions:
REMARK  status: ('A' for Active; 'I' for Inactive)
REMARK    1  A    between atoms: C_2  and  N_3 
REMARK    2  A    between atoms: N_3  and  C_5 
REMARK    3  A    between atoms: N_3  and  C_26 
REMARK    4  A    between atoms: C_5  and  C_6 
REMARK    5  A    between atoms: C_8  and  N_9 
REMARK       I    between atoms: N_9  and  C_10 
REMARK    6  A    between atoms: C_10  and  C_11 
ROOT
HETATM    1  N   UNL     1      43.458 -13.434   6.338  1.00  0.00    -0.322 N 
HETATM    2  C   UNL     1      43.533 -12.087   6.018  1.00  0.00     0.277 C 
HETATM    3  O   UNL     1      42.815 -11.503   5.210  1.00  0.00    -0.266 OA
HETATM    4  H   UNL     1      44.140 -13.716   7.041  1.00  0.00     0.169 HD
ENDROOT
BRANCH   1   5
HETATM    5  C   UNL     1      42.629 -14.415   5.774  1.00  0.00     0.035 A 
HETATM    6  C   UNL     1      42.960 -15.121   4.616  1.00  0.00     0.038 A 
HETATM    7  C   UNL     1      42.155 -16.168   4.135  1.00  0.00    -0.030 A 
HETATM    8  C   UNL     1      40.956 -16.451   4.799  1.00  0.00     0.009 A 
HETATM    9  C   UNL     1      40.596 -15.725   5.937  1.00  0.00     0.003 A 
HETATM   10  C   UNL     1      41.435 -14.721   6.428  1.00  0.00     0.029 A 
BRANCH   7  11
HETATM   11  C   UNL     1      42.614 -16.972   2.947  1.00  0.00     0.273 C 
BRANCH  11  12
HETATM   12  N   UNL     1      43.020 -18.416   3.235  1.00  0.00    -0.068 N 
HETATM   13  H   UNL     1      42.244 -18.815   3.775  1.00  0.00     0.280 HD
BRANCH  12  14
HETATM   14  C   UNL     1      44.253 -18.550   4.109  1.00  0.00     0.231 C 
HETATM   15  C   UNL     1      43.885 -18.990   5.515  1.00  0.00     0.034 C 
ENDBRANCH  12  14
BRANCH  12  16
HETATM   16  C   UNL     1      43.149 -19.294   1.998  1.00  0.00     0.231 C 
HETATM   17  C   UNL     1      43.768 -20.638   2.334  1.00  0.00     0.034 C 
ENDBRANCH  12  16
ENDBRANCH  11  12
ENDBRANCH   7  11
ENDBRANCH   1   5
BRANCH   2  18
HETATM   18  C   UNL     1      44.617 -11.405   6.745  1.00  0.00     0.157 A 
HETATM   19  N   UNL     1      45.833 -11.232   6.181  1.00  0.00    -0.168 NA
HETATM   20  N   UNL     1      46.515 -10.531   7.108  1.00  0.00    -0.277 N 
HETATM   21  H   UNL     1      47.470 -10.258   6.903  1.00  0.00     0.189 HD
HETATM   22  C   UNL     1      45.809 -10.267   8.249  1.00  0.00     0.063 A 
HETATM   23  C   UNL     1      44.560 -10.840   8.052  1.00  0.00     0.029 A 
HETATM   24  C   UNL     1      46.160  -9.589   9.419  1.00  0.00     0.032 A 
HETATM   25  C   UNL     1      43.600 -10.750   9.080  1.00  0.00     0.023 A 
HETATM   26  C   UNL     1      43.923 -10.081  10.273  1.00  0.00    -0.061 A 
HETATM   27  C   UNL     1      45.193  -9.514  10.430  1.00  0.00     0.009 A 
HETATM   28  C   UNL     1      42.925 -10.036  11.394  1.00  0.00     0.048 C 
ENDBRANCH   2  18
TORSDOF 6
ENDMDL
MODEL 5
REMARK VINA RESULT:      -7.4      6.347      9.333
REMARK  6 active torsions:
REMARK  status: ('A' for Active; 'I' for Inactive)
REMARK    1  A    between atoms: C_2  and  N_3 
REMARK    2  A    between atoms: N_3  and  C_5 
REMARK    3  A    between atoms: N_3  and  C_26 
REMARK    4  A    between atoms: C_5  and  C_6 
REMARK    5  A    between atoms: C_8  and  N_9 
REMARK       I    between atoms: N_9  and  C_10 
REMARK    6  A    between atoms: C_10  and  C_11 
ROOT
HETATM    1  N   UNL     1      43.248 -12.223   7.076  1.00  0.00    -0.322 N 
HETATM    2  C   UNL     1      42.547 -12.103   5.886  1.00  0.00     0.277 C 
HETATM    3  O   UNL     1      42.580 -11.135   5.131  1.00  0.00    -0.266 OA
HETATM    4  H   UNL     1      43.088 -13.113   7.547  1.00  0.00     0.169 HD
ENDROOT
BRANCH   1   5
HETATM    5  C   UNL     1      44.062 -11.267   7.704  1.00  0.00     0.035 A 
HETATM    6  C   UNL     1      43.658 -10.538   8.824  1.00  0.00     0.038 A 
HETATM    7  C   UNL     1      44.533  -9.664   9.489  1.00  0.00    -0.030 A 
HETATM    8  C   UNL     1      45.816  -9.470   8.963  1.00  0.00     0.009 A 
HETATM    9  C   UNL     1      46.217 -10.166   7.821  1.00  0.00     0.003 A 
HETATM   10  C   UNL     1      45.348 -11.069   7.203  1.00  0.00     0.029 A 
BRANCH   7  11
HETATM   11  C   UNL     1      44.085  -8.987  10.758  1.00  0.00     0.273 C 
BRANCH  11  12
HETATM   12  N   UNL     1      42.630  -9.219  11.161  1.00  0.00    -0.068 N 
HETATM   13  H   UNL     1      42.223  -9.778  10.401  1.00  0.00     0.280 HD
BRANCH  12  14
HETATM   14  C   UNL     1      41.798  -7.952  11.241  1.00  0.00     0.231 C 
HETATM   15  C   UNL     1      42.597  -6.741  10.795  1.00  0.00     0.034 C 
ENDBRANCH  12  14
BRANCH  12  16
HETATM   16  C   UNL     1      42.449 -10.054  12.421  1.00  0.00     0.231 C 
HETATM   17  C   UNL     1      41.048  -9.910  12.985  1.00  0.00     0.034 C 
ENDBRANCH  12  16
ENDBRANCH  11  12
ENDBRANCH   7  11
ENDBRANCH   1   5
BRANCH   2  18
HETATM   18  C   UNL     1      41.704 -13.280   5.620  1.00  0.00     0.157 A 
HETATM   19  N   UNL     1      40.635 -13.562   6.397  1.00  0.00    -0.168 NA
HETATM   20  N   UNL     1      40.097 -14.651   5.813  1.00  0.00    -0.277 N 
HETATM   21  H   UNL     1      39.254 -15.050   6.213  1.00  0.00     0.189 HD
HETATM   22  C   UNL     1      40.780 -15.100   4.716  1.00  0.00     0.063 A 
HETATM   23  C   UNL     1      41.852 -14.230   4.568  1.00  0.00     0.029 A 
HETATM   24  C   UNL     1      40.552 -16.181   3.861  1.00  0.00     0.032 A 
HETATM   25  C   UNL     1      42.765 -14.450   3.517  1.00  0.00     0.023 A 
HETATM   26  C   UNL     1      42.569 -15.532   2.642  1.00  0.00    -0.061 A 
HETATM   27  C   UNL     1      41.472 -16.383   2.826  1.00  0.00     0.009 A 
HETATM   28  C   UNL     1      43.572 -15.805   1.559  1.00  0.00     0.048 C 
ENDBRANCH   2  18
TORSDOF 6
ENDMDL
MODEL 6
REMARK VINA RESULT:      -7.2      1.903      3.198
REMARK  6 active torsions:
REMARK  status: ('A' for Active; 'I' for Inactive)
REMARK    1  A    between atoms: C_2  and  N_3 
REMARK    2  A    between atoms: N_3  and  C_5 
REMARK    3  A    between atoms: N_3  and  C_26 
REMARK    4  A    between atoms: C_5  and  C_6 
REMARK    5  A    between atoms: C_8  and  N_9 
REMARK       I    between atoms: N_9  and  C_10 
REMARK    6  A    between atoms: C_10  and  C_11 
ROOT
HETATM    1  N   UNL     1      41.371 -14.884   2.504  1.00  0.00    -0.322 N 
HETATM    2  C   UNL     1      42.742 -14.856   2.710  1.00  0.00     0.277 C 
HETATM    3  O   UNL     1      43.544 -14.165   2.088  1.00  0.00    -0.266 OA
HETATM    4  H   UNL     1      40.885 -15.520   3.135  1.00  0.00     0.169 HD
ENDROOT
BRANCH   1   5
HETATM    5  C   UNL     1      40.627 -14.213   1.522  1.00  0.00     0.035 A 
HETATM    6  C   UNL     1      40.208 -12.888   1.654  1.00  0.00     0.038 A 
HETATM    7  C   UNL     1      39.552 -12.214   0.609  1.00  0.00    -0.030 A 
HETATM    8  C   UNL     1      39.251 -12.922  -0.560  1.00  0.00     0.009 A 
HETATM    9  C   UNL     1      39.632 -14.259  -0.688  1.00  0.00     0.003 A 
HETATM   10  C   UNL     1      40.327 -14.897   0.343  1.00  0.00     0.029 A 
BRANCH   7  11
HETATM   11  C   UNL     1      39.222 -10.752   0.761  1.00  0.00     0.273 C 
BRANCH  11  12
HETATM   12  N   UNL     1      38.029 -10.427   1.657  1.00  0.00    -0.068 N 
HETATM   13  H   UNL     1      37.445 -11.272   1.652  1.00  0.00     0.280 HD
BRANCH  12  14
HETATM   14  C   UNL     1      37.149  -9.306   1.136  1.00  0.00     0.231 C 
HETATM   15  C   UNL     1      35.857  -9.848   0.551  1.00  0.00     0.034 C 
ENDBRANCH  12  14
BRANCH  12  16
HETATM   16  C   UNL     1      38.384 -10.187   3.118  1.00  0.00     0.231 C 
HETATM   17  C   UNL     1      38.284  -8.717   3.479  1.00  0.00     0.034 C 
ENDBRANCH  12  16
ENDBRANCH  11  12
ENDBRANCH   7  11
ENDBRANCH   1   5
BRANCH   2  18
HETATM   18  C   UNL     1      43.161 -15.793   3.765  1.00  0.00     0.157 A 
HETATM   19  N   UNL     1      43.354 -15.373   5.035  1.00  0.00    -0.168 NA
HETATM   20  N   UNL     1      43.662 -16.503   5.700  1.00  0.00    -0.277 N 
HETATM   21  H   UNL     1      43.837 -16.447   6.698  1.00  0.00     0.189 HD
HETATM   22  C   UNL     1      43.704 -17.625   4.919  1.00  0.00     0.063 A 
HETATM   23  C   UNL     1      43.393 -17.193   3.636  1.00  0.00     0.029 A 
HETATM   24  C   UNL     1      43.988 -18.958   5.226  1.00  0.00     0.032 A 
HETATM   25  C   UNL     1      43.376 -18.135   2.587  1.00  0.00     0.023 A 
HETATM   26  C   UNL     1      43.664 -19.483   2.861  1.00  0.00    -0.061 A 
HETATM   27  C   UNL     1      43.969 -19.877   4.169  1.00  0.00     0.009 A 
HETATM   28  C   UNL     1      43.706 -20.477   1.736  1.00  0.00     0.048 C 
ENDBRANCH   2  18
TORSDOF 6
ENDMDL
MODEL 7
REMARK VINA RESULT:      -7.2      1.341      2.185
REMARK  6 active torsions:
REMARK  status: ('A' for Active; 'I' for Inactive)
REMARK    1  A    between atoms: C_2  and  N_3 
REMARK    2  A    between atoms: N_3  and  C_5 
REMARK    3  A    between atoms: N_3  and  C_26 
REMARK    4  A    between atoms: C_5  and  C_6 
REMARK    5  A    between atoms: C_8  and  N_9 
REMARK       I    between atoms: N_9  and  C_10 
REMARK    6  A    between atoms: C_10  and  C_11 
ROOT
HETATM    1  N   UNL     1      42.034 -14.413   4.499  1.00  0.00    -0.322 N 
HETATM    2  C   UNL     1      42.969 -15.188   3.831  1.00  0.00     0.277 C 
HETATM    3  O   UNL     1      43.422 -14.958   2.713  1.00  0.00    -0.266 OA
HETATM    4  H   UNL     1      41.800 -14.775   5.423  1.00  0.00     0.169 HD
ENDROOT
BRANCH   1   5
HETATM    5  C   UNL     1      41.358 -13.275   4.033  1.00  0.00     0.035 A 
HETATM    6  C   UNL     1      40.553 -13.278   2.892  1.00  0.00     0.038 A 
HETATM    7  C   UNL     1      39.810 -12.148   2.511  1.00  0.00    -0.030 A 
HETATM    8  C   UNL     1      39.947 -10.972   3.258  1.00  0.00     0.009 A 
HETATM    9  C   UNL     1      40.780 -10.947   4.378  1.00  0.00     0.003 A 
HETATM   10  C   UNL     1      41.472 -12.095   4.771  1.00  0.00     0.029 A 
BRANCH   7  11
HETATM   11  C   UNL     1      38.870 -12.239   1.338  1.00  0.00     0.273 C 
BRANCH  11  12
HETATM   12  N   UNL     1      39.524 -12.245  -0.043  1.00  0.00    -0.068 N 
HETATM   13  H   UNL     1      40.431 -12.709   0.087  1.00  0.00     0.280 HD
BRANCH  12  14
HETATM   14  C   UNL     1      39.835 -10.863  -0.588  1.00  0.00     0.231 C 
HETATM   15  C   UNL     1      41.223 -10.813  -1.200  1.00  0.00     0.034 C 
ENDBRANCH  12  14
BRANCH  12  16
HETATM   16  C   UNL     1      38.788 -13.074  -1.086  1.00  0.00     0.231 C 
HETATM   17  C   UNL     1      39.480 -14.403  -1.328  1.00  0.00     0.034 C 
ENDBRANCH  12  16
ENDBRANCH  11  12
ENDBRANCH   7  11
ENDBRANCH   1   5
BRANCH   2  18
HETATM   18  C   UNL     1      43.359 -16.376   4.609  1.00  0.00     0.157 A 
HETATM   19  N   UNL     1      43.588 -16.294   5.939  1.00  0.00    -0.168 NA
HETATM   20  N   UNL     1      43.853 -17.567   6.294  1.00  0.00    -0.277 N 
HETATM   21  H   UNL     1      44.044 -17.768   7.270  1.00  0.00     0.189 HD
HETATM   22  C   UNL     1      43.831 -18.459   5.258  1.00  0.00     0.063 A 
HETATM   23  C   UNL     1      43.524 -17.708   4.131  1.00  0.00     0.029 A 
HETATM   24  C   UNL     1      44.057 -19.837   5.217  1.00  0.00     0.032 A 
HETATM   25  C   UNL     1      43.448 -18.356   2.882  1.00  0.00     0.023 A 
HETATM   26  C   UNL     1      43.676 -19.741   2.804  1.00  0.00    -0.061 A 
HETATM   27  C   UNL     1      43.980 -20.461   3.965  1.00  0.00     0.009 A 
HETATM   28  C   UNL     1      43.657 -20.424   1.467  1.00  0.00     0.048 C 
ENDBRANCH   2  18
TORSDOF 6
ENDMDL
MODEL 8
REMARK VINA RESULT:      -7.1      6.475      8.973
REMARK  6 active torsions:
REMARK  status: ('A' for Active; 'I' for Inactive)
REMARK    1  A    between atoms: C_2  and  N_3 
REMARK    2  A    between atoms: N_3  and  C_5 
REMARK    3  A    between atoms: N_3  and  C_26 
REMARK    4  A    between atoms: C_5  and  C_6 
REMARK    5  A    between atoms: C_8  and  N_9 
REMARK       I    between atoms: N_9  and  C_10 
REMARK    6  A    between atoms: C_10  and  C_11 
ROOT
HETATM    1  N   UNL     1      44.073 -12.310   7.434  1.00  0.00    -0.322 N 
HETATM    2  C   UNL     1      43.169 -12.827   6.519  1.00  0.00     0.277 C 
HETATM    3  O   UNL     1      42.408 -12.169   5.816  1.00  0.00    -0.266 OA
HETATM    4  H   UNL     1      44.618 -13.029   7.908  1.00  0.00     0.169 HD
ENDROOT
BRANCH   1   5
HETATM    5  C   UNL     1      44.260 -10.970   7.808  1.00  0.00     0.035 A 
HETATM    6  C   UNL     1      43.209 -10.124   8.165  1.00  0.00     0.038 A 
HETATM    7  C   UNL     1      43.440  -8.818   8.631  1.00  0.00    -0.030 A 
HETATM    8  C   UNL     1      44.755  -8.340   8.662  1.00  0.00     0.009 A 
HETATM    9  C   UNL     1      45.810  -9.166   8.271  1.00  0.00     0.003 A 
HETATM   10  C   UNL     1      45.565 -10.478   7.858  1.00  0.00     0.029 A 
BRANCH   7  11
HETATM   11  C   UNL     1      42.280  -7.985   9.110  1.00  0.00     0.273 C 
BRANCH  11  12
HETATM   12  N   UNL     1      42.436  -7.357  10.493  1.00  0.00    -0.068 N 
HETATM   13  H   UNL     1      43.445  -7.212  10.615  1.00  0.00     0.280 HD
BRANCH  12  14
HETATM   14  C   UNL     1      42.001  -8.257  11.636  1.00  0.00     0.231 C 
HETATM   15  C   UNL     1      43.199  -8.795  12.397  1.00  0.00     0.034 C 
ENDBRANCH  12  14
BRANCH  12  16
HETATM   16  C   UNL     1      41.806  -5.978  10.635  1.00  0.00     0.231 C 
HETATM   17  C   UNL     1      42.785  -4.880  10.260  1.00  0.00     0.034 C 
ENDBRANCH  12  16
ENDBRANCH  11  12
ENDBRANCH   7  11
ENDBRANCH   1   5
BRANCH   2  18
HETATM   18  C   UNL     1      43.190 -14.299   6.494  1.00  0.00     0.157 A 
HETATM   19  N   UNL     1      43.199 -15.016   7.640  1.00  0.00    -0.168 NA
HETATM   20  N   UNL     1      43.154 -16.295   7.215  1.00  0.00    -0.277 N 
HETATM   21  H   UNL     1      43.135 -17.035   7.907  1.00  0.00     0.189 HD
HETATM   22  C   UNL     1      43.143 -16.437   5.854  1.00  0.00     0.063 A 
HETATM   23  C   UNL     1      43.180 -15.145   5.347  1.00  0.00     0.029 A 
HETATM   24  C   UNL     1      43.110 -17.574   5.042  1.00  0.00     0.032 A 
HETATM   25  C   UNL     1      43.199 -14.964   3.949  1.00  0.00     0.023 A 
HETATM   26  C   UNL     1      43.173 -16.086   3.104  1.00  0.00    -0.061 A 
HETATM   27  C   UNL     1      43.133 -17.371   3.657  1.00  0.00     0.009 A 
HETATM   28  C   UNL     1      43.255 -15.898   1.616  1.00  0.00     0.048 C 
ENDBRANCH   2  18
TORSDOF 6
ENDMDL
MODEL 9
REMARK VINA RESULT:      -7.0     10.556     13.376
REMARK  6 active torsions:
REMARK  status: ('A' for Active; 'I' for Inactive)
REMARK    1  A    between atoms: C_2  and  N_3 
REMARK    2  A    between atoms: N_3  and  C_5 
REMARK    3  A    between atoms: N_3  and  C_26 
REMARK    4  A    between atoms: C_5  and  C_6 
REMARK    5  A    between atoms: C_8  and  N_9 
REMARK       I    between atoms: N_9  and  C_10 
REMARK    6  A    between atoms: C_10  and  C_11 
ROOT
HETATM    1  N   UNL     1      43.839  -9.241  10.928  1.00  0.00    -0.322 N 
HETATM    2  C   UNL     1      43.796  -8.502   9.755  1.00  0.00     0.277 C 
HETATM    3  O   UNL     1      43.055  -7.547   9.539  1.00  0.00    -0.266 OA
HETATM    4  H   UNL     1      44.533  -9.987  10.905  1.00  0.00     0.169 HD
ENDROOT
BRANCH   1   5
HETATM    5  C   UNL     1      43.020  -9.119  12.061  1.00  0.00     0.035 A 
HETATM    6  C   UNL     1      43.272  -8.210  13.091  1.00  0.00     0.038 A 
HETATM    7  C   UNL     1      42.378  -8.043  14.161  1.00  0.00    -0.030 A 
HETATM    8  C   UNL     1      41.248  -8.866  14.226  1.00  0.00     0.009 A 
HETATM    9  C   UNL     1      41.006  -9.805  13.221  1.00  0.00     0.003 A 
HETATM   10  C   UNL     1      41.882  -9.922  12.139  1.00  0.00     0.029 A 
BRANCH   7  11
HETATM   11  C   UNL     1      42.639  -6.970  15.186  1.00  0.00     0.273 C 
BRANCH  11  12
HETATM   12  N   UNL     1      41.485  -6.660  16.137  1.00  0.00    -0.068 N 
HETATM   13  H   UNL     1      40.660  -7.107  15.720  1.00  0.00     0.280 HD
BRANCH  12  14
HETATM   14  C   UNL     1      41.151  -5.183  16.245  1.00  0.00     0.231 C 
HETATM   15  C   UNL     1      41.170  -4.514  14.883  1.00  0.00     0.034 C 
ENDBRANCH  12  14
BRANCH  12  16
HETATM   16  C   UNL     1      41.625  -7.275  17.522  1.00  0.00     0.231 C 
HETATM   17  C   UNL     1      40.271  -7.628  18.112  1.00  0.00     0.034 C 
ENDBRANCH  12  16
ENDBRANCH  11  12
ENDBRANCH   7  11
ENDBRANCH   1   5
BRANCH   2  18
HETATM   18  C   UNL     1      44.738  -9.012   8.746  1.00  0.00     0.157 A 
HETATM   19  N   UNL     1      45.847  -8.315   8.412  1.00  0.00    -0.168 NA
HETATM   20  N   UNL     1      46.471  -9.116   7.526  1.00  0.00    -0.277 N 
HETATM   21  H   UNL     1      47.356  -8.811   7.136  1.00  0.00     0.189 HD
HETATM   22  C   UNL     1      45.808 -10.281   7.253  1.00  0.00     0.063 A 
HETATM   23  C   UNL     1      44.656 -10.240   8.027  1.00  0.00     0.029 A 
HETATM   24  C   UNL     1      46.116 -11.345   6.402  1.00  0.00     0.032 A 
HETATM   25  C   UNL     1      43.743 -11.311   7.946  1.00  0.00     0.023 A 
HETATM   26  C   UNL     1      44.019 -12.394   7.094  1.00  0.00    -0.061 A 
HETATM   27  C   UNL     1      45.195 -12.397   6.333  1.00  0.00     0.009 A 
HETATM   28  C   UNL     1      43.021 -13.508   6.958  1.00  0.00     0.048 C 
ENDBRANCH   2  18
TORSDOF 6
ENDMDL
MODEL 10
REMARK VINA RESULT:      -6.9      1.707      2.317
REMARK  6 active torsions:
REMARK  status: ('A' for Active; 'I' for Inactive)
REMARK    1  A    between atoms: C_2  and  N_3 
REMARK    2  A    between atoms: N_3  and  C_5 
REMARK    3  A    between atoms: N_3  and  C_26 
REMARK    4  A    between atoms: C_5  and  C_6 
REMARK    5  A    between atoms: C_8  and  N_9 
REMARK       I    between atoms: N_9  and  C_10 
REMARK    6  A    between atoms: C_10  and  C_11 
ROOT
HETATM    1  N   UNL     1      42.342 -13.825   2.959  1.00  0.00    -0.322 N 
HETATM    2  C   UNL     1      43.216 -14.852   2.636  1.00  0.00     0.277 C 
HETATM    3  O   UNL     1      43.765 -15.008   1.549  1.00  0.00    -0.266 OA
HETATM    4  H   UNL     1      42.006 -13.873   3.920  1.00  0.00     0.169 HD
ENDROOT
BRANCH   1   5
HETATM    5  C   UNL     1      41.844 -12.814   2.123  1.00  0.00     0.035 A 
HETATM    6  C   UNL     1      40.963 -13.060   1.068  1.00  0.00     0.038 A 
HETATM    7  C   UNL     1      40.405 -12.014   0.315  1.00  0.00    -0.030 A 
HETATM    8  C   UNL     1      40.807 -10.702   0.588  1.00  0.00     0.009 A 
HETATM    9  C   UNL     1      41.717 -10.447   1.616  1.00  0.00     0.003 A 
HETATM   10  C   UNL     1      42.223 -11.497   2.386  1.00  0.00     0.029 A 
BRANCH   7  11
HETATM   11  C   UNL     1      39.373 -12.326  -0.738  1.00  0.00     0.273 C 
BRANCH  11  12
HETATM   12  N   UNL     1      38.168 -11.389  -0.790  1.00  0.00    -0.068 N 
HETATM   13  H   UNL     1      38.561 -10.443  -0.862  1.00  0.00     0.280 HD
BRANCH  12  14
HETATM   14  C   UNL     1      37.322 -11.396   0.471  1.00  0.00     0.231 C 
HETATM   15  C   UNL     1      37.259 -10.015   1.098  1.00  0.00     0.034 C 
ENDBRANCH  12  14
BRANCH  12  16
HETATM   16  C   UNL     1      37.288 -11.560  -2.019  1.00  0.00     0.231 C 
HETATM   17  C   UNL     1      37.363 -12.975  -2.564  1.00  0.00     0.034 C 
ENDBRANCH  12  16
ENDBRANCH  11  12
ENDBRANCH   7  11
ENDBRANCH   1   5
BRANCH   2  18
HETATM   18  C   UNL     1      43.404 -15.789   3.756  1.00  0.00     0.157 A 
HETATM   19  N   UNL     1      43.446 -15.350   5.033  1.00  0.00    -0.168 NA
HETATM   20  N   UNL     1      43.565 -16.482   5.755  1.00  0.00    -0.277 N 
HETATM   21  H   UNL     1      43.599 -16.412   6.766  1.00  0.00     0.189 HD
HETATM   22  C   UNL     1      43.629 -17.625   5.006  1.00  0.00     0.063 A 
HETATM   23  C   UNL     1      43.541 -17.206   3.685  1.00  0.00     0.029 A 
HETATM   24  C   UNL     1      43.760 -18.966   5.372  1.00  0.00     0.032 A 
HETATM   25  C   UNL     1      43.599 -18.172   2.660  1.00  0.00     0.023 A 
HETATM   26  C   UNL     1      43.738 -19.530   2.994  1.00  0.00    -0.061 A 
HETATM   27  C   UNL     1      43.820 -19.910   4.339  1.00  0.00     0.009 A 
HETATM   28  C   UNL     1      43.862 -20.555   1.904  1.00  0.00     0.048 C 
ENDBRANCH   2  18
TORSDOF 6
ENDMDL
