MODEL 1
REMARK VINA RESULT:      -8.6      0.000      0.000
REMARK  5 active torsions:
REMARK  status: ('A' for Active; 'I' for Inactive)
REMARK    1  A    between atoms: C_5  and  C_6 
REMARK    2  A    between atoms: C_13  and  C_14 
REMARK       I    between atoms: C_14  and  N_15 
REMARK    3  A    between atoms: N_15  and  C_16 
REMARK    4  A    between atoms: C_19  and  C_20 
REMARK    5  A    between atoms: C_23  and  N_24 
ROOT
HETATM    1  C   UNL     1      40.255 -12.121   5.896  1.00  0.00     0.262 C 
HETATM    2  N   UNL     1      41.544 -12.230   5.430  1.00  0.00    -0.301 N 
HETATM    3  O   UNL     1      39.597 -12.986   6.453  1.00  0.00    -0.267 OA
HETATM    4  H   UNL     1      42.044 -11.411   5.122  1.00  0.00     0.171 HD
ENDROOT
BRANCH   2   5
HETATM    5  C   UNL     1      42.265 -13.385   5.499  1.00  0.00     0.173 A 
HETATM    6  S   UNL     1      43.400 -13.398   6.773  1.00  0.00    -0.061 SA
HETATM    7  C   UNL     1      43.881 -14.975   6.299  1.00  0.00     0.085 A 
HETATM    8  C   UNL     1      43.143 -15.384   5.202  1.00  0.00     0.076 A 
HETATM    9  N   UNL     1      42.229 -14.447   4.739  1.00  0.00    -0.223 NA
BRANCH   8  10
HETATM   10  C   UNL     1      43.311 -16.672   4.534  1.00  0.00    -0.007 A 
HETATM   11  C   UNL     1      42.941 -16.866   3.193  1.00  0.00     0.016 A 
HETATM   12  C   UNL     1      43.101 -18.113   2.579  1.00  0.00     0.037 A 
HETATM   13  C   UNL     1      43.638 -19.181   3.310  1.00  0.00     0.102 A 
HETATM   14  C   UNL     1      44.024 -19.003   4.643  1.00  0.00     0.037 A 
HETATM   15  C   UNL     1      43.863 -17.749   5.245  1.00  0.00     0.016 A 
BRANCH  13  16
HETATM   16  N   UNL     1      43.797 -20.492   2.670  1.00  0.00    -0.116 N 
HETATM   17  O   UNL     1      43.655 -20.554   1.441  1.00  0.00    -0.532 OA
HETATM   18  O   UNL     1      44.058 -21.462   3.397  1.00  0.00    -0.532 OA
ENDBRANCH  13  16
ENDBRANCH   8  10
ENDBRANCH   2   5
BRANCH   1  19
HETATM   19  C   UNL     1      39.717 -10.787   5.700  1.00  0.00     0.095 A 
HETATM   20  C   UNL     1      39.101 -10.297   4.567  1.00  0.00     0.093 A 
HETATM   21  C   UNL     1      38.750 -10.859   3.247  1.00  0.00     0.080 C 
HETATM   22  O   UNL     1      38.715  -9.014   4.786  1.00  0.00    -0.217 OA
HETATM   23  N   UNL     1      39.051  -8.642   6.068  1.00  0.00    -0.127 NA
HETATM   24  C   UNL     1      39.652  -9.705   6.627  1.00  0.00     0.114 A 
BRANCH  24  25
HETATM   25  C   UNL     1      40.132  -9.635   8.004  1.00  0.00     0.018 A 
HETATM   26  C   UNL     1      41.473  -9.385   8.335  1.00  0.00     0.046 A 
HETATM   27 CL   UNL     1      42.690  -9.072   7.142  1.00  0.00    -0.083 Cl
HETATM   28  C   UNL     1      41.869  -9.330   9.677  1.00  0.00     0.025 A 
HETATM   29  C   UNL     1      40.932  -9.508  10.697  1.00  0.00     0.002 A 
HETATM   30  C   UNL     1      39.596  -9.736  10.379  1.00  0.00     0.001 A 
HETATM   31  C   UNL     1      39.198  -9.799   9.042  1.00  0.00     0.016 A 
ENDBRANCH  24  25
ENDBRANCH   1  19
TORSDOF 5
ENDMDL
MODEL 2
REMARK VINA RESULT:      -8.4      2.886      3.750
REMARK  5 active torsions:
REMARK  status: ('A' for Active; 'I' for Inactive)
REMARK    1  A    between atoms: C_5  and  C_6 
REMARK    2  A    between atoms: C_13  and  C_14 
REMARK       I    between atoms: C_14  and  N_15 
REMARK    3  A    between atoms: N_15  and  C_16 
REMARK    4  A    between atoms: C_19  and  C_20 
REMARK    5  A    between atoms: C_23  and  N_24 
ROOT
HETATM    1  C   UNL     1      43.887 -11.311   7.498  1.00  0.00     0.262 C 
HETATM    2  N   UNL     1      43.404 -11.323   6.211  1.00  0.00    -0.301 N 
HETATM    3  O   UNL     1      43.949 -12.256   8.270  1.00  0.00    -0.267 OA
HETATM    4  H   UNL     1      43.538 -10.525   5.611  1.00  0.00     0.171 HD
ENDROOT
BRANCH   2   5
HETATM    5  C   UNL     1      42.871 -12.434   5.626  1.00  0.00     0.173 A 
HETATM    6  S   UNL     1      41.210 -12.276   5.265  1.00  0.00    -0.061 SA
HETATM    7  C   UNL     1      41.222 -13.868   4.624  1.00  0.00     0.085 A 
HETATM    8  C   UNL     1      42.491 -14.410   4.730  1.00  0.00     0.076 A 
HETATM    9  N   UNL     1      43.427 -13.577   5.328  1.00  0.00    -0.223 NA
BRANCH   8  10
HETATM   10  C   UNL     1      42.846 -15.758   4.293  1.00  0.00    -0.007 A 
HETATM   11  C   UNL     1      42.434 -16.269   3.052  1.00  0.00     0.016 A 
HETATM   12  C   UNL     1      42.778 -17.568   2.662  1.00  0.00     0.037 A 
HETATM   13  C   UNL     1      43.544 -18.368   3.519  1.00  0.00     0.102 A 
HETATM   14  C   UNL     1      43.975 -17.872   4.755  1.00  0.00     0.037 A 
HETATM   15  C   UNL     1      43.628 -16.569   5.131  1.00  0.00     0.016 A 
BRANCH  13  16
HETATM   16  N   UNL     1      43.897 -19.735   3.116  1.00  0.00    -0.116 N 
HETATM   17  O   UNL     1      43.948 -19.981   1.902  1.00  0.00    -0.532 OA
HETATM   18  O   UNL     1      44.117 -20.563   4.011  1.00  0.00    -0.532 OA
ENDBRANCH  13  16
ENDBRANCH   8  10
ENDBRANCH   2   5
BRANCH   1  19
HETATM   19  C   UNL     1      44.396 -10.005   7.876  1.00  0.00     0.095 A 
HETATM   20  C   UNL     1      45.714  -9.596   7.879  1.00  0.00     0.093 A 
HETATM   21  C   UNL     1      47.000 -10.226   7.521  1.00  0.00     0.080 C 
HETATM   22  O   UNL     1      45.779  -8.298   8.271  1.00  0.00    -0.217 OA
HETATM   23  N   UNL     1      44.509  -7.824   8.513  1.00  0.00    -0.127 NA
HETATM   24  C   UNL     1      43.670  -8.845   8.275  1.00  0.00     0.114 A 
BRANCH  24  25
HETATM   25  C   UNL     1      42.231  -8.664   8.441  1.00  0.00     0.018 A 
HETATM   26  C   UNL     1      41.542  -9.042   9.604  1.00  0.00     0.046 A 
HETATM   27 CL   UNL     1      42.339  -9.705  10.992  1.00  0.00    -0.083 Cl
HETATM   28  C   UNL     1      40.160  -8.840   9.700  1.00  0.00     0.025 A 
HETATM   29  C   UNL     1      39.458  -8.250   8.648  1.00  0.00     0.002 A 
HETATM   30  C   UNL     1      40.135  -7.854   7.498  1.00  0.00     0.001 A 
HETATM   31  C   UNL     1      41.513  -8.060   7.395  1.00  0.00     0.016 A 
ENDBRANCH  24  25
ENDBRANCH   1  19
TORSDOF 5
ENDMDL
MODEL 3
REMARK VINA RESULT:      -8.3      4.667      6.893
REMARK  5 active torsions:
REMARK  status: ('A' for Active; 'I' for Inactive)
REMARK    1  A    between atoms: C_5  and  C_6 
REMARK    2  A    between atoms: C_13  and  C_14 
REMARK       I    between atoms: C_14  and  N_15 
REMARK    3  A    between atoms: N_15  and  C_16 
REMARK    4  A    between atoms: C_19  and  C_20 
REMARK    5  A    between atoms: C_23  and  N_24 
ROOT
HETATM    1  C   UNL     1      40.151 -11.899   1.342  1.00  0.00     0.262 C 
HETATM    2  N   UNL     1      41.489 -12.190   1.458  1.00  0.00    -0.301 N 
HETATM    3  O   UNL     1      39.233 -12.376   1.993  1.00  0.00    -0.267 OA
HETATM    4  H   UNL     1      42.174 -11.629   0.978  1.00  0.00     0.171 HD
ENDROOT
BRANCH   2   5
HETATM    5  C   UNL     1      41.976 -13.122   2.327  1.00  0.00     0.173 A 
HETATM    6  S   UNL     1      42.353 -12.482   3.863  1.00  0.00    -0.061 SA
HETATM    7  C   UNL     1      42.850 -14.045   4.367  1.00  0.00     0.085 A 
HETATM    8  C   UNL     1      42.694 -14.947   3.330  1.00  0.00     0.076 A 
HETATM    9  N   UNL     1      42.207 -14.396   2.152  1.00  0.00    -0.223 NA
BRANCH   8  10
HETATM   10  C   UNL     1      43.039 -16.364   3.416  1.00  0.00    -0.007 A 
HETATM   11  C   UNL     1      42.871 -17.236   2.328  1.00  0.00     0.016 A 
HETATM   12  C   UNL     1      43.197 -18.592   2.439  1.00  0.00     0.037 A 
HETATM   13  C   UNL     1      43.699 -19.086   3.650  1.00  0.00     0.102 A 
HETATM   14  C   UNL     1      43.885 -18.230   4.741  1.00  0.00     0.037 A 
HETATM   15  C   UNL     1      43.559 -16.875   4.616  1.00  0.00     0.016 A 
BRANCH  13  16
HETATM   16  N   UNL     1      44.033 -20.510   3.772  1.00  0.00    -0.116 N 
HETATM   17  O   UNL     1      43.946 -21.210   2.753  1.00  0.00    -0.532 OA
HETATM   18  O   UNL     1      44.375 -20.930   4.886  1.00  0.00    -0.532 OA
ENDBRANCH  13  16
ENDBRANCH   8  10
ENDBRANCH   2   5
BRANCH   1  19
HETATM   19  C   UNL     1      39.902 -10.873   0.346  1.00  0.00     0.095 A 
HETATM   20  C   UNL     1      40.087  -9.513   0.489  1.00  0.00     0.093 A 
HETATM   21  C   UNL     1      40.577  -8.638   1.572  1.00  0.00     0.080 C 
HETATM   22  O   UNL     1      39.766  -8.892  -0.675  1.00  0.00    -0.217 OA
HETATM   23  N   UNL     1      39.385  -9.828  -1.609  1.00  0.00    -0.127 NA
HETATM   24  C   UNL     1      39.466 -11.024  -1.004  1.00  0.00     0.114 A 
BRANCH  24  25
HETATM   25  C   UNL     1      39.126 -12.240  -1.735  1.00  0.00     0.018 A 
HETATM   26  C   UNL     1      37.857 -12.469  -2.292  1.00  0.00     0.046 A 
HETATM   27 CL   UNL     1      36.579 -11.301  -2.221  1.00  0.00    -0.083 Cl
HETATM   28  C   UNL     1      37.595 -13.658  -2.983  1.00  0.00     0.025 A 
HETATM   29  C   UNL     1      38.596 -14.619  -3.138  1.00  0.00     0.002 A 
HETATM   30  C   UNL     1      39.862 -14.394  -2.608  1.00  0.00     0.001 A 
HETATM   31  C   UNL     1      40.127 -13.213  -1.911  1.00  0.00     0.016 A 
ENDBRANCH  24  25
ENDBRANCH   1  19
TORSDOF 5
ENDMDL
MODEL 4
REMARK VINA RESULT:      -8.3      3.085      5.357
REMARK  5 active torsions:
REMARK  status: ('A' for Active; 'I' for Inactive)
REMARK    1  A    between atoms: C_5  and  C_6 
REMARK    2  A    between atoms: C_13  and  C_14 
REMARK       I    between atoms: C_14  and  N_15 
REMARK    3  A    between atoms: N_15  and  C_16 
REMARK    4  A    between atoms: C_19  and  C_20 
REMARK    5  A    between atoms: C_23  and  N_24 
ROOT
HETATM    1  C   UNL     1      42.176 -10.963   3.354  1.00  0.00     0.262 C 
HETATM    2  N   UNL     1      41.459 -12.021   3.862  1.00  0.00    -0.301 N 
HETATM    3  O   UNL     1      43.375 -10.929   3.123  1.00  0.00    -0.267 OA
HETATM    4  H   UNL     1      40.452 -11.993   3.871  1.00  0.00     0.171 HD
ENDROOT
BRANCH   2   5
HETATM    5  C   UNL     1      42.033 -13.203   4.226  1.00  0.00     0.173 A 
HETATM    6  S   UNL     1      42.733 -13.163   5.782  1.00  0.00    -0.061 SA
HETATM    7  C   UNL     1      43.206 -14.801   5.586  1.00  0.00     0.085 A 
HETATM    8  C   UNL     1      42.798 -15.265   4.348  1.00  0.00     0.076 A 
HETATM    9  N   UNL     1      42.139 -14.325   3.566  1.00  0.00    -0.223 NA
BRANCH   8  10
HETATM   10  C   UNL     1      43.054 -16.615   3.853  1.00  0.00    -0.007 A 
HETATM   11  C   UNL     1      42.515 -17.076   2.641  1.00  0.00     0.016 A 
HETATM   12  C   UNL     1      42.765 -18.378   2.194  1.00  0.00     0.037 A 
HETATM   13  C   UNL     1      43.564 -19.232   2.964  1.00  0.00     0.102 A 
HETATM   14  C   UNL     1      44.121 -18.787   4.168  1.00  0.00     0.037 A 
HETATM   15  C   UNL     1      43.867 -17.481   4.602  1.00  0.00     0.016 A 
BRANCH  13  16
HETATM   16  N   UNL     1      43.820 -20.602   2.501  1.00  0.00    -0.116 N 
HETATM   17  O   UNL     1      44.089 -21.457   3.358  1.00  0.00    -0.532 OA
HETATM   18  O   UNL     1      43.758 -20.822   1.284  1.00  0.00    -0.532 OA
ENDBRANCH  13  16
ENDBRANCH   8  10
ENDBRANCH   2   5
BRANCH   1  19
HETATM   19  C   UNL     1      41.326  -9.826   3.050  1.00  0.00     0.095 A 
HETATM   20  C   UNL     1      41.010  -8.777   3.888  1.00  0.00     0.093 A 
HETATM   21  C   UNL     1      41.374  -8.401   5.268  1.00  0.00     0.080 C 
HETATM   22  O   UNL     1      40.210  -7.901   3.227  1.00  0.00    -0.217 OA
HETATM   23  N   UNL     1      40.001  -8.345   1.941  1.00  0.00    -0.127 NA
HETATM   24  C   UNL     1      40.672  -9.502   1.824  1.00  0.00     0.114 A 
BRANCH  24  25
HETATM   25  C   UNL     1      40.654 -10.236   0.562  1.00  0.00     0.018 A 
HETATM   26  C   UNL     1      39.754 -11.280   0.296  1.00  0.00     0.046 A 
HETATM   27 CL   UNL     1      38.526 -11.766   1.417  1.00  0.00    -0.083 Cl
HETATM   28  C   UNL     1      39.789 -11.943  -0.936  1.00  0.00     0.025 A 
HETATM   29  C   UNL     1      40.708 -11.563  -1.916  1.00  0.00     0.002 A 
HETATM   30  C   UNL     1      41.592 -10.517  -1.670  1.00  0.00     0.001 A 
HETATM   31  C   UNL     1      41.566  -9.857  -0.439  1.00  0.00     0.016 A 
ENDBRANCH  24  25
ENDBRANCH   1  19
TORSDOF 5
ENDMDL
MODEL 5
REMARK VINA RESULT:      -8.3      3.795      6.132
REMARK  5 active torsions:
REMARK  status: ('A' for Active; 'I' for Inactive)
REMARK    1  A    between atoms: C_5  and  C_6 
REMARK    2  A    between atoms: C_13  and  C_14 
REMARK       I    between atoms: C_14  and  N_15 
REMARK    3  A    between atoms: N_15  and  C_16 
REMARK    4  A    between atoms: C_19  and  C_20 
REMARK    5  A    between atoms: C_23  and  N_24 
ROOT
HETATM    1  C   UNL     1      39.536 -12.085   2.362  1.00  0.00     0.262 C 
HETATM    2  N   UNL     1      40.908 -12.094   2.442  1.00  0.00    -0.301 N 
HETATM    3  O   UNL     1      38.765 -12.904   2.839  1.00  0.00    -0.267 OA
HETATM    4  H   UNL     1      41.439 -11.291   2.144  1.00  0.00     0.171 HD
ENDROOT
BRANCH   2   5
HETATM    5  C   UNL     1      41.612 -13.087   3.057  1.00  0.00     0.173 A 
HETATM    6  S   UNL     1      42.414 -12.571   4.472  1.00  0.00    -0.061 SA
HETATM    7  C   UNL     1      43.020 -14.162   4.683  1.00  0.00     0.085 A 
HETATM    8  C   UNL     1      42.569 -14.978   3.659  1.00  0.00     0.076 A 
HETATM    9  N   UNL     1      41.774 -14.338   2.717  1.00  0.00    -0.223 NA
BRANCH   8  10
HETATM   10  C   UNL     1      42.912 -16.391   3.525  1.00  0.00    -0.007 A 
HETATM   11  C   UNL     1      43.617 -17.082   4.524  1.00  0.00     0.016 A 
HETATM   12  C   UNL     1      43.944 -18.433   4.366  1.00  0.00     0.037 A 
HETATM   13  C   UNL     1      43.561 -19.107   3.199  1.00  0.00     0.102 A 
HETATM   14  C   UNL     1      42.847 -18.438   2.198  1.00  0.00     0.037 A 
HETATM   15  C   UNL     1      42.522 -17.088   2.369  1.00  0.00     0.016 A 
BRANCH  13  16
HETATM   16  N   UNL     1      43.911 -20.522   3.028  1.00  0.00    -0.116 N 
HETATM   17  O   UNL     1      44.083 -21.200   4.051  1.00  0.00    -0.532 OA
HETATM   18  O   UNL     1      44.021 -20.954   1.872  1.00  0.00    -0.532 OA
ENDBRANCH  13  16
ENDBRANCH   8  10
ENDBRANCH   2   5
BRANCH   1  19
HETATM   19  C   UNL     1      39.040 -10.918   1.657  1.00  0.00     0.095 A 
HETATM   20  C   UNL     1      38.613  -9.729   2.212  1.00  0.00     0.093 A 
HETATM   21  C   UNL     1      38.515  -9.199   3.586  1.00  0.00     0.080 C 
HETATM   22  O   UNL     1      38.248  -8.877   1.221  1.00  0.00    -0.217 OA
HETATM   23  N   UNL     1      38.446  -9.477  -0.002  1.00  0.00    -0.127 NA
HETATM   24  C   UNL     1      38.925 -10.706   0.251  1.00  0.00     0.114 A 
BRANCH  24  25
HETATM   25  C   UNL     1      39.244 -11.609  -0.851  1.00  0.00     0.018 A 
HETATM   26  C   UNL     1      40.420 -11.503  -1.611  1.00  0.00     0.046 A 
HETATM   27 CL   UNL     1      41.647 -10.326  -1.280  1.00  0.00    -0.083 Cl
HETATM   28  C   UNL     1      40.666 -12.403  -2.655  1.00  0.00     0.025 A 
HETATM   29  C   UNL     1      39.754 -13.421  -2.940  1.00  0.00     0.002 A 
HETATM   30  C   UNL     1      38.595 -13.546  -2.180  1.00  0.00     0.001 A 
HETATM   31  C   UNL     1      38.341 -12.646  -1.142  1.00  0.00     0.016 A 
ENDBRANCH  24  25
ENDBRANCH   1  19
TORSDOF 5
ENDMDL
MODEL 6
REMARK VINA RESULT:      -8.2      2.542      3.970
REMARK  5 active torsions:
REMARK  status: ('A' for Active; 'I' for Inactive)
REMARK    1  A    between atoms: C_5  and  C_6 
REMARK    2  A    between atoms: C_13  and  C_14 
REMARK       I    between atoms: C_14  and  N_15 
REMARK    3  A    between atoms: N_15  and  C_16 
REMARK    4  A    between atoms: C_19  and  C_20 
REMARK    5  A    between atoms: C_23  and  N_24 
ROOT
HETATM    1  C   UNL     1      43.529 -11.196   5.841  1.00  0.00     0.262 C 
HETATM    2  N   UNL     1      42.538 -12.087   5.504  1.00  0.00    -0.301 N 
HETATM    3  O   UNL     1      44.655 -11.133   5.370  1.00  0.00    -0.267 OA
HETATM    4  H   UNL     1      41.599 -11.955   5.845  1.00  0.00     0.171 HD
ENDROOT
BRANCH   2   5
HETATM    5  C   UNL     1      42.712 -13.084   4.590  1.00  0.00     0.173 A 
HETATM    6  S   UNL     1      42.656 -12.536   2.974  1.00  0.00    -0.061 SA
HETATM    7  C   UNL     1      42.921 -14.146   2.443  1.00  0.00     0.085 A 
HETATM    8  C   UNL     1      43.033 -14.991   3.534  1.00  0.00     0.076 A 
HETATM    9  N   UNL     1      42.891 -14.366   4.766  1.00  0.00    -0.223 NA
BRANCH   8  10
HETATM   10  C   UNL     1      43.247 -16.432   3.438  1.00  0.00    -0.007 A 
HETATM   11  C   UNL     1      43.903 -17.155   4.447  1.00  0.00     0.016 A 
HETATM   12  C   UNL     1      44.106 -18.534   4.325  1.00  0.00     0.037 A 
HETATM   13  C   UNL     1      43.647 -19.203   3.183  1.00  0.00     0.102 A 
HETATM   14  C   UNL     1      42.979 -18.502   2.173  1.00  0.00     0.037 A 
HETATM   15  C   UNL     1      42.779 -17.123   2.308  1.00  0.00     0.016 A 
BRANCH  13  16
HETATM   16  N   UNL     1      43.867 -20.648   3.049  1.00  0.00    -0.116 N 
HETATM   17  O   UNL     1      43.850 -21.331   4.083  1.00  0.00    -0.532 OA
HETATM   18  O   UNL     1      44.064 -21.099   1.912  1.00  0.00    -0.532 OA
ENDBRANCH  13  16
ENDBRANCH   8  10
ENDBRANCH   2   5
BRANCH   1  19
HETATM   19  C   UNL     1      43.084 -10.239   6.837  1.00  0.00     0.095 A 
HETATM   20  C   UNL     1      43.689  -9.952   8.044  1.00  0.00     0.093 A 
HETATM   21  C   UNL     1      44.905 -10.422   8.735  1.00  0.00     0.080 C 
HETATM   22  O   UNL     1      42.983  -8.983   8.680  1.00  0.00    -0.217 OA
HETATM   23  N   UNL     1      41.916  -8.600   7.900  1.00  0.00    -0.127 NA
HETATM   24  C   UNL     1      41.970  -9.349   6.787  1.00  0.00     0.114 A 
BRANCH  24  25
HETATM   25  C   UNL     1      40.966  -9.181   5.741  1.00  0.00     0.018 A 
HETATM   26  C   UNL     1      39.693  -9.772   5.800  1.00  0.00     0.046 A 
HETATM   27 CL   UNL     1      39.159 -10.712   7.154  1.00  0.00    -0.083 Cl
HETATM   28  C   UNL     1      38.775  -9.571   4.763  1.00  0.00     0.025 A 
HETATM   29  C   UNL     1      39.109  -8.771   3.669  1.00  0.00     0.002 A 
HETATM   30  C   UNL     1      40.360  -8.165   3.610  1.00  0.00     0.001 A 
HETATM   31  C   UNL     1      41.284  -8.368   4.639  1.00  0.00     0.016 A 
ENDBRANCH  24  25
ENDBRANCH   1  19
TORSDOF 5
ENDMDL
MODEL 7
REMARK VINA RESULT:      -8.2      2.544      3.217
REMARK  5 active torsions:
REMARK  status: ('A' for Active; 'I' for Inactive)
REMARK    1  A    between atoms: C_5  and  C_6 
REMARK    2  A    between atoms: C_13  and  C_14 
REMARK       I    between atoms: C_14  and  N_15 
REMARK    3  A    between atoms: N_15  and  C_16 
REMARK    4  A    between atoms: C_19  and  C_20 
REMARK    5  A    between atoms: C_23  and  N_24 
ROOT
HETATM    1  C   UNL     1      41.596  -9.759   6.493  1.00  0.00     0.262 C 
HETATM    2  N   UNL     1      42.261 -10.200   5.374  1.00  0.00    -0.301 N 
HETATM    3  O   UNL     1      40.747 -10.363   7.132  1.00  0.00    -0.267 OA
HETATM    4  H   UNL     1      43.048  -9.684   5.015  1.00  0.00     0.171 HD
ENDROOT
BRANCH   2   5
HETATM    5  C   UNL     1      42.013 -11.406   4.787  1.00  0.00     0.173 A 
HETATM    6  S   UNL     1      40.604 -11.411   3.824  1.00  0.00    -0.061 SA
HETATM    7  C   UNL     1      40.894 -13.061   3.450  1.00  0.00     0.085 A 
HETATM    8  C   UNL     1      42.044 -13.494   4.086  1.00  0.00     0.076 A 
HETATM    9  N   UNL     1      42.668 -12.533   4.870  1.00  0.00    -0.223 NA
BRANCH   8  10
HETATM   10  C   UNL     1      42.570 -14.854   3.994  1.00  0.00    -0.007 A 
HETATM   11  C   UNL     1      42.510 -15.594   2.803  1.00  0.00     0.016 A 
HETATM   12  C   UNL     1      43.010 -16.900   2.744  1.00  0.00     0.037 A 
HETATM   13  C   UNL     1      43.579 -17.475   3.887  1.00  0.00     0.102 A 
HETATM   14  C   UNL     1      43.659 -16.748   5.081  1.00  0.00     0.037 A 
HETATM   15  C   UNL     1      43.159 -15.442   5.125  1.00  0.00     0.016 A 
BRANCH  13  16
HETATM   16  N   UNL     1      44.095 -18.848   3.830  1.00  0.00    -0.116 N 
HETATM   17  O   UNL     1      44.258 -19.355   2.711  1.00  0.00    -0.532 OA
HETATM   18  O   UNL     1      44.332 -19.421   4.903  1.00  0.00    -0.532 OA
ENDBRANCH  13  16
ENDBRANCH   8  10
ENDBRANCH   2   5
BRANCH   1  19
HETATM   19  C   UNL     1      42.048  -8.445   6.912  1.00  0.00     0.095 A 
HETATM   20  C   UNL     1      41.840  -7.247   6.260  1.00  0.00     0.093 A 
HETATM   21  C   UNL     1      41.136  -6.842   5.027  1.00  0.00     0.080 C 
HETATM   22  O   UNL     1      42.397  -6.241   6.981  1.00  0.00    -0.217 OA
HETATM   23  N   UNL     1      42.962  -6.752   8.128  1.00  0.00    -0.127 NA
HETATM   24  C   UNL     1      42.755  -8.078   8.095  1.00  0.00     0.114 A 
BRANCH  24  25
HETATM   25  C   UNL     1      43.239  -8.922   9.184  1.00  0.00     0.018 A 
HETATM   26  C   UNL     1      44.579  -9.322   9.304  1.00  0.00     0.046 A 
HETATM   27 CL   UNL     1      45.814  -8.803   8.206  1.00  0.00    -0.083 Cl
HETATM   28  C   UNL     1      44.979 -10.133  10.374  1.00  0.00     0.025 A 
HETATM   29  C   UNL     1      44.052 -10.537  11.337  1.00  0.00     0.002 A 
HETATM   30  C   UNL     1      42.726 -10.131  11.237  1.00  0.00     0.001 A 
HETATM   31  C   UNL     1      42.320  -9.328  10.168  1.00  0.00     0.016 A 
ENDBRANCH  24  25
ENDBRANCH   1  19
TORSDOF 5
ENDMDL
MODEL 8
REMARK VINA RESULT:      -8.1      2.613      3.482
REMARK  5 active torsions:
REMARK  status: ('A' for Active; 'I' for Inactive)
REMARK    1  A    between atoms: C_5  and  C_6 
REMARK    2  A    between atoms: C_13  and  C_14 
REMARK       I    between atoms: C_14  and  N_15 
REMARK    3  A    between atoms: N_15  and  C_16 
REMARK    4  A    between atoms: C_19  and  C_20 
REMARK    5  A    between atoms: C_23  and  N_24 
ROOT
HETATM    1  C   UNL     1      41.580  -9.700   6.258  1.00  0.00     0.262 C 
HETATM    2  N   UNL     1      42.251 -10.106   5.130  1.00  0.00    -0.301 N 
HETATM    3  O   UNL     1      40.767 -10.345   6.904  1.00  0.00    -0.267 OA
HETATM    4  H   UNL     1      43.010  -9.553   4.764  1.00  0.00     0.171 HD
ENDROOT
BRANCH   2   5
HETATM    5  C   UNL     1      42.052 -11.319   4.541  1.00  0.00     0.173 A 
HETATM    6  S   UNL     1      40.788 -11.315   3.394  1.00  0.00    -0.061 SA
HETATM    7  C   UNL     1      41.080 -12.980   3.099  1.00  0.00     0.085 A 
HETATM    8  C   UNL     1      42.121 -13.425   3.895  1.00  0.00     0.076 A 
HETATM    9  N   UNL     1      42.659 -12.459   4.736  1.00  0.00    -0.223 NA
BRANCH   8  10
HETATM   10  C   UNL     1      42.617 -14.799   3.906  1.00  0.00    -0.007 A 
HETATM   11  C   UNL     1      43.180 -15.375   5.055  1.00  0.00     0.016 A 
HETATM   12  C   UNL     1      43.659 -16.690   5.036  1.00  0.00     0.037 A 
HETATM   13  C   UNL     1      43.574 -17.441   3.857  1.00  0.00     0.102 A 
HETATM   14  C   UNL     1      43.004 -16.887   2.705  1.00  0.00     0.037 A 
HETATM   15  C   UNL     1      42.525 -15.573   2.737  1.00  0.00     0.016 A 
BRANCH  13  16
HETATM   16  N   UNL     1      44.084 -18.817   3.832  1.00  0.00    -0.116 N 
HETATM   17  O   UNL     1      44.200 -19.368   2.728  1.00  0.00    -0.532 OA
HETATM   18  O   UNL     1      44.364 -19.349   4.916  1.00  0.00    -0.532 OA
ENDBRANCH  13  16
ENDBRANCH   8  10
ENDBRANCH   2   5
BRANCH   1  19
HETATM   19  C   UNL     1      41.976  -8.368   6.677  1.00  0.00     0.095 A 
HETATM   20  C   UNL     1      41.659  -7.174   6.062  1.00  0.00     0.093 A 
HETATM   21  C   UNL     1      40.864  -6.792   4.879  1.00  0.00     0.080 C 
HETATM   22  O   UNL     1      42.195  -6.148   6.772  1.00  0.00    -0.217 OA
HETATM   23  N   UNL     1      42.855  -6.643   7.874  1.00  0.00    -0.127 NA
HETATM   24  C   UNL     1      42.726  -7.979   7.827  1.00  0.00     0.114 A 
BRANCH  24  25
HETATM   25  C   UNL     1      43.321  -8.810   8.869  1.00  0.00     0.018 A 
HETATM   26  C   UNL     1      42.576  -9.370   9.919  1.00  0.00     0.046 A 
HETATM   27 CL   UNL     1      40.859  -9.185  10.053  1.00  0.00    -0.083 Cl
HETATM   28  C   UNL     1      43.208 -10.160  10.887  1.00  0.00     0.025 A 
HETATM   29  C   UNL     1      44.580 -10.409  10.809  1.00  0.00     0.002 A 
HETATM   30  C   UNL     1      45.323  -9.874   9.762  1.00  0.00     0.001 A 
HETATM   31  C   UNL     1      44.699  -9.080   8.797  1.00  0.00     0.016 A 
ENDBRANCH  24  25
ENDBRANCH   1  19
TORSDOF 5
ENDMDL
MODEL 9
REMARK VINA RESULT:      -8.1      5.229      9.368
REMARK  5 active torsions:
REMARK  status: ('A' for Active; 'I' for Inactive)
REMARK    1  A    between atoms: C_5  and  C_6 
REMARK    2  A    between atoms: C_13  and  C_14 
REMARK       I    between atoms: C_14  and  N_15 
REMARK    3  A    between atoms: N_15  and  C_16 
REMARK    4  A    between atoms: C_19  and  C_20 
REMARK    5  A    between atoms: C_23  and  N_24 
ROOT
HETATM    1  C   UNL     1      41.658 -13.791   3.058  1.00  0.00     0.262 C 
HETATM    2  N   UNL     1      40.555 -13.762   2.237  1.00  0.00    -0.301 N 
HETATM    3  O   UNL     1      42.771 -13.353   2.811  1.00  0.00    -0.267 OA
HETATM    4  H   UNL     1      39.648 -14.015   2.595  1.00  0.00     0.171 HD
ENDROOT
BRANCH   2   5
HETATM    5  C   UNL     1      40.583 -13.256   0.971  1.00  0.00     0.173 A 
HETATM    6  S   UNL     1      40.129 -14.390  -0.221  1.00  0.00    -0.061 SA
HETATM    7  C   UNL     1      40.368 -13.189  -1.423  1.00  0.00     0.085 A 
HETATM    8  C   UNL     1      40.778 -12.006  -0.833  1.00  0.00     0.076 A 
HETATM    9  N   UNL     1      40.916 -12.066   0.547  1.00  0.00    -0.223 NA
BRANCH   8  10
HETATM   10  C   UNL     1      41.086 -10.784  -1.572  1.00  0.00    -0.007 A 
HETATM   11  C   UNL     1      41.883  -9.767  -1.024  1.00  0.00     0.016 A 
HETATM   12  C   UNL     1      42.154  -8.600  -1.748  1.00  0.00     0.037 A 
HETATM   13  C   UNL     1      41.626  -8.446  -3.036  1.00  0.00     0.102 A 
HETATM   14  C   UNL     1      40.840  -9.455  -3.604  1.00  0.00     0.037 A 
HETATM   15  C   UNL     1      40.579 -10.619  -2.871  1.00  0.00     0.016 A 
BRANCH  13  16
HETATM   16  N   UNL     1      41.900  -7.219  -3.793  1.00  0.00    -0.116 N 
HETATM   17  O   UNL     1      40.986  -6.388  -3.892  1.00  0.00    -0.532 OA
HETATM   18  O   UNL     1      43.027  -7.088  -4.292  1.00  0.00    -0.532 OA
ENDBRANCH  13  16
ENDBRANCH   8  10
ENDBRANCH   2   5
BRANCH   1  19
HETATM   19  C   UNL     1      41.359 -14.382   4.349  1.00  0.00     0.095 A 
HETATM   20  C   UNL     1      40.585 -13.838   5.353  1.00  0.00     0.093 A 
HETATM   21  C   UNL     1      39.810 -12.592   5.511  1.00  0.00     0.080 C 
HETATM   22  O   UNL     1      40.525 -14.708   6.394  1.00  0.00    -0.217 OA
HETATM   23  N   UNL     1      41.238 -15.845   6.088  1.00  0.00    -0.127 NA
HETATM   24  C   UNL     1      41.742 -15.659   4.857  1.00  0.00     0.114 A 
BRANCH  24  25
HETATM   25  C   UNL     1      42.557 -16.697   4.234  1.00  0.00     0.018 A 
HETATM   26  C   UNL     1      43.711 -17.227   4.833  1.00  0.00     0.046 A 
HETATM   27 CL   UNL     1      44.254 -16.746   6.407  1.00  0.00    -0.083 Cl
HETATM   28  C   UNL     1      44.449 -18.222   4.182  1.00  0.00     0.025 A 
HETATM   29  C   UNL     1      44.036 -18.707   2.940  1.00  0.00     0.002 A 
HETATM   30  C   UNL     1      42.884 -18.203   2.346  1.00  0.00     0.001 A 
HETATM   31  C   UNL     1      42.148 -17.204   2.988  1.00  0.00     0.016 A 
ENDBRANCH  24  25
ENDBRANCH   1  19
TORSDOF 5
ENDMDL
MODEL 10
REMARK VINA RESULT:      -7.8      4.216      9.454
REMARK  5 active torsions:
REMARK  status: ('A' for Active; 'I' for Inactive)
REMARK    1  A    between atoms: C_5  and  C_6 
REMARK    2  A    between atoms: C_13  and  C_14 
REMARK       I    between atoms: C_14  and  N_15 
REMARK    3  A    between atoms: N_15  and  C_16 
REMARK    4  A    between atoms: C_19  and  C_20 
REMARK    5  A    between atoms: C_23  and  N_24 
ROOT
HETATM    1  C   UNL     1      43.074 -13.724   6.028  1.00  0.00     0.262 C 
HETATM    2  N   UNL     1      44.314 -13.208   6.321  1.00  0.00    -0.301 N 
HETATM    3  O   UNL     1      41.992 -13.305   6.411  1.00  0.00    -0.267 OA
HETATM    4  H   UNL     1      45.130 -13.538   5.832  1.00  0.00     0.171 HD
ENDROOT
BRANCH   2   5
HETATM    5  C   UNL     1      44.499 -12.141   7.150  1.00  0.00     0.173 A 
HETATM    6  S   UNL     1      45.703 -11.062   6.602  1.00  0.00    -0.061 SA
HETATM    7  C   UNL     1      45.419 -10.081   7.981  1.00  0.00     0.085 A 
HETATM    8  C   UNL     1      44.426 -10.643   8.764  1.00  0.00     0.076 A 
HETATM    9  N   UNL     1      43.918 -11.842   8.281  1.00  0.00    -0.223 NA
BRANCH   8  10
HETATM   10  C   UNL     1      43.950 -10.072  10.021  1.00  0.00    -0.007 A 
HETATM   11  C   UNL     1      43.642 -10.875  11.131  1.00  0.00     0.016 A 
HETATM   12  C   UNL     1      43.176 -10.304  12.321  1.00  0.00     0.037 A 
HETATM   13  C   UNL     1      43.017  -8.915  12.407  1.00  0.00     0.102 A 
HETATM   14  C   UNL     1      43.331  -8.098  11.315  1.00  0.00     0.037 A 
HETATM   15  C   UNL     1      43.800  -8.680  10.132  1.00  0.00     0.016 A 
BRANCH  13  16
HETATM   16  N   UNL     1      42.519  -8.315  13.651  1.00  0.00    -0.116 N 
HETATM   17  O   UNL     1      41.967  -9.064  14.469  1.00  0.00    -0.532 OA
HETATM   18  O   UNL     1      42.674  -7.096  13.807  1.00  0.00    -0.532 OA
ENDBRANCH  13  16
ENDBRANCH   8  10
ENDBRANCH   2   5
BRANCH   1  19
HETATM   19  C   UNL     1      43.156 -14.857   5.124  1.00  0.00     0.095 A 
HETATM   20  C   UNL     1      43.663 -16.109   5.405  1.00  0.00     0.093 A 
HETATM   21  C   UNL     1      44.242 -16.753   6.601  1.00  0.00     0.080 C 
HETATM   22  O   UNL     1      43.540 -16.899   4.308  1.00  0.00    -0.217 OA
HETATM   23  N   UNL     1      42.933 -16.192   3.295  1.00  0.00    -0.127 NA
HETATM   24  C   UNL     1      42.696 -14.962   3.778  1.00  0.00     0.114 A 
BRANCH  24  25
HETATM   25  C   UNL     1      42.051 -13.956   2.939  1.00  0.00     0.018 A 
HETATM   26  C   UNL     1      40.803 -14.155   2.329  1.00  0.00     0.046 A 
HETATM   27 CL   UNL     1      39.866 -15.595   2.559  1.00  0.00    -0.083 Cl
HETATM   28  C   UNL     1      40.238 -13.149   1.536  1.00  0.00     0.025 A 
HETATM   29  C   UNL     1      40.904 -11.935   1.357  1.00  0.00     0.002 A 
HETATM   30  C   UNL     1      42.132 -11.720   1.973  1.00  0.00     0.001 A 
HETATM   31  C   UNL     1      42.703 -12.724   2.760  1.00  0.00     0.016 A 
ENDBRANCH  24  25
ENDBRANCH   1  19
TORSDOF 5
ENDMDL
