MODEL 1
REMARK VINA RESULT:      -9.8      0.000      0.000
REMARK  6 active torsions:
REMARK  status: ('A' for Active; 'I' for Inactive)
REMARK    1  A    between atoms: C_2  and  O_3 
REMARK    2  A    between atoms: C_2  and  C_4 
REMARK    3  A    between atoms: C_6  and  N_7 
REMARK       I    between atoms: N_7  and  C_8 
REMARK    4  A    between atoms: C_8  and  C_9 
REMARK    5  A    between atoms: C_14  and  C_15 
REMARK    6  A    between atoms: C_23  and  C_24 
ROOT
HETATM    1  C   UNL     1      42.636 -12.343   5.547  1.00  0.00     0.148 A 
HETATM    2  N   UNL     1      41.447 -12.992   5.571  1.00  0.00    -0.165 NA
HETATM    3  N   UNL     1      41.611 -13.977   4.664  1.00  0.00    -0.240 N 
HETATM    4  C   UNL     1      42.801 -13.918   3.996  1.00  0.00     0.123 A 
HETATM    5  N   UNL     1      43.107 -14.769   2.997  1.00  0.00    -0.366 N 
HETATM    6  C   UNL     1      42.249 -15.881   2.621  1.00  0.00     0.118 C 
HETATM    7  C   UNL     1      40.787 -15.648   3.043  1.00  0.00     0.066 C 
HETATM    8  C   UNL     1      40.582 -14.965   4.411  1.00  0.00     0.221 C 
HETATM    9  C   UNL     1      43.503 -12.890   4.564  1.00  0.00     0.089 A 
HETATM   10  H   UNL     1      44.045 -14.788   2.599  1.00  0.00     0.161 HD
ENDROOT
BRANCH   1  11
HETATM   11  C   UNL     1      42.949 -11.213   6.440  1.00  0.00     0.276 C 
HETATM   12  N   UNL     1      43.599 -11.615   7.590  1.00  0.00    -0.322 N 
HETATM   13  H   UNL     1      43.724 -12.622   7.659  1.00  0.00     0.169 HD
HETATM   14  O   UNL     1      42.628 -10.067   6.142  1.00  0.00    -0.266 OA
BRANCH  12  15
HETATM   15  C   UNL     1      44.074 -10.810   8.641  1.00  0.00     0.035 A 
HETATM   16  C   UNL     1      43.423 -10.677   9.870  1.00  0.00     0.039 A 
HETATM   17  C   UNL     1      43.935  -9.847  10.885  1.00  0.00    -0.028 A 
HETATM   18  C   UNL     1      45.135  -9.166  10.652  1.00  0.00     0.010 A 
HETATM   19  C   UNL     1      45.794  -9.290   9.429  1.00  0.00     0.003 A 
HETATM   20  C   UNL     1      45.262 -10.103   8.426  1.00  0.00     0.029 A 
BRANCH  17  21
HETATM   21  C   UNL     1      43.190  -9.736  12.198  1.00  0.00     0.147 C 
HETATM   22  C   UNL     1      43.100  -8.291  12.672  1.00  0.00     0.044 C 
BRANCH  21  23
HETATM   23  O   UNL     1      41.871 -10.266  12.071  1.00  0.00    -0.391 OA
HETATM   24  H   UNL     1      41.853 -11.098  12.572  1.00  0.00     0.210 HD
ENDBRANCH  21  23
ENDBRANCH  17  21
ENDBRANCH  12  15
ENDBRANCH   1  11
BRANCH   8  25
HETATM   25  C   UNL     1      40.486 -15.938   5.565  1.00  0.00     0.409 C 
HETATM   26  F   UNL     1      41.676 -16.272   6.095  1.00  0.00    -0.169 F 
HETATM   27  F   UNL     1      39.714 -15.461   6.568  1.00  0.00    -0.169 F 
HETATM   28  F   UNL     1      39.897 -17.090   5.152  1.00  0.00    -0.169 F 
ENDBRANCH   8  25
BRANCH   6  29
HETATM   29  C   UNL     1      42.848 -17.218   3.023  1.00  0.00    -0.035 A 
HETATM   30  C   UNL     1      43.621 -17.386   4.185  1.00  0.00     0.012 A 
HETATM   31  C   UNL     1      44.188 -18.624   4.498  1.00  0.00     0.043 A 
HETATM   32  C   UNL     1      44.001 -19.699   3.642  1.00  0.00     0.116 A 
HETATM   33  F   UNL     1      44.559 -20.882   3.934  1.00  0.00    -0.206 F 
HETATM   34  C   UNL     1      43.247 -19.564   2.484  1.00  0.00     0.043 A 
HETATM   35  C   UNL     1      42.667 -18.331   2.179  1.00  0.00     0.012 A 
ENDBRANCH   6  29
TORSDOF 6
ENDMDL
MODEL 2
REMARK VINA RESULT:      -9.4      3.683      9.623
REMARK  6 active torsions:
REMARK  status: ('A' for Active; 'I' for Inactive)
REMARK    1  A    between atoms: C_2  and  O_3 
REMARK    2  A    between atoms: C_2  and  C_4 
REMARK    3  A    between atoms: C_6  and  N_7 
REMARK       I    between atoms: N_7  and  C_8 
REMARK    4  A    between atoms: C_8  and  C_9 
REMARK    5  A    between atoms: C_14  and  C_15 
REMARK    6  A    between atoms: C_23  and  C_24 
ROOT
HETATM    1  C   UNL     1      42.073 -11.403   5.990  1.00  0.00     0.148 A 
HETATM    2  N   UNL     1      43.328 -10.980   6.277  1.00  0.00    -0.165 NA
HETATM    3  N   UNL     1      43.132 -10.047   7.231  1.00  0.00    -0.240 N 
HETATM    4  C   UNL     1      41.816  -9.787   7.485  1.00  0.00     0.123 A 
HETATM    5  N   UNL     1      41.427  -8.828   8.348  1.00  0.00    -0.366 N 
HETATM    6  C   UNL     1      42.367  -8.068   9.155  1.00  0.00     0.118 C 
HETATM    7  C   UNL     1      43.776  -8.052   8.535  1.00  0.00     0.066 C 
HETATM    8  C   UNL     1      44.237  -9.368   7.877  1.00  0.00     0.221 C 
HETATM    9  C   UNL     1      41.102 -10.669   6.721  1.00  0.00     0.089 A 
HETATM   10  H   UNL     1      40.448  -8.735   8.616  1.00  0.00     0.161 HD
ENDROOT
BRANCH   1  11
HETATM   11  C   UNL     1      41.794 -12.487   5.031  1.00  0.00     0.276 C 
HETATM   12  N   UNL     1      42.933 -13.178   4.670  1.00  0.00    -0.322 N 
HETATM   13  H   UNL     1      43.785 -12.810   5.088  1.00  0.00     0.169 HD
HETATM   14  O   UNL     1      40.653 -12.692   4.627  1.00  0.00    -0.266 OA
BRANCH  12  15
HETATM   15  C   UNL     1      43.038 -14.284   3.809  1.00  0.00     0.035 A 
HETATM   16  C   UNL     1      43.172 -15.603   4.255  1.00  0.00     0.039 A 
HETATM   17  C   UNL     1      43.285 -16.674   3.349  1.00  0.00    -0.028 A 
HETATM   18  C   UNL     1      43.239 -16.401   1.977  1.00  0.00     0.010 A 
HETATM   19  C   UNL     1      43.107 -15.090   1.521  1.00  0.00     0.003 A 
HETATM   20  C   UNL     1      43.014 -14.036   2.433  1.00  0.00     0.029 A 
BRANCH  17  21
HETATM   21  C   UNL     1      43.430 -18.083   3.884  1.00  0.00     0.147 C 
HETATM   22  C   UNL     1      43.728 -19.079   2.769  1.00  0.00     0.044 C 
BRANCH  21  23
HETATM   23  O   UNL     1      44.474 -18.146   4.854  1.00  0.00    -0.391 OA
HETATM   24  H   UNL     1      44.187 -17.610   5.611  1.00  0.00     0.210 HD
ENDBRANCH  21  23
ENDBRANCH  17  21
ENDBRANCH  12  15
ENDBRANCH   1  11
BRANCH   8  25
HETATM   25  C   UNL     1      44.952 -10.303   8.828  1.00  0.00     0.409 C 
HETATM   26  F   UNL     1      45.842 -11.113   8.226  1.00  0.00    -0.169 F 
HETATM   27  F   UNL     1      45.607  -9.631   9.802  1.00  0.00    -0.169 F 
HETATM   28  F   UNL     1      44.051 -11.099   9.460  1.00  0.00    -0.169 F 
ENDBRANCH   8  25
BRANCH   6  29
HETATM   29  C   UNL     1      42.295  -8.458  10.622  1.00  0.00    -0.035 A 
HETATM   30  C   UNL     1      41.321  -9.336  11.129  1.00  0.00     0.012 A 
HETATM   31  C   UNL     1      41.263  -9.638  12.492  1.00  0.00     0.043 A 
HETATM   32  C   UNL     1      42.170  -9.051  13.361  1.00  0.00     0.116 A 
HETATM   33  F   UNL     1      42.105  -9.327  14.671  1.00  0.00    -0.206 F 
HETATM   34  C   UNL     1      43.142  -8.177  12.893  1.00  0.00     0.043 A 
HETATM   35  C   UNL     1      43.209  -7.887  11.528  1.00  0.00     0.012 A 
ENDBRANCH   6  29
TORSDOF 6
ENDMDL
MODEL 3
REMARK VINA RESULT:      -9.2      6.196      9.101
REMARK  6 active torsions:
REMARK  status: ('A' for Active; 'I' for Inactive)
REMARK    1  A    between atoms: C_2  and  O_3 
REMARK    2  A    between atoms: C_2  and  C_4 
REMARK    3  A    between atoms: C_6  and  N_7 
REMARK       I    between atoms: N_7  and  C_8 
REMARK    4  A    between atoms: C_8  and  C_9 
REMARK    5  A    between atoms: C_14  and  C_15 
REMARK    6  A    between atoms: C_23  and  C_24 
ROOT
HETATM    1  C   UNL     1      40.558 -13.021  -0.596  1.00  0.00     0.148 A 
HETATM    2  N   UNL     1      40.959 -12.416   0.548  1.00  0.00    -0.165 NA
HETATM    3  N   UNL     1      40.909 -13.408   1.460  1.00  0.00    -0.240 N 
HETATM    4  C   UNL     1      40.401 -14.578   0.974  1.00  0.00     0.123 A 
HETATM    5  N   UNL     1      40.200 -15.655   1.758  1.00  0.00    -0.366 N 
HETATM    6  C   UNL     1      40.605 -15.698   3.154  1.00  0.00     0.118 C 
HETATM    7  C   UNL     1      40.730 -14.288   3.760  1.00  0.00     0.066 C 
HETATM    8  C   UNL     1      41.323 -13.207   2.834  1.00  0.00     0.221 C 
HETATM    9  C   UNL     1      40.191 -14.373  -0.362  1.00  0.00     0.089 A 
HETATM   10  H   UNL     1      39.938 -16.553   1.353  1.00  0.00     0.161 HD
ENDROOT
BRANCH   1  11
HETATM   11  C   UNL     1      40.517 -12.328  -1.896  1.00  0.00     0.276 C 
HETATM   12  N   UNL     1      40.295 -10.972  -1.763  1.00  0.00    -0.322 N 
HETATM   13  H   UNL     1      40.157 -10.672  -0.801  1.00  0.00     0.169 HD
HETATM   14  O   UNL     1      40.660 -12.948  -2.945  1.00  0.00    -0.266 OA
BRANCH  12  15
HETATM   15  C   UNL     1      40.230 -10.002  -2.779  1.00  0.00     0.035 A 
HETATM   16  C   UNL     1      41.209  -9.026  -2.982  1.00  0.00     0.039 A 
HETATM   17  C   UNL     1      41.089  -8.069  -4.008  1.00  0.00    -0.028 A 
HETATM   18  C   UNL     1      39.971  -8.124  -4.848  1.00  0.00     0.010 A 
HETATM   19  C   UNL     1      38.987  -9.093  -4.654  1.00  0.00     0.003 A 
HETATM   20  C   UNL     1      39.113 -10.023  -3.620  1.00  0.00     0.029 A 
BRANCH  17  21
HETATM   21  C   UNL     1      42.178  -7.032  -4.185  1.00  0.00     0.147 C 
HETATM   22  C   UNL     1      43.008  -6.868  -2.917  1.00  0.00     0.044 C 
BRANCH  21  23
HETATM   23  O   UNL     1      43.041  -7.392  -5.262  1.00  0.00    -0.391 OA
HETATM   24  H   UNL     1      43.937  -7.461  -4.893  1.00  0.00     0.210 HD
ENDBRANCH  21  23
ENDBRANCH  17  21
ENDBRANCH  12  15
ENDBRANCH   1  11
BRANCH   8  25
HETATM   25  C   UNL     1      42.829 -13.094   2.924  1.00  0.00     0.409 C 
HETATM   26  F   UNL     1      43.486 -13.912   2.081  1.00  0.00    -0.169 F 
HETATM   27  F   UNL     1      43.258 -11.834   2.685  1.00  0.00    -0.169 F 
HETATM   28  F   UNL     1      43.244 -13.401   4.180  1.00  0.00    -0.169 F 
ENDBRANCH   8  25
BRANCH   6  29
HETATM   29  C   UNL     1      41.795 -16.618   3.369  1.00  0.00    -0.035 A 
HETATM   30  C   UNL     1      42.277 -17.483   2.371  1.00  0.00     0.012 A 
HETATM   31  C   UNL     1      43.350 -18.343   2.621  1.00  0.00     0.043 A 
HETATM   32  C   UNL     1      43.938 -18.355   3.877  1.00  0.00     0.116 A 
HETATM   33  F   UNL     1      44.956 -19.191   4.123  1.00  0.00    -0.206 F 
HETATM   34  C   UNL     1      43.483 -17.515   4.885  1.00  0.00     0.043 A 
HETATM   35  C   UNL     1      42.421 -16.645   4.630  1.00  0.00     0.012 A 
ENDBRANCH   6  29
TORSDOF 6
ENDMDL
MODEL 4
REMARK VINA RESULT:      -9.1      6.437      9.782
REMARK  6 active torsions:
REMARK  status: ('A' for Active; 'I' for Inactive)
REMARK    1  A    between atoms: C_2  and  O_3 
REMARK    2  A    between atoms: C_2  and  C_4 
REMARK    3  A    between atoms: C_6  and  N_7 
REMARK       I    between atoms: N_7  and  C_8 
REMARK    4  A    between atoms: C_8  and  C_9 
REMARK    5  A    between atoms: C_14  and  C_15 
REMARK    6  A    between atoms: C_23  and  C_24 
ROOT
HETATM    1  C   UNL     1      40.298 -14.021   1.324  1.00  0.00     0.148 A 
HETATM    2  N   UNL     1      39.925 -14.146   0.027  1.00  0.00    -0.165 NA
HETATM    3  N   UNL     1      39.741 -12.870  -0.369  1.00  0.00    -0.240 N 
HETATM    4  C   UNL     1      39.878 -11.956   0.636  1.00  0.00     0.123 A 
HETATM    5  N   UNL     1      39.651 -10.641   0.447  1.00  0.00    -0.366 N 
HETATM    6  C   UNL     1      39.350 -10.075  -0.858  1.00  0.00     0.118 C 
HETATM    7  C   UNL     1      38.767 -11.126  -1.820  1.00  0.00     0.066 C 
HETATM    8  C   UNL     1      39.388 -12.535  -1.734  1.00  0.00     0.221 C 
HETATM    9  C   UNL     1      40.269 -12.663   1.740  1.00  0.00     0.089 A 
HETATM   10  H   UNL     1      39.879  -9.964   1.174  1.00  0.00     0.161 HD
ENDROOT
BRANCH   1  11
HETATM   11  C   UNL     1      40.674 -15.172   2.163  1.00  0.00     0.276 C 
HETATM   12  N   UNL     1      42.042 -15.345   2.239  1.00  0.00    -0.322 N 
HETATM   13  H   UNL     1      42.570 -14.681   1.678  1.00  0.00     0.169 HD
HETATM   14  O   UNL     1      39.817 -15.869   2.697  1.00  0.00    -0.266 OA
BRANCH  12  15
HETATM   15  C   UNL     1      42.752 -16.313   2.971  1.00  0.00     0.035 A 
HETATM   16  C   UNL     1      42.964 -17.620   2.524  1.00  0.00     0.039 A 
HETATM   17  C   UNL     1      43.672 -18.555   3.303  1.00  0.00    -0.028 A 
HETATM   18  C   UNL     1      44.188 -18.146   4.538  1.00  0.00     0.010 A 
HETATM   19  C   UNL     1      43.981 -16.844   4.995  1.00  0.00     0.003 A 
HETATM   20  C   UNL     1      43.261 -15.935   4.218  1.00  0.00     0.029 A 
BRANCH  17  21
HETATM   21  C   UNL     1      43.873 -19.959   2.773  1.00  0.00     0.147 C 
HETATM   22  C   UNL     1      43.862 -20.989   3.897  1.00  0.00     0.044 C 
BRANCH  21  23
HETATM   23  O   UNL     1      42.855 -20.289   1.831  1.00  0.00    -0.391 OA
HETATM   24  H   UNL     1      42.816 -19.559   1.191  1.00  0.00     0.210 HD
ENDBRANCH  21  23
ENDBRANCH  17  21
ENDBRANCH  12  15
ENDBRANCH   1  11
BRANCH   8  25
HETATM   25  C   UNL     1      40.573 -12.732  -2.653  1.00  0.00     0.409 C 
HETATM   26  F   UNL     1      40.783 -14.015  -3.001  1.00  0.00    -0.169 F 
HETATM   27  F   UNL     1      40.454 -12.016  -3.794  1.00  0.00    -0.169 F 
HETATM   28  F   UNL     1      41.707 -12.292  -2.049  1.00  0.00    -0.169 F 
ENDBRANCH   8  25
BRANCH   6  29
HETATM   29  C   UNL     1      40.508  -9.253  -1.398  1.00  0.00    -0.035 A 
HETATM   30  C   UNL     1      41.617  -8.894  -0.612  1.00  0.00     0.012 A 
HETATM   31  C   UNL     1      42.643  -8.103  -1.135  1.00  0.00     0.043 A 
HETATM   32  C   UNL     1      42.560  -7.651  -2.444  1.00  0.00     0.116 A 
HETATM   33  F   UNL     1      43.535  -6.879  -2.941  1.00  0.00    -0.206 F 
HETATM   34  C   UNL     1      41.476  -7.986  -3.245  1.00  0.00     0.043 A 
HETATM   35  C   UNL     1      40.457  -8.789  -2.726  1.00  0.00     0.012 A 
ENDBRANCH   6  29
TORSDOF 6
ENDMDL
MODEL 5
REMARK VINA RESULT:      -9.1      6.509      9.637
REMARK  6 active torsions:
REMARK  status: ('A' for Active; 'I' for Inactive)
REMARK    1  A    between atoms: C_2  and  O_3 
REMARK    2  A    between atoms: C_2  and  C_4 
REMARK    3  A    between atoms: C_6  and  N_7 
REMARK       I    between atoms: N_7  and  C_8 
REMARK    4  A    between atoms: C_8  and  C_9 
REMARK    5  A    between atoms: C_14  and  C_15 
REMARK    6  A    between atoms: C_23  and  C_24 
ROOT
HETATM    1  C   UNL     1      40.347 -13.232  -0.690  1.00  0.00     0.148 A 
HETATM    2  N   UNL     1      40.774 -12.571   0.413  1.00  0.00    -0.165 NA
HETATM    3  N   UNL     1      40.764 -13.521   1.369  1.00  0.00    -0.240 N 
HETATM    4  C   UNL     1      40.257 -14.718   0.952  1.00  0.00     0.123 A 
HETATM    5  N   UNL     1      40.092 -15.760   1.789  1.00  0.00    -0.366 N 
HETATM    6  C   UNL     1      40.539 -15.735   3.173  1.00  0.00     0.118 C 
HETATM    7  C   UNL     1      40.664 -14.298   3.711  1.00  0.00     0.066 C 
HETATM    8  C   UNL     1      41.217 -13.254   2.720  1.00  0.00     0.221 C 
HETATM    9  C   UNL     1      40.004 -14.576  -0.385  1.00  0.00     0.089 A 
HETATM   10  H   UNL     1      39.830 -16.678   1.433  1.00  0.00     0.161 HD
ENDROOT
BRANCH   1  11
HETATM   11  C   UNL     1      40.259 -12.599  -2.018  1.00  0.00     0.276 C 
HETATM   12  N   UNL     1      39.913 -11.264  -1.944  1.00  0.00    -0.322 N 
HETATM   13  H   UNL     1      39.736 -10.939  -0.997  1.00  0.00     0.169 HD
HETATM   14  O   UNL     1      40.471 -13.245  -3.039  1.00  0.00    -0.266 OA
BRANCH  12  15
HETATM   15  C   UNL     1      39.771 -10.347  -3.001  1.00  0.00     0.035 A 
HETATM   16  C   UNL     1      38.553 -10.069  -3.627  1.00  0.00     0.039 A 
HETATM   17  C   UNL     1      38.468  -9.151  -4.690  1.00  0.00    -0.028 A 
HETATM   18  C   UNL     1      39.633  -8.493  -5.103  1.00  0.00     0.010 A 
HETATM   19  C   UNL     1      40.854  -8.764  -4.486  1.00  0.00     0.003 A 
HETATM   20  C   UNL     1      40.924  -9.692  -3.445  1.00  0.00     0.029 A 
BRANCH  17  21
HETATM   21  C   UNL     1      37.125  -8.886  -5.335  1.00  0.00     0.147 C 
HETATM   22  C   UNL     1      37.243  -8.767  -6.850  1.00  0.00     0.044 C 
BRANCH  21  23
HETATM   23  O   UNL     1      36.205  -9.931  -5.022  1.00  0.00    -0.391 OA
HETATM   24  H   UNL     1      35.515  -9.912  -5.706  1.00  0.00     0.210 HD
ENDBRANCH  21  23
ENDBRANCH  17  21
ENDBRANCH  12  15
ENDBRANCH   1  11
BRANCH   8  25
HETATM   25  C   UNL     1      42.723 -13.120   2.759  1.00  0.00     0.409 C 
HETATM   26  F   UNL     1      43.362 -13.920   1.885  1.00  0.00    -0.169 F 
HETATM   27  F   UNL     1      43.126 -11.852   2.517  1.00  0.00    -0.169 F 
HETATM   28  F   UNL     1      43.185 -13.432   3.997  1.00  0.00    -0.169 F 
ENDBRANCH   8  25
BRANCH   6  29
HETATM   29  C   UNL     1      41.747 -16.631   3.392  1.00  0.00    -0.035 A 
HETATM   30  C   UNL     1      42.267 -17.466   2.388  1.00  0.00     0.012 A 
HETATM   31  C   UNL     1      43.355 -18.305   2.642  1.00  0.00     0.043 A 
HETATM   32  C   UNL     1      43.921 -18.327   3.908  1.00  0.00     0.116 A 
HETATM   33  F   UNL     1      44.953 -19.144   4.157  1.00  0.00    -0.206 F 
HETATM   34  C   UNL     1      43.428 -17.517   4.922  1.00  0.00     0.043 A 
HETATM   35  C   UNL     1      42.350 -16.667   4.664  1.00  0.00     0.012 A 
ENDBRANCH   6  29
TORSDOF 6
ENDMDL
MODEL 6
REMARK VINA RESULT:      -9.0      6.424      9.348
REMARK  6 active torsions:
REMARK  status: ('A' for Active; 'I' for Inactive)
REMARK    1  A    between atoms: C_2  and  O_3 
REMARK    2  A    between atoms: C_2  and  C_4 
REMARK    3  A    between atoms: C_6  and  N_7 
REMARK       I    between atoms: N_7  and  C_8 
REMARK    4  A    between atoms: C_8  and  C_9 
REMARK    5  A    between atoms: C_14  and  C_15 
REMARK    6  A    between atoms: C_23  and  C_24 
ROOT
HETATM    1  C   UNL     1      41.284 -13.773   1.039  1.00  0.00     0.148 A 
HETATM    2  N   UNL     1      40.426 -14.386   0.188  1.00  0.00    -0.165 NA
HETATM    3  N   UNL     1      39.740 -13.361  -0.355  1.00  0.00    -0.240 N 
HETATM    4  C   UNL     1      40.048 -12.144   0.184  1.00  0.00     0.123 A 
HETATM    5  N   UNL     1      39.406 -11.016  -0.176  1.00  0.00    -0.366 N 
HETATM    6  C   UNL     1      38.413 -10.980  -1.238  1.00  0.00     0.118 C 
HETATM    7  C   UNL     1      37.782 -12.362  -1.482  1.00  0.00     0.066 C 
HETATM    8  C   UNL     1      38.740 -13.567  -1.384  1.00  0.00     0.221 C 
HETATM    9  C   UNL     1      41.066 -12.370   1.069  1.00  0.00     0.089 A 
HETATM   10  H   UNL     1      39.734 -10.105   0.144  1.00  0.00     0.161 HD
ENDROOT
BRANCH   1  11
HETATM   11  C   UNL     1      42.296 -14.506   1.821  1.00  0.00     0.276 C 
HETATM   12  N   UNL     1      41.859 -15.759   2.204  1.00  0.00    -0.322 N 
HETATM   13  H   UNL     1      40.903 -15.963   1.924  1.00  0.00     0.169 HD
HETATM   14  O   UNL     1      43.382 -13.998   2.078  1.00  0.00    -0.266 OA
BRANCH  12  15
HETATM   15  C   UNL     1      42.566 -16.738   2.925  1.00  0.00     0.035 A 
HETATM   16  C   UNL     1      42.867 -16.631   4.286  1.00  0.00     0.039 A 
HETATM   17  C   UNL     1      43.589 -17.635   4.957  1.00  0.00    -0.028 A 
HETATM   18  C   UNL     1      43.988 -18.769   4.239  1.00  0.00     0.010 A 
HETATM   19  C   UNL     1      43.695 -18.885   2.881  1.00  0.00     0.003 A 
HETATM   20  C   UNL     1      42.993 -17.872   2.226  1.00  0.00     0.029 A 
BRANCH  17  21
HETATM   21  C   UNL     1      43.891 -17.471   6.432  1.00  0.00     0.147 C 
HETATM   22  C   UNL     1      44.859 -16.321   6.682  1.00  0.00     0.044 C 
BRANCH  21  23
HETATM   23  O   UNL     1      42.689 -17.233   7.164  1.00  0.00    -0.391 OA
HETATM   24  H   UNL     1      42.104 -17.989   6.997  1.00  0.00     0.210 HD
ENDBRANCH  21  23
ENDBRANCH  17  21
ENDBRANCH  12  15
ENDBRANCH   1  11
BRANCH   8  25
HETATM   25  C   UNL     1      39.397 -13.926  -2.698  1.00  0.00     0.409 C 
HETATM   26  F   UNL     1      40.667 -13.495  -2.806  1.00  0.00    -0.169 F 
HETATM   27  F   UNL     1      39.401 -15.261  -2.916  1.00  0.00    -0.169 F 
HETATM   28  F   UNL     1      38.703 -13.379  -3.729  1.00  0.00    -0.169 F 
ENDBRANCH   8  25
BRANCH   6  29
HETATM   29  C   UNL     1      38.933 -10.263  -2.473  1.00  0.00    -0.035 A 
HETATM   30  C   UNL     1      38.087  -9.786  -3.489  1.00  0.00     0.012 A 
HETATM   31  C   UNL     1      38.608  -9.168  -4.628  1.00  0.00     0.043 A 
HETATM   32  C   UNL     1      39.981  -9.036  -4.767  1.00  0.00     0.116 A 
HETATM   33  F   UNL     1      40.482  -8.458  -5.868  1.00  0.00    -0.206 F 
HETATM   34  C   UNL     1      40.845  -9.500  -3.784  1.00  0.00     0.043 A 
HETATM   35  C   UNL     1      40.323 -10.105  -2.638  1.00  0.00     0.012 A 
ENDBRANCH   6  29
TORSDOF 6
ENDMDL
MODEL 7
REMARK VINA RESULT:      -8.9      1.786      2.253
REMARK  6 active torsions:
REMARK  status: ('A' for Active; 'I' for Inactive)
REMARK    1  A    between atoms: C_2  and  O_3 
REMARK    2  A    between atoms: C_2  and  C_4 
REMARK    3  A    between atoms: C_6  and  N_7 
REMARK       I    between atoms: N_7  and  C_8 
REMARK    4  A    between atoms: C_8  and  C_9 
REMARK    5  A    between atoms: C_14  and  C_15 
REMARK    6  A    between atoms: C_23  and  C_24 
ROOT
HETATM    1  C   UNL     1      43.282 -12.098   6.539  1.00  0.00     0.148 A 
HETATM    2  N   UNL     1      42.058 -12.674   6.611  1.00  0.00    -0.165 NA
HETATM    3  N   UNL     1      42.015 -13.453   5.511  1.00  0.00    -0.240 N 
HETATM    4  C   UNL     1      43.104 -13.319   4.698  1.00  0.00     0.123 A 
HETATM    5  N   UNL     1      43.200 -13.956   3.514  1.00  0.00    -0.366 N 
HETATM    6  C   UNL     1      42.210 -14.917   3.056  1.00  0.00     0.118 C 
HETATM    7  C   UNL     1      40.843 -14.701   3.731  1.00  0.00     0.066 C 
HETATM    8  C   UNL     1      40.883 -14.311   5.222  1.00  0.00     0.221 C 
HETATM    9  C   UNL     1      43.959 -12.471   5.348  1.00  0.00     0.089 A 
HETATM   10  H   UNL     1      44.071 -13.941   2.984  1.00  0.00     0.161 HD
ENDROOT
BRANCH   1  11
HETATM   11  C   UNL     1      43.805 -11.198   7.583  1.00  0.00     0.276 C 
HETATM   12  N   UNL     1      42.799 -10.577   8.296  1.00  0.00    -0.322 N 
HETATM   13  H   UNL     1      41.864 -10.804   7.966  1.00  0.00     0.169 HD
HETATM   14  O   UNL     1      45.013 -11.053   7.742  1.00  0.00    -0.266 OA
BRANCH  12  15
HETATM   15  C   UNL     1      42.927  -9.687   9.377  1.00  0.00     0.035 A 
HETATM   16  C   UNL     1      42.737  -8.306   9.271  1.00  0.00     0.039 A 
HETATM   17  C   UNL     1      42.891  -7.458  10.383  1.00  0.00    -0.028 A 
HETATM   18  C   UNL     1      43.219  -8.026  11.619  1.00  0.00     0.010 A 
HETATM   19  C   UNL     1      43.412  -9.402  11.737  1.00  0.00     0.003 A 
HETATM   20  C   UNL     1      43.274 -10.227  10.619  1.00  0.00     0.029 A 
BRANCH  17  21
HETATM   21  C   UNL     1      42.674  -5.969  10.214  1.00  0.00     0.147 C 
HETATM   22  C   UNL     1      41.972  -5.649   8.900  1.00  0.00     0.044 C 
BRANCH  21  23
HETATM   23  O   UNL     1      41.898  -5.451  11.293  1.00  0.00    -0.391 OA
HETATM   24  H   UNL     1      41.259  -6.141  11.536  1.00  0.00     0.210 HD
ENDBRANCH  21  23
ENDBRANCH  17  21
ENDBRANCH  12  15
ENDBRANCH   1  11
BRANCH   8  25
HETATM   25  C   UNL     1      40.865 -15.498   6.160  1.00  0.00     0.409 C 
HETATM   26  F   UNL     1      42.026 -15.695   6.810  1.00  0.00    -0.169 F 
HETATM   27  F   UNL     1      39.890 -15.393   7.092  1.00  0.00    -0.169 F 
HETATM   28  F   UNL     1      40.600 -16.634   5.464  1.00  0.00    -0.169 F 
ENDBRANCH   8  25
BRANCH   6  29
HETATM   29  C   UNL     1      42.746 -16.338   3.088  1.00  0.00    -0.035 A 
HETATM   30  C   UNL     1      42.367 -17.316   2.152  1.00  0.00     0.012 A 
HETATM   31  C   UNL     1      42.852 -18.623   2.240  1.00  0.00     0.043 A 
HETATM   32  C   UNL     1      43.708 -18.967   3.275  1.00  0.00     0.116 A 
HETATM   33  F   UNL     1      44.161 -20.225   3.370  1.00  0.00    -0.206 F 
HETATM   34  C   UNL     1      44.099 -18.026   4.218  1.00  0.00     0.043 A 
HETATM   35  C   UNL     1      43.626 -16.715   4.122  1.00  0.00     0.012 A 
ENDBRANCH   6  29
TORSDOF 6
ENDMDL
MODEL 8
REMARK VINA RESULT:      -8.8      3.887     10.088
REMARK  6 active torsions:
REMARK  status: ('A' for Active; 'I' for Inactive)
REMARK    1  A    between atoms: C_2  and  O_3 
REMARK    2  A    between atoms: C_2  and  C_4 
REMARK    3  A    between atoms: C_6  and  N_7 
REMARK       I    between atoms: N_7  and  C_8 
REMARK    4  A    between atoms: C_8  and  C_9 
REMARK    5  A    between atoms: C_14  and  C_15 
REMARK    6  A    between atoms: C_23  and  C_24 
ROOT
HETATM    1  C   UNL     1      41.730 -10.531   6.834  1.00  0.00     0.148 A 
HETATM    2  N   UNL     1      43.006 -10.237   7.181  1.00  0.00    -0.165 NA
HETATM    3  N   UNL     1      42.860  -9.316   8.154  1.00  0.00    -0.240 N 
HETATM    4  C   UNL     1      41.565  -8.938   8.366  1.00  0.00     0.123 A 
HETATM    5  N   UNL     1      41.233  -7.969   9.241  1.00  0.00    -0.366 N 
HETATM    6  C   UNL     1      42.207  -7.324  10.107  1.00  0.00     0.118 C 
HETATM    7  C   UNL     1      43.635  -7.426   9.542  1.00  0.00     0.066 C 
HETATM    8  C   UNL     1      43.997  -8.762   8.862  1.00  0.00     0.221 C 
HETATM    9  C   UNL     1      40.803  -9.727   7.549  1.00  0.00     0.089 A 
HETATM   10  H   UNL     1      40.257  -7.790   9.474  1.00  0.00     0.161 HD
ENDROOT
BRANCH   1  11
HETATM   11  C   UNL     1      41.390 -11.557   5.832  1.00  0.00     0.276 C 
HETATM   12  N   UNL     1      41.936 -12.789   6.133  1.00  0.00    -0.322 N 
HETATM   13  H   UNL     1      42.515 -12.787   6.969  1.00  0.00     0.169 HD
HETATM   14  O   UNL     1      40.702 -11.280   4.855  1.00  0.00    -0.266 OA
BRANCH  12  15
HETATM   15  C   UNL     1      41.793 -13.995   5.425  1.00  0.00     0.035 A 
HETATM   16  C   UNL     1      42.564 -14.335   4.309  1.00  0.00     0.039 A 
HETATM   17  C   UNL     1      42.372 -15.551   3.627  1.00  0.00    -0.028 A 
HETATM   18  C   UNL     1      41.399 -16.439   4.102  1.00  0.00     0.010 A 
HETATM   19  C   UNL     1      40.623 -16.110   5.213  1.00  0.00     0.003 A 
HETATM   20  C   UNL     1      40.815 -14.892   5.867  1.00  0.00     0.029 A 
BRANCH  17  21
HETATM   21  C   UNL     1      43.233 -15.870   2.424  1.00  0.00     0.147 C 
HETATM   22  C   UNL     1      43.252 -17.365   2.128  1.00  0.00     0.044 C 
BRANCH  21  23
HETATM   23  O   UNL     1      42.758 -15.175   1.271  1.00  0.00    -0.391 OA
HETATM   24  H   UNL     1      43.478 -15.187   0.620  1.00  0.00     0.210 HD
ENDBRANCH  21  23
ENDBRANCH  17  21
ENDBRANCH  12  15
ENDBRANCH   1  11
BRANCH   8  25
HETATM   25  C   UNL     1      44.581  -9.785   9.811  1.00  0.00     0.409 C 
HETATM   26  F   UNL     1      45.287  -9.247  10.822  1.00  0.00    -0.169 F 
HETATM   27  F   UNL     1      43.627 -10.573  10.357  1.00  0.00    -0.169 F 
HETATM   28  F   UNL     1      45.418 -10.617   9.140  1.00  0.00    -0.169 F 
ENDBRANCH   8  25
BRANCH   6  29
HETATM   29  C   UNL     1      42.038  -7.744  11.558  1.00  0.00    -0.035 A 
HETATM   30  C   UNL     1      40.876  -8.373  12.037  1.00  0.00     0.012 A 
HETATM   31  C   UNL     1      40.744  -8.707  13.387  1.00  0.00     0.043 A 
HETATM   32  C   UNL     1      41.766  -8.400  14.272  1.00  0.00     0.116 A 
HETATM   33  F   UNL     1      41.633  -8.704  15.570  1.00  0.00    -0.206 F 
HETATM   34  C   UNL     1      42.925  -7.775  13.830  1.00  0.00     0.043 A 
HETATM   35  C   UNL     1      43.064  -7.454  12.478  1.00  0.00     0.012 A 
ENDBRANCH   6  29
TORSDOF 6
ENDMDL
MODEL 9
REMARK VINA RESULT:      -8.7      2.241      3.191
REMARK  6 active torsions:
REMARK  status: ('A' for Active; 'I' for Inactive)
REMARK    1  A    between atoms: C_2  and  O_3 
REMARK    2  A    between atoms: C_2  and  C_4 
REMARK    3  A    between atoms: C_6  and  N_7 
REMARK       I    between atoms: N_7  and  C_8 
REMARK    4  A    between atoms: C_8  and  C_9 
REMARK    5  A    between atoms: C_14  and  C_15 
REMARK    6  A    between atoms: C_23  and  C_24 
ROOT
HETATM    1  C   UNL     1      43.607 -10.856   7.257  1.00  0.00     0.148 A 
HETATM    2  N   UNL     1      42.334 -10.927   6.797  1.00  0.00    -0.165 NA
HETATM    3  N   UNL     1      42.470 -11.526   5.597  1.00  0.00    -0.240 N 
HETATM    4  C   UNL     1      43.768 -11.742   5.233  1.00  0.00     0.123 A 
HETATM    5  N   UNL     1      44.101 -12.256   4.032  1.00  0.00    -0.366 N 
HETATM    6  C   UNL     1      43.112 -12.722   3.074  1.00  0.00     0.118 C 
HETATM    7  C   UNL     1      41.738 -12.065   3.301  1.00  0.00     0.066 C 
HETATM    8  C   UNL     1      41.325 -11.858   4.772  1.00  0.00     0.221 C 
HETATM    9  C   UNL     1      44.530 -11.348   6.297  1.00  0.00     0.089 A 
HETATM   10  H   UNL     1      45.064 -12.524   3.830  1.00  0.00     0.161 HD
ENDROOT
BRANCH   1  11
HETATM   11  C   UNL     1      43.947 -10.323   8.589  1.00  0.00     0.276 C 
HETATM   12  N   UNL     1      42.827  -9.995   9.327  1.00  0.00    -0.322 N 
HETATM   13  H   UNL     1      41.952 -10.134   8.827  1.00  0.00     0.169 HD
HETATM   14  O   UNL     1      45.117 -10.199   8.937  1.00  0.00    -0.266 OA
BRANCH  12  15
HETATM   15  C   UNL     1      42.773  -9.496  10.640  1.00  0.00     0.035 A 
HETATM   16  C   UNL     1      42.634  -8.140  10.949  1.00  0.00     0.039 A 
HETATM   17  C   UNL     1      42.598  -7.691  12.282  1.00  0.00    -0.028 A 
HETATM   18  C   UNL     1      42.681  -8.637  13.311  1.00  0.00     0.010 A 
HETATM   19  C   UNL     1      42.821  -9.993  13.015  1.00  0.00     0.003 A 
HETATM   20  C   UNL     1      42.873 -10.419  11.686  1.00  0.00     0.029 A 
BRANCH  17  21
HETATM   21  C   UNL     1      42.448  -6.211  12.562  1.00  0.00     0.147 C 
HETATM   22  C   UNL     1      41.017  -5.739  12.333  1.00  0.00     0.044 C 
BRANCH  21  23
HETATM   23  O   UNL     1      42.825  -5.915  13.906  1.00  0.00    -0.391 OA
HETATM   24  H   UNL     1      43.388  -5.125  13.873  1.00  0.00     0.210 HD
ENDBRANCH  21  23
ENDBRANCH  17  21
ENDBRANCH  12  15
ENDBRANCH   1  11
BRANCH   8  25
HETATM   25  C   UNL     1      40.570 -13.030   5.359  1.00  0.00     0.409 C 
HETATM   26  F   UNL     1      41.296 -13.770   6.217  1.00  0.00    -0.169 F 
HETATM   27  F   UNL     1      39.451 -12.637   6.009  1.00  0.00    -0.169 F 
HETATM   28  F   UNL     1      40.157 -13.860   4.367  1.00  0.00    -0.169 F 
ENDBRANCH   8  25
BRANCH   6  29
HETATM   29  C   UNL     1      43.109 -14.236   2.956  1.00  0.00    -0.035 A 
HETATM   30  C   UNL     1      43.200 -15.087   4.072  1.00  0.00     0.012 A 
HETATM   31  C   UNL     1      43.235 -16.475   3.918  1.00  0.00     0.043 A 
HETATM   32  C   UNL     1      43.196 -17.023   2.645  1.00  0.00     0.116 A 
HETATM   33  F   UNL     1      43.247 -18.354   2.495  1.00  0.00    -0.206 F 
HETATM   34  C   UNL     1      43.111 -16.211   1.522  1.00  0.00     0.043 A 
HETATM   35  C   UNL     1      43.061 -14.823   1.677  1.00  0.00     0.012 A 
ENDBRANCH   6  29
TORSDOF 6
ENDMDL
MODEL 10
REMARK VINA RESULT:      -8.7      6.642     10.204
REMARK  6 active torsions:
REMARK  status: ('A' for Active; 'I' for Inactive)
REMARK    1  A    between atoms: C_2  and  O_3 
REMARK    2  A    between atoms: C_2  and  C_4 
REMARK    3  A    between atoms: C_6  and  N_7 
REMARK       I    between atoms: N_7  and  C_8 
REMARK    4  A    between atoms: C_8  and  C_9 
REMARK    5  A    between atoms: C_14  and  C_15 
REMARK    6  A    between atoms: C_23  and  C_24 
ROOT
HETATM    1  C   UNL     1      40.620 -14.314   0.379  1.00  0.00     0.148 A 
HETATM    2  N   UNL     1      41.283 -13.134   0.309  1.00  0.00    -0.165 NA
HETATM    3  N   UNL     1      40.708 -12.516  -0.742  1.00  0.00    -0.240 N 
HETATM    4  C   UNL     1      39.791 -13.284  -1.400  1.00  0.00     0.123 A 
HETATM    5  N   UNL     1      39.175 -12.865  -2.522  1.00  0.00    -0.366 N 
HETATM    6  C   UNL     1      39.350 -11.526  -3.063  1.00  0.00     0.118 C 
HETATM    7  C   UNL     1      40.672 -10.888  -2.599  1.00  0.00     0.066 C 
HETATM    8  C   UNL     1      41.082 -11.173  -1.140  1.00  0.00     0.221 C 
HETATM    9  C   UNL     1      39.687 -14.445  -0.684  1.00  0.00     0.089 A 
HETATM   10  H   UNL     1      38.407 -13.400  -2.926  1.00  0.00     0.161 HD
ENDROOT
BRANCH   1  11
HETATM   11  C   UNL     1      40.869 -15.310   1.436  1.00  0.00     0.276 C 
HETATM   12  N   UNL     1      42.207 -15.638   1.547  1.00  0.00    -0.322 N 
HETATM   13  H   UNL     1      42.799 -15.174   0.862  1.00  0.00     0.169 HD
HETATM   14  O   UNL     1      39.946 -15.768   2.100  1.00  0.00    -0.266 OA
BRANCH  12  15
HETATM   15  C   UNL     1      42.808 -16.520   2.461  1.00  0.00     0.035 A 
HETATM   16  C   UNL     1      43.091 -17.858   2.175  1.00  0.00     0.039 A 
HETATM   17  C   UNL     1      43.683 -18.703   3.132  1.00  0.00    -0.028 A 
HETATM   18  C   UNL     1      44.011 -18.172   4.384  1.00  0.00     0.010 A 
HETATM   19  C   UNL     1      43.733 -16.838   4.682  1.00  0.00     0.003 A 
HETATM   20  C   UNL     1      43.128 -16.018   3.727  1.00  0.00     0.029 A 
BRANCH  17  21
HETATM   21  C   UNL     1      43.967 -20.146   2.771  1.00  0.00     0.147 C 
HETATM   22  C   UNL     1      43.844 -21.062   3.983  1.00  0.00     0.044 C 
BRANCH  21  23
HETATM   23  O   UNL     1      43.069 -20.595   1.758  1.00  0.00    -0.391 OA
HETATM   24  H   UNL     1      43.145 -19.970   1.018  1.00  0.00     0.210 HD
ENDBRANCH  21  23
ENDBRANCH  17  21
ENDBRANCH  12  15
ENDBRANCH   1  11
BRANCH   8  25
HETATM   25  C   UNL     1      40.549 -10.159  -0.152  1.00  0.00     0.409 C 
HETATM   26  F   UNL     1      39.472 -10.583   0.535  1.00  0.00    -0.169 F 
HETATM   27  F   UNL     1      41.486  -9.789   0.751  1.00  0.00    -0.169 F 
HETATM   28  F   UNL     1      40.184  -9.024  -0.802  1.00  0.00    -0.169 F 
ENDBRANCH   8  25
BRANCH   6  29
HETATM   29  C   UNL     1      38.105 -10.676  -2.879  1.00  0.00    -0.035 A 
HETATM   30  C   UNL     1      37.183 -10.891  -1.840  1.00  0.00     0.012 A 
HETATM   31  C   UNL     1      36.028 -10.112  -1.730  1.00  0.00     0.043 A 
HETATM   32  C   UNL     1      35.778  -9.122  -2.668  1.00  0.00     0.116 A 
HETATM   33  F   UNL     1      34.663  -8.386  -2.573  1.00  0.00    -0.206 F 
HETATM   34  C   UNL     1      36.667  -8.887  -3.708  1.00  0.00     0.043 A 
HETATM   35  C   UNL     1      37.829  -9.656  -3.810  1.00  0.00     0.012 A 
ENDBRANCH   6  29
TORSDOF 6
ENDMDL
