MODEL 1
REMARK VINA RESULT:      -8.4      0.000      0.000
REMARK  4 active torsions:
REMARK  status: ('A' for Active; 'I' for Inactive)
REMARK    1  A    between atoms: C_6  and  C_7 
REMARK    2  A    between atoms: C_8  and  C_9 
REMARK       I    between atoms: C_9  and  N_10 
REMARK    3  A    between atoms: N_10  and  C_11 
REMARK    4  A    between atoms: C_18  and  C_19 
REMARK       I    between atoms: C_19  and  N_20 
ROOT
HETATM    1  C   UNL     1      40.728 -15.226   1.494  1.00  0.00     0.035 A 
HETATM    2  C   UNL     1      40.661 -14.815   0.155  1.00  0.00     0.046 A 
HETATM    3  C   UNL     1      40.057 -13.578  -0.166  1.00  0.00     0.030 A 
HETATM    4  C   UNL     1      39.538 -12.800   0.860  1.00  0.00     0.063 A 
HETATM    5  N   UNL     1      39.029 -11.688   0.251  1.00  0.00    -0.277 N 
HETATM    6  H   UNL     1      38.569 -10.902   0.694  1.00  0.00     0.189 HD
HETATM    7  N   UNL     1      39.180 -11.666  -1.084  1.00  0.00    -0.168 NA
HETATM    8  C   UNL     1      39.816 -12.828  -1.357  1.00  0.00     0.156 A 
HETATM    9  C   UNL     1      39.585 -13.178   2.203  1.00  0.00     0.034 A 
HETATM   10  C   UNL     1      40.196 -14.404   2.496  1.00  0.00     0.032 A 
ENDROOT
BRANCH   1  11
HETATM   11  N   UNL     1      41.339 -16.427   1.914  1.00  0.00    -0.327 N 
HETATM   12  C   UNL     1      42.686 -16.712   1.961  1.00  0.00     0.227 C 
HETATM   13  O   UNL     1      43.595 -16.005   1.549  1.00  0.00    -0.273 OA
HETATM   14  H   UNL     1      40.710 -17.181   2.145  1.00  0.00     0.169 HD
BRANCH  12  15
HETATM   15  C   UNL     1      43.065 -18.022   2.569  1.00  0.00     0.087 A 
HETATM   16  C   UNL     1      43.136 -18.220   4.073  1.00  0.00     0.032 A 
HETATM   17  C   UNL     1      44.376 -18.365   3.218  1.00  0.00     0.025 A 
BRANCH  16  18
HETATM   18  C   UNL     1      43.042 -17.080   5.059  1.00  0.00    -0.051 A 
HETATM   19  C   UNL     1      41.813 -16.458   5.336  1.00  0.00     0.031 A 
HETATM   20  C   UNL     1      41.727 -15.389   6.230  1.00  0.00     0.034 A 
HETATM   21  C   UNL     1      42.867 -14.907   6.865  1.00  0.00     0.024 A 
HETATM   22 CL   UNL     1      40.199 -14.663   6.547  1.00  0.00    -0.084 Cl
HETATM   23  C   UNL     1      44.099 -15.497   6.596  1.00  0.00     0.002 A 
HETATM   24  C   UNL     1      44.183 -16.564   5.698  1.00  0.00     0.007 A 
ENDBRANCH  16  18
ENDBRANCH  12  15
ENDBRANCH   1  11
BRANCH   8  25
HETATM   25  C   UNL     1      40.184 -13.186  -2.735  1.00  0.00     0.270 C 
HETATM   26  N   UNL     1      41.476 -12.880  -3.064  1.00  0.00    -0.365 N 
HETATM   27  H   UNL     1      42.069 -12.455  -2.362  1.00  0.00     0.159 HD
HETATM   28  H   UNL     1      41.821 -13.101  -3.985  1.00  0.00     0.159 HD
HETATM   29  O   UNL     1      39.432 -13.717  -3.544  1.00  0.00    -0.266 OA
ENDBRANCH   8  25
TORSDOF 4
ENDMDL
MODEL 2
REMARK VINA RESULT:      -8.2      5.650      8.357
REMARK  4 active torsions:
REMARK  status: ('A' for Active; 'I' for Inactive)
REMARK    1  A    between atoms: C_6  and  C_7 
REMARK    2  A    between atoms: C_8  and  C_9 
REMARK       I    between atoms: C_9  and  N_10 
REMARK    3  A    between atoms: N_10  and  C_11 
REMARK    4  A    between atoms: C_18  and  C_19 
REMARK       I    between atoms: C_19  and  N_20 
ROOT
HETATM    1  C   UNL     1      43.744 -12.466   7.094  1.00  0.00     0.035 A 
HETATM    2  C   UNL     1      43.702 -11.483   8.093  1.00  0.00     0.046 A 
HETATM    3  C   UNL     1      44.707 -10.491   8.138  1.00  0.00     0.030 A 
HETATM    4  C   UNL     1      45.721 -10.521   7.190  1.00  0.00     0.063 A 
HETATM    5  N   UNL     1      46.527  -9.458   7.487  1.00  0.00    -0.277 N 
HETATM    6  H   UNL     1      47.370  -9.173   7.002  1.00  0.00     0.189 HD
HETATM    7  N   UNL     1      46.123  -8.729   8.540  1.00  0.00    -0.168 NA
HETATM    8  C   UNL     1      44.997  -9.354   8.953  1.00  0.00     0.156 A 
HETATM    9  C   UNL     1      45.796 -11.486   6.184  1.00  0.00     0.034 A 
HETATM   10  C   UNL     1      44.784 -12.453   6.155  1.00  0.00     0.032 A 
ENDROOT
BRANCH   1  11
HETATM   11  N   UNL     1      42.770 -13.477   6.950  1.00  0.00    -0.327 N 
HETATM   12  C   UNL     1      42.971 -14.840   6.941  1.00  0.00     0.227 C 
HETATM   13  O   UNL     1      44.048 -15.419   6.957  1.00  0.00    -0.273 OA
HETATM   14  H   UNL     1      41.830 -13.159   6.769  1.00  0.00     0.169 HD
BRANCH  12  15
HETATM   15  C   UNL     1      41.743 -15.690   6.898  1.00  0.00     0.087 A 
HETATM   16  C   UNL     1      41.297 -16.394   5.629  1.00  0.00     0.032 A 
HETATM   17  C   UNL     1      40.427 -15.334   6.266  1.00  0.00     0.025 A 
BRANCH  16  18
HETATM   18  C   UNL     1      41.920 -16.131   4.278  1.00  0.00    -0.051 A 
HETATM   19  C   UNL     1      41.579 -14.991   3.530  1.00  0.00     0.031 A 
HETATM   20  C   UNL     1      42.136 -14.757   2.272  1.00  0.00     0.034 A 
HETATM   21  C   UNL     1      43.042 -15.658   1.722  1.00  0.00     0.024 A 
HETATM   22 CL   UNL     1      41.696 -13.342   1.395  1.00  0.00    -0.084 Cl
HETATM   23  C   UNL     1      43.385 -16.802   2.437  1.00  0.00     0.002 A 
HETATM   24  C   UNL     1      42.823 -17.037   3.695  1.00  0.00     0.007 A 
ENDBRANCH  16  18
ENDBRANCH  12  15
ENDBRANCH   1  11
BRANCH   8  25
HETATM   25  C   UNL     1      44.227  -8.851  10.100  1.00  0.00     0.270 C 
HETATM   26  N   UNL     1      43.453  -7.760   9.816  1.00  0.00    -0.365 N 
HETATM   27  H   UNL     1      43.456  -7.395   8.871  1.00  0.00     0.159 HD
HETATM   28  H   UNL     1      42.880  -7.353  10.538  1.00  0.00     0.159 HD
HETATM   29  O   UNL     1      44.245  -9.340  11.224  1.00  0.00    -0.266 OA
ENDBRANCH   8  25
TORSDOF 4
ENDMDL
MODEL 3
REMARK VINA RESULT:      -8.2      2.801      7.053
REMARK  4 active torsions:
REMARK  status: ('A' for Active; 'I' for Inactive)
REMARK    1  A    between atoms: C_6  and  C_7 
REMARK    2  A    between atoms: C_8  and  C_9 
REMARK       I    between atoms: C_9  and  N_10 
REMARK    3  A    between atoms: N_10  and  C_11 
REMARK    4  A    between atoms: C_18  and  C_19 
REMARK       I    between atoms: C_19  and  N_20 
ROOT
HETATM    1  C   UNL     1      42.618 -15.865   2.084  1.00  0.00     0.035 A 
HETATM    2  C   UNL     1      42.913 -17.236   2.103  1.00  0.00     0.046 A 
HETATM    3  C   UNL     1      43.427 -17.822   3.282  1.00  0.00     0.030 A 
HETATM    4  C   UNL     1      43.634 -17.019   4.395  1.00  0.00     0.063 A 
HETATM    5  N   UNL     1      44.130 -17.852   5.358  1.00  0.00    -0.277 N 
HETATM    6  H   UNL     1      44.397 -17.607   6.304  1.00  0.00     0.189 HD
HETATM    7  N   UNL     1      44.255 -19.134   4.974  1.00  0.00    -0.168 NA
HETATM    8  C   UNL     1      43.822 -19.132   3.693  1.00  0.00     0.156 A 
HETATM    9  C   UNL     1      43.354 -15.651   4.411  1.00  0.00     0.034 A 
HETATM   10  C   UNL     1      42.838 -15.095   3.234  1.00  0.00     0.032 A 
ENDROOT
BRANCH   1  11
HETATM   11  N   UNL     1      42.073 -15.197   0.966  1.00  0.00    -0.327 N 
HETATM   12  C   UNL     1      40.742 -15.062   0.637  1.00  0.00     0.227 C 
HETATM   13  O   UNL     1      39.794 -15.586   1.204  1.00  0.00    -0.273 OA
HETATM   14  H   UNL     1      42.741 -14.834   0.304  1.00  0.00     0.169 HD
BRANCH  12  15
HETATM   15  C   UNL     1      40.436 -14.194  -0.539  1.00  0.00     0.087 A 
HETATM   16  C   UNL     1      40.226 -12.697  -0.400  1.00  0.00     0.032 A 
HETATM   17  C   UNL     1      39.105 -13.589  -0.886  1.00  0.00     0.025 A 
BRANCH  16  18
HETATM   18  C   UNL     1      40.097 -12.004   0.936  1.00  0.00    -0.051 A 
HETATM   19  C   UNL     1      41.234 -11.644   1.680  1.00  0.00     0.031 A 
HETATM   20  C   UNL     1      41.117 -11.024   2.925  1.00  0.00     0.034 A 
HETATM   21  C   UNL     1      39.864 -10.753   3.465  1.00  0.00     0.024 A 
HETATM   22 CL   UNL     1      42.537 -10.593   3.799  1.00  0.00    -0.084 Cl
HETATM   23  C   UNL     1      38.723 -11.113   2.753  1.00  0.00     0.002 A 
HETATM   24  C   UNL     1      38.841 -11.737   1.509  1.00  0.00     0.007 A 
ENDBRANCH  16  18
ENDBRANCH  12  15
ENDBRANCH   1  11
BRANCH   8  25
HETATM   25  C   UNL     1      43.789 -20.370   2.901  1.00  0.00     0.270 C 
HETATM   26  N   UNL     1      44.049 -21.502   3.625  1.00  0.00    -0.365 N 
HETATM   27  H   UNL     1      44.228 -21.412   4.618  1.00  0.00     0.159 HD
HETATM   28  H   UNL     1      44.036 -22.400   3.168  1.00  0.00     0.159 HD
HETATM   29  O   UNL     1      43.549 -20.427   1.700  1.00  0.00    -0.266 OA
ENDBRANCH   8  25
TORSDOF 4
ENDMDL
MODEL 4
REMARK VINA RESULT:      -8.1      2.995      7.087
REMARK  4 active torsions:
REMARK  status: ('A' for Active; 'I' for Inactive)
REMARK    1  A    between atoms: C_6  and  C_7 
REMARK    2  A    between atoms: C_8  and  C_9 
REMARK       I    between atoms: C_9  and  N_10 
REMARK    3  A    between atoms: N_10  and  C_11 
REMARK    4  A    between atoms: C_18  and  C_19 
REMARK       I    between atoms: C_19  and  N_20 
ROOT
HETATM    1  C   UNL     1      42.576 -16.215   2.415  1.00  0.00     0.035 A 
HETATM    2  C   UNL     1      42.315 -16.035   3.781  1.00  0.00     0.046 A 
HETATM    3  C   UNL     1      42.812 -16.972   4.715  1.00  0.00     0.030 A 
HETATM    4  C   UNL     1      43.545 -18.056   4.251  1.00  0.00     0.063 A 
HETATM    5  N   UNL     1      43.881 -18.771   5.366  1.00  0.00    -0.277 N 
HETATM    6  H   UNL     1      44.417 -19.630   5.406  1.00  0.00     0.189 HD
HETATM    7  N   UNL     1      43.440 -18.243   6.520  1.00  0.00    -0.168 NA
HETATM    8  C   UNL     1      42.778 -17.129   6.134  1.00  0.00     0.156 A 
HETATM    9  C   UNL     1      43.822 -18.268   2.899  1.00  0.00     0.034 A 
HETATM   10  C   UNL     1      43.326 -17.321   1.994  1.00  0.00     0.032 A 
ENDROOT
BRANCH   1  11
HETATM   11  N   UNL     1      42.148 -15.318   1.412  1.00  0.00    -0.327 N 
HETATM   12  C   UNL     1      40.863 -15.115   0.961  1.00  0.00     0.227 C 
HETATM   13  O   UNL     1      39.869 -15.751   1.281  1.00  0.00    -0.273 OA
HETATM   14  H   UNL     1      42.879 -14.818   0.930  1.00  0.00     0.169 HD
BRANCH  12  15
HETATM   15  C   UNL     1      40.674 -14.010  -0.026  1.00  0.00     0.087 A 
HETATM   16  C   UNL     1      40.704 -12.549   0.387  1.00  0.00     0.032 A 
HETATM   17  C   UNL     1      39.448 -13.158  -0.197  1.00  0.00     0.025 A 
BRANCH  16  18
HETATM   18  C   UNL     1      40.711 -12.101   1.829  1.00  0.00    -0.051 A 
HETATM   19  C   UNL     1      41.916 -11.829   2.501  1.00  0.00     0.031 A 
HETATM   20  C   UNL     1      41.926 -11.437   3.840  1.00  0.00     0.034 A 
HETATM   21  C   UNL     1      40.736 -11.313   4.549  1.00  0.00     0.024 A 
HETATM   22 CL   UNL     1      43.425 -11.106   4.619  1.00  0.00    -0.084 Cl
HETATM   23  C   UNL     1      39.530 -11.590   3.911  1.00  0.00     0.002 A 
HETATM   24  C   UNL     1      39.521 -11.987   2.570  1.00  0.00     0.007 A 
ENDBRANCH  16  18
ENDBRANCH  12  15
ENDBRANCH   1  11
BRANCH   8  25
HETATM   25  C   UNL     1      42.143 -16.243   7.121  1.00  0.00     0.270 C 
HETATM   26  N   UNL     1      42.986 -15.818   8.112  1.00  0.00    -0.365 N 
HETATM   27  H   UNL     1      43.951 -16.122   8.092  1.00  0.00     0.159 HD
HETATM   28  H   UNL     1      42.641 -15.197   8.827  1.00  0.00     0.159 HD
HETATM   29  O   UNL     1      40.970 -15.890   7.092  1.00  0.00    -0.266 OA
ENDBRANCH   8  25
TORSDOF 4
ENDMDL
MODEL 5
REMARK VINA RESULT:      -7.8      4.878      7.185
REMARK  4 active torsions:
REMARK  status: ('A' for Active; 'I' for Inactive)
REMARK    1  A    between atoms: C_6  and  C_7 
REMARK    2  A    between atoms: C_8  and  C_9 
REMARK       I    between atoms: C_9  and  N_10 
REMARK    3  A    between atoms: N_10  and  C_11 
REMARK    4  A    between atoms: C_18  and  C_19 
REMARK       I    between atoms: C_19  and  N_20 
ROOT
HETATM    1  C   UNL     1      42.248 -12.468   5.776  1.00  0.00     0.035 A 
HETATM    2  C   UNL     1      42.095 -11.180   6.308  1.00  0.00     0.046 A 
HETATM    3  C   UNL     1      43.141 -10.611   7.070  1.00  0.00     0.030 A 
HETATM    4  C   UNL     1      44.296 -11.352   7.280  1.00  0.00     0.063 A 
HETATM    5  N   UNL     1      45.106 -10.554   8.039  1.00  0.00    -0.277 N 
HETATM    6  H   UNL     1      46.033 -10.772   8.384  1.00  0.00     0.189 HD
HETATM    7  N   UNL     1      44.585  -9.352   8.335  1.00  0.00    -0.168 NA
HETATM    8  C   UNL     1      43.369  -9.371   7.741  1.00  0.00     0.156 A 
HETATM    9  C   UNL     1      44.482 -12.637   6.768  1.00  0.00     0.034 A 
HETATM   10  C   UNL     1      43.435 -13.175   6.009  1.00  0.00     0.032 A 
ENDROOT
BRANCH   1  11
HETATM   11  N   UNL     1      41.275 -13.106   4.977  1.00  0.00    -0.327 N 
HETATM   12  C   UNL     1      41.314 -13.316   3.616  1.00  0.00     0.227 C 
HETATM   13  O   UNL     1      42.158 -12.896   2.837  1.00  0.00    -0.273 OA
HETATM   14  H   UNL     1      40.428 -13.380   5.452  1.00  0.00     0.169 HD
BRANCH  12  15
HETATM   15  C   UNL     1      40.203 -14.132   3.041  1.00  0.00     0.087 A 
HETATM   16  C   UNL     1      40.249 -15.650   3.019  1.00  0.00     0.032 A 
HETATM   17  C   UNL     1      40.214 -14.863   1.728  1.00  0.00     0.025 A 
BRANCH  16  18
HETATM   18  C   UNL     1      41.485 -16.442   3.374  1.00  0.00    -0.051 A 
HETATM   19  C   UNL     1      41.874 -16.623   4.713  1.00  0.00     0.031 A 
HETATM   20  C   UNL     1      43.028 -17.335   5.041  1.00  0.00     0.034 A 
HETATM   21  C   UNL     1      43.830 -17.879   4.044  1.00  0.00     0.024 A 
HETATM   22 CL   UNL     1      43.461 -17.539   6.695  1.00  0.00    -0.084 Cl
HETATM   23  C   UNL     1      43.474 -17.702   2.710  1.00  0.00     0.002 A 
HETATM   24  C   UNL     1      42.320 -16.985   2.382  1.00  0.00     0.007 A 
ENDBRANCH  16  18
ENDBRANCH  12  15
ENDBRANCH   1  11
BRANCH   8  25
HETATM   25  C   UNL     1      42.468  -8.213   7.821  1.00  0.00     0.270 C 
HETATM   26  N   UNL     1      41.337  -8.437   8.557  1.00  0.00    -0.365 N 
HETATM   27  H   UNL     1      41.210  -9.344   8.989  1.00  0.00     0.159 HD
HETATM   28  H   UNL     1      40.665  -7.695   8.677  1.00  0.00     0.159 HD
HETATM   29  O   UNL     1      42.675  -7.127   7.292  1.00  0.00    -0.266 OA
ENDBRANCH   8  25
TORSDOF 4
ENDMDL
MODEL 6
REMARK VINA RESULT:      -7.7      3.395      7.890
REMARK  4 active torsions:
REMARK  status: ('A' for Active; 'I' for Inactive)
REMARK    1  A    between atoms: C_6  and  C_7 
REMARK    2  A    between atoms: C_8  and  C_9 
REMARK       I    between atoms: C_9  and  N_10 
REMARK    3  A    between atoms: N_10  and  C_11 
REMARK    4  A    between atoms: C_18  and  C_19 
REMARK       I    between atoms: C_19  and  N_20 
ROOT
HETATM    1  C   UNL     1      41.007 -15.598   3.245  1.00  0.00     0.035 A 
HETATM    2  C   UNL     1      41.831 -15.861   4.348  1.00  0.00     0.046 A 
HETATM    3  C   UNL     1      42.822 -16.864   4.256  1.00  0.00     0.030 A 
HETATM    4  C   UNL     1      42.949 -17.572   3.069  1.00  0.00     0.063 A 
HETATM    5  N   UNL     1      43.969 -18.457   3.282  1.00  0.00    -0.277 N 
HETATM    6  H   UNL     1      44.337 -19.138   2.629  1.00  0.00     0.189 HD
HETATM    7  N   UNL     1      44.527 -18.381   4.502  1.00  0.00    -0.168 NA
HETATM    8  C   UNL     1      43.829 -17.398   5.116  1.00  0.00     0.156 A 
HETATM    9  C   UNL     1      42.145 -17.340   1.952  1.00  0.00     0.034 A 
HETATM   10  C   UNL     1      41.176 -16.335   2.065  1.00  0.00     0.032 A 
ENDROOT
BRANCH   1  11
HETATM   11  N   UNL     1      40.012 -14.597   3.231  1.00  0.00    -0.327 N 
HETATM   12  C   UNL     1      40.197 -13.232   3.183  1.00  0.00     0.227 C 
HETATM   13  O   UNL     1      41.264 -12.638   3.245  1.00  0.00    -0.273 OA
HETATM   14  H   UNL     1      39.062 -14.920   3.331  1.00  0.00     0.169 HD
BRANCH  12  15
HETATM   15  C   UNL     1      38.963 -12.402   3.050  1.00  0.00     0.087 A 
HETATM   16  C   UNL     1      38.533 -11.805   1.722  1.00  0.00     0.032 A 
HETATM   17  C   UNL     1      38.898 -10.909   2.885  1.00  0.00     0.025 A 
BRANCH  16  18
HETATM   18  C   UNL     1      39.409 -11.819   0.491  1.00  0.00    -0.051 A 
HETATM   19  C   UNL     1      39.347 -12.876  -0.434  1.00  0.00     0.031 A 
HETATM   20  C   UNL     1      40.171 -12.902  -1.560  1.00  0.00     0.034 A 
HETATM   21  C   UNL     1      41.086 -11.880  -1.789  1.00  0.00     0.024 A 
HETATM   22 CL   UNL     1      40.055 -14.212  -2.670  1.00  0.00    -0.084 Cl
HETATM   23  C   UNL     1      41.177 -10.829  -0.881  1.00  0.00     0.002 A 
HETATM   24  C   UNL     1      40.353 -10.806   0.249  1.00  0.00     0.007 A 
ENDBRANCH  16  18
ENDBRANCH  12  15
ENDBRANCH   1  11
BRANCH   8  25
HETATM   25  C   UNL     1      44.144 -16.991   6.493  1.00  0.00     0.270 C 
HETATM   26  N   UNL     1      43.363 -17.590   7.444  1.00  0.00    -0.365 N 
HETATM   27  H   UNL     1      42.658 -18.253   7.145  1.00  0.00     0.159 HD
HETATM   28  H   UNL     1      43.514 -17.380   8.418  1.00  0.00     0.159 HD
HETATM   29  O   UNL     1      45.021 -16.193   6.804  1.00  0.00    -0.266 OA
ENDBRANCH   8  25
TORSDOF 4
ENDMDL
MODEL 7
REMARK VINA RESULT:      -7.7      4.187      6.335
REMARK  4 active torsions:
REMARK  status: ('A' for Active; 'I' for Inactive)
REMARK    1  A    between atoms: C_6  and  C_7 
REMARK    2  A    between atoms: C_8  and  C_9 
REMARK       I    between atoms: C_9  and  N_10 
REMARK    3  A    between atoms: N_10  and  C_11 
REMARK    4  A    between atoms: C_18  and  C_19 
REMARK       I    between atoms: C_19  and  N_20 
ROOT
HETATM    1  C   UNL     1      40.595 -11.756   4.546  1.00  0.00     0.035 A 
HETATM    2  C   UNL     1      41.877 -11.914   5.092  1.00  0.00     0.046 A 
HETATM    3  C   UNL     1      42.376 -10.946   5.992  1.00  0.00     0.030 A 
HETATM    4  C   UNL     1      41.581  -9.853   6.309  1.00  0.00     0.063 A 
HETATM    5  N   UNL     1      42.322  -9.107   7.183  1.00  0.00    -0.277 N 
HETATM    6  H   UNL     1      42.056  -8.234   7.623  1.00  0.00     0.189 HD
HETATM    7  N   UNL     1      43.528  -9.622   7.473  1.00  0.00    -0.168 NA
HETATM    8  C   UNL     1      43.576 -10.762   6.745  1.00  0.00     0.156 A 
HETATM    9  C   UNL     1      40.302  -9.662   5.784  1.00  0.00     0.034 A 
HETATM   10  C   UNL     1      39.827 -10.639   4.900  1.00  0.00     0.032 A 
ENDROOT
BRANCH   1  11
HETATM   11  N   UNL     1      39.999 -12.684   3.665  1.00  0.00    -0.327 N 
HETATM   12  C   UNL     1      40.504 -13.148   2.470  1.00  0.00     0.227 C 
HETATM   13  O   UNL     1      41.519 -12.762   1.908  1.00  0.00    -0.273 OA
HETATM   14  H   UNL     1      39.071 -12.989   3.911  1.00  0.00     0.169 HD
BRANCH  12  15
HETATM   15  C   UNL     1      39.721 -14.227   1.796  1.00  0.00     0.087 A 
HETATM   16  C   UNL     1      39.947 -15.696   2.103  1.00  0.00     0.032 A 
HETATM   17  C   UNL     1      40.211 -15.151   0.717  1.00  0.00     0.025 A 
BRANCH  16  18
HETATM   18  C   UNL     1      41.103 -16.195   2.937  1.00  0.00    -0.051 A 
HETATM   19  C   UNL     1      41.071 -16.123   4.341  1.00  0.00     0.031 A 
HETATM   20  C   UNL     1      42.147 -16.563   5.113  1.00  0.00     0.034 A 
HETATM   21  C   UNL     1      43.288 -17.078   4.507  1.00  0.00     0.024 A 
HETATM   22 CL   UNL     1      42.060 -16.464   6.830  1.00  0.00    -0.084 Cl
HETATM   23  C   UNL     1      43.350 -17.147   3.117  1.00  0.00     0.002 A 
HETATM   24  C   UNL     1      42.273 -16.702   2.345  1.00  0.00     0.007 A 
ENDBRANCH  16  18
ENDBRANCH  12  15
ENDBRANCH   1  11
BRANCH   8  25
HETATM   25  C   UNL     1      44.751 -11.643   6.793  1.00  0.00     0.270 C 
HETATM   26  N   UNL     1      45.928 -11.021   6.474  1.00  0.00    -0.365 N 
HETATM   27  H   UNL     1      45.909 -10.035   6.247  1.00  0.00     0.159 HD
HETATM   28  H   UNL     1      46.789 -11.545   6.491  1.00  0.00     0.159 HD
HETATM   29  O   UNL     1      44.723 -12.832   7.090  1.00  0.00    -0.266 OA
ENDBRANCH   8  25
TORSDOF 4
ENDMDL
MODEL 8
REMARK VINA RESULT:      -7.6      3.562      5.173
REMARK  4 active torsions:
REMARK  status: ('A' for Active; 'I' for Inactive)
REMARK    1  A    between atoms: C_6  and  C_7 
REMARK    2  A    between atoms: C_8  and  C_9 
REMARK       I    between atoms: C_9  and  N_10 
REMARK    3  A    between atoms: N_10  and  C_11 
REMARK    4  A    between atoms: C_18  and  C_19 
REMARK       I    between atoms: C_19  and  N_20 
ROOT
HETATM    1  C   UNL     1      39.560 -12.456   2.375  1.00  0.00     0.035 A 
HETATM    2  C   UNL     1      39.589 -12.100   3.730  1.00  0.00     0.046 A 
HETATM    3  C   UNL     1      38.944 -10.916   4.155  1.00  0.00     0.030 A 
HETATM    4  C   UNL     1      38.300 -10.129   3.210  1.00  0.00     0.063 A 
HETATM    5  N   UNL     1      37.783  -9.074   3.908  1.00  0.00    -0.277 N 
HETATM    6  H   UNL     1      37.249  -8.296   3.539  1.00  0.00     0.189 HD
HETATM    7  N   UNL     1      38.024  -9.108   5.229  1.00  0.00    -0.168 NA
HETATM    8  C   UNL     1      38.740 -10.243   5.398  1.00  0.00     0.156 A 
HETATM    9  C   UNL     1      38.253 -10.451   1.852  1.00  0.00     0.034 A 
HETATM   10  C   UNL     1      38.892 -11.633   1.458  1.00  0.00     0.032 A 
ENDROOT
BRANCH   1  11
HETATM   11  N   UNL     1      40.148 -13.633   1.862  1.00  0.00    -0.327 N 
HETATM   12  C   UNL     1      41.487 -13.954   1.826  1.00  0.00     0.227 C 
HETATM   13  O   UNL     1      42.419 -13.230   2.143  1.00  0.00    -0.273 OA
HETATM   14  H   UNL     1      39.517 -14.280   1.414  1.00  0.00     0.169 HD
BRANCH  12  15
HETATM   15  C   UNL     1      41.825 -15.325   1.339  1.00  0.00     0.087 A 
HETATM   16  C   UNL     1      41.939 -16.508   2.284  1.00  0.00     0.032 A 
HETATM   17  C   UNL     1      43.141 -16.034   1.497  1.00  0.00     0.025 A 
BRANCH  16  18
HETATM   18  C   UNL     1      41.932 -16.365   3.788  1.00  0.00    -0.051 A 
HETATM   19  C   UNL     1      43.125 -16.428   4.530  1.00  0.00     0.031 A 
HETATM   20  C   UNL     1      43.119 -16.318   5.921  1.00  0.00     0.034 A 
HETATM   21  C   UNL     1      41.923 -16.151   6.611  1.00  0.00     0.024 A 
HETATM   22 CL   UNL     1      44.604 -16.392   6.788  1.00  0.00    -0.084 Cl
HETATM   23  C   UNL     1      40.726 -16.100   5.901  1.00  0.00     0.002 A 
HETATM   24  C   UNL     1      40.734 -16.213   4.507  1.00  0.00     0.007 A 
ENDBRANCH  16  18
ENDBRANCH  12  15
ENDBRANCH   1  11
BRANCH   8  25
HETATM   25  C   UNL     1      39.201 -10.659   6.731  1.00  0.00     0.270 C 
HETATM   26  N   UNL     1      39.905  -9.697   7.402  1.00  0.00    -0.365 N 
HETATM   27  H   UNL     1      40.046  -8.799   6.957  1.00  0.00     0.159 HD
HETATM   28  H   UNL     1      40.251  -9.889   8.329  1.00  0.00     0.159 HD
HETATM   29  O   UNL     1      38.990 -11.757   7.233  1.00  0.00    -0.266 OA
ENDBRANCH   8  25
TORSDOF 4
ENDMDL
MODEL 9
REMARK VINA RESULT:      -7.6      2.941      4.344
REMARK  4 active torsions:
REMARK  status: ('A' for Active; 'I' for Inactive)
REMARK    1  A    between atoms: C_6  and  C_7 
REMARK    2  A    between atoms: C_8  and  C_9 
REMARK       I    between atoms: C_9  and  N_10 
REMARK    3  A    between atoms: N_10  and  C_11 
REMARK    4  A    between atoms: C_18  and  C_19 
REMARK       I    between atoms: C_19  and  N_20 
ROOT
HETATM    1  C   UNL     1      40.324 -12.660  -0.278  1.00  0.00     0.035 A 
HETATM    2  C   UNL     1      39.368 -11.852  -0.910  1.00  0.00     0.046 A 
HETATM    3  C   UNL     1      38.393 -12.446  -1.743  1.00  0.00     0.030 A 
HETATM    4  C   UNL     1      38.413 -13.823  -1.920  1.00  0.00     0.063 A 
HETATM    5  N   UNL     1      37.372 -14.095  -2.763  1.00  0.00    -0.277 N 
HETATM    6  H   UNL     1      37.086 -15.002  -3.112  1.00  0.00     0.189 HD
HETATM    7  N   UNL     1      36.666 -13.017  -3.143  1.00  0.00    -0.168 NA
HETATM    8  C   UNL     1      37.285 -11.989  -2.519  1.00  0.00     0.156 A 
HETATM    9  C   UNL     1      39.350 -14.658  -1.310  1.00  0.00     0.034 A 
HETATM   10  C   UNL     1      40.301 -14.047  -0.483  1.00  0.00     0.032 A 
ENDROOT
BRANCH   1  11
HETATM   11  N   UNL     1      41.316 -12.164   0.595  1.00  0.00    -0.327 N 
HETATM   12  C   UNL     1      41.179 -11.858   1.931  1.00  0.00     0.227 C 
HETATM   13  O   UNL     1      40.143 -11.868   2.580  1.00  0.00    -0.273 OA
HETATM   14  H   UNL     1      42.206 -11.950   0.172  1.00  0.00     0.169 HD
BRANCH  12  15
HETATM   15  C   UNL     1      42.428 -11.467   2.651  1.00  0.00     0.087 A 
HETATM   16  C   UNL     1      43.458 -12.492   3.091  1.00  0.00     0.032 A 
HETATM   17  C   UNL     1      42.718 -11.657   4.114  1.00  0.00     0.025 A 
BRANCH  16  18
HETATM   18  C   UNL     1      43.214 -13.981   3.031  1.00  0.00    -0.051 A 
HETATM   19  C   UNL     1      42.799 -14.696   4.169  1.00  0.00     0.031 A 
HETATM   20  C   UNL     1      42.595 -16.076   4.122  1.00  0.00     0.034 A 
HETATM   21  C   UNL     1      42.807 -16.782   2.942  1.00  0.00     0.024 A 
HETATM   22 CL   UNL     1      42.078 -16.909   5.536  1.00  0.00    -0.084 Cl
HETATM   23  C   UNL     1      43.233 -16.099   1.806  1.00  0.00     0.002 A 
HETATM   24  C   UNL     1      43.440 -14.718   1.855  1.00  0.00     0.007 A 
ENDBRANCH  16  18
ENDBRANCH  12  15
ENDBRANCH   1  11
BRANCH   8  25
HETATM   25  C   UNL     1      36.802 -10.609  -2.669  1.00  0.00     0.270 C 
HETATM   26  N   UNL     1      37.015 -10.076  -3.912  1.00  0.00    -0.365 N 
HETATM   27  H   UNL     1      37.462 -10.650  -4.616  1.00  0.00     0.159 HD
HETATM   28  H   UNL     1      36.706  -9.138  -4.112  1.00  0.00     0.159 HD
HETATM   29  O   UNL     1      36.250  -9.960  -1.788  1.00  0.00    -0.266 OA
ENDBRANCH   8  25
TORSDOF 4
ENDMDL
MODEL 10
REMARK VINA RESULT:      -7.6      2.500      3.565
REMARK  4 active torsions:
REMARK  status: ('A' for Active; 'I' for Inactive)
REMARK    1  A    between atoms: C_6  and  C_7 
REMARK    2  A    between atoms: C_8  and  C_9 
REMARK       I    between atoms: C_9  and  N_10 
REMARK    3  A    between atoms: N_10  and  C_11 
REMARK    4  A    between atoms: C_18  and  C_19 
REMARK       I    between atoms: C_19  and  N_20 
ROOT
HETATM    1  C   UNL     1      41.571 -13.727   2.011  1.00  0.00     0.035 A 
HETATM    2  C   UNL     1      41.381 -13.191   0.729  1.00  0.00     0.046 A 
HETATM    3  C   UNL     1      40.517 -13.843  -0.179  1.00  0.00     0.030 A 
HETATM    4  C   UNL     1      39.879 -15.009   0.223  1.00  0.00     0.063 A 
HETATM    5  N   UNL     1      39.127 -15.400  -0.849  1.00  0.00    -0.277 N 
HETATM    6  H   UNL     1      38.529 -16.215  -0.915  1.00  0.00     0.189 HD
HETATM    7  N   UNL     1      39.210 -14.585  -1.914  1.00  0.00    -0.168 NA
HETATM    8  C   UNL     1      40.064 -13.616  -1.515  1.00  0.00     0.156 A 
HETATM    9  C   UNL     1      40.046 -15.572   1.489  1.00  0.00     0.034 A 
HETATM   10  C   UNL     1      40.901 -14.902   2.374  1.00  0.00     0.032 A 
ENDROOT
BRANCH   1  11
HETATM   11  N   UNL     1      42.388 -13.131   2.995  1.00  0.00    -0.327 N 
HETATM   12  C   UNL     1      41.984 -12.412   4.098  1.00  0.00     0.227 C 
HETATM   13  O   UNL     1      40.840 -12.074   4.369  1.00  0.00    -0.273 OA
HETATM   14  H   UNL     1      43.382 -13.187   2.834  1.00  0.00     0.169 HD
BRANCH  12  15
HETATM   15  C   UNL     1      43.058 -11.999   5.050  1.00  0.00     0.087 A 
HETATM   16  C   UNL     1      43.776 -13.002   5.935  1.00  0.00     0.032 A 
HETATM   17  C   UNL     1      42.942 -11.896   6.545  1.00  0.00     0.025 A 
BRANCH  16  18
HETATM   18  C   UNL     1      43.330 -14.437   6.084  1.00  0.00    -0.051 A 
HETATM   19  C   UNL     1      43.902 -15.460   5.309  1.00  0.00     0.031 A 
HETATM   20  C   UNL     1      43.476 -16.784   5.429  1.00  0.00     0.034 A 
HETATM   21  C   UNL     1      42.462 -17.121   6.318  1.00  0.00     0.024 A 
HETATM   22 CL   UNL     1      44.211 -18.006   4.465  1.00  0.00    -0.084 Cl
HETATM   23  C   UNL     1      41.869 -16.124   7.088  1.00  0.00     0.002 A 
HETATM   24  C   UNL     1      42.295 -14.798   6.964  1.00  0.00     0.007 A 
ENDBRANCH  16  18
ENDBRANCH  12  15
ENDBRANCH   1  11
BRANCH   8  25
HETATM   25  C   UNL     1      40.419 -12.501  -2.406  1.00  0.00     0.270 C 
HETATM   26  N   UNL     1      41.533 -12.729  -3.166  1.00  0.00    -0.365 N 
HETATM   27  H   UNL     1      42.011 -13.617  -3.074  1.00  0.00     0.159 HD
HETATM   28  H   UNL     1      41.846 -12.024  -3.816  1.00  0.00     0.159 HD
HETATM   29  O   UNL     1      39.796 -11.449  -2.493  1.00  0.00    -0.266 OA
ENDBRANCH   8  25
TORSDOF 4
ENDMDL
