MODEL 1
REMARK VINA RESULT:      -9.2      0.000      0.000
REMARK  6 active torsions:
REMARK  status: ('A' for Active; 'I' for Inactive)
REMARK    1  A    between atoms: C_2  and  O_4 
REMARK    2  A    between atoms: O_4  and  C_5 
REMARK    3  A    between atoms: C_9  and  N_10 
REMARK    4  A    between atoms: N_10  and  C_11 
REMARK    5  A    between atoms: N_14  and  C_17 
REMARK    6  A    between atoms: C_20  and  C_23 
ROOT
HETATM    1  C   UNL     1      43.895 -11.474   6.009  1.00  0.00     0.176 C 
HETATM    2  C   UNL     1      45.345 -11.300   6.436  1.00  0.00     0.055 C 
HETATM    3  C   UNL     1      45.260 -11.168   7.945  1.00  0.00     0.135 C 
HETATM    4  N   UNL     1      44.003 -10.499   8.183  1.00  0.00    -0.316 N 
HETATM    5  C   UNL     1      43.131 -10.713   7.102  1.00  0.00     0.247 C 
HETATM    6  O   UNL     1      41.948 -10.412   6.998  1.00  0.00    -0.271 OA
ENDROOT
BRANCH   4   7
HETATM    7  C   UNL     1      43.705  -9.805   9.390  1.00  0.00     0.037 A 
HETATM    8  C   UNL     1      43.522 -10.481  10.605  1.00  0.00     0.030 A 
HETATM    9  C   UNL     1      43.164  -9.799  11.776  1.00  0.00     0.016 A 
HETATM   10  C   UNL     1      42.950  -8.423  11.743  1.00  0.00    -0.005 A 
HETATM   11  C   UNL     1      43.178  -7.721  10.560  1.00  0.00     0.016 A 
HETATM   12  C   UNL     1      43.552  -8.407   9.397  1.00  0.00     0.030 A 
BRANCH  10  13
HETATM   13  C   UNL     1      42.537  -7.681  12.962  1.00  0.00     0.098 A 
HETATM   14  N   UNL     1      43.481  -7.364  13.798  1.00  0.00    -0.170 NA
HETATM   15  N   UNL     1      43.142  -6.735  14.954  1.00  0.00    -0.242 N 
HETATM   16  C   UNL     1      41.867  -6.437  15.368  1.00  0.00     0.272 A 
HETATM   17  H   UNL     1      43.898  -6.531  15.600  1.00  0.00     0.192 HD
HETATM   18  O   UNL     1      41.633  -5.926  16.457  1.00  0.00    -0.266 OA
HETATM   19  C   UNL     1      40.789  -6.742  14.416  1.00  0.00     0.046 A 
HETATM   20  C   UNL     1      39.463  -6.406  14.723  1.00  0.00     0.018 A 
HETATM   21  C   UNL     1      41.109  -7.330  13.194  1.00  0.00     0.011 A 
HETATM   22  C   UNL     1      38.453  -6.642  13.793  1.00  0.00     0.001 A 
HETATM   23  C   UNL     1      38.770  -7.194  12.552  1.00  0.00     0.001 A 
HETATM   24  C   UNL     1      40.094  -7.528  12.248  1.00  0.00     0.015 A 
ENDBRANCH  10  13
ENDBRANCH   4   7
BRANCH   1  25
HETATM   25  N   UNL     1      43.543 -12.897   6.006  1.00  0.00    -0.377 N 
HETATM   26  H   UNL     1      42.950 -13.174   6.790  1.00  0.00     0.160 HD
BRANCH  25  27
HETATM   27  C   UNL     1      43.241 -13.589   4.834  1.00  0.00     0.031 A 
HETATM   28  C   UNL     1      43.188 -13.008   3.561  1.00  0.00     0.029 A 
HETATM   29  C   UNL     1      42.937 -13.779   2.422  1.00  0.00     0.005 A 
HETATM   30  C   UNL     1      42.790 -15.158   2.531  1.00  0.00     0.037 A 
HETATM   31  C   UNL     1      42.906 -15.769   3.776  1.00  0.00     0.077 A 
HETATM   32  C   UNL     1      43.104 -14.984   4.917  1.00  0.00     0.066 A 
BRANCH  31  33
HETATM   33  O   UNL     1      42.785 -17.131   3.778  1.00  0.00    -0.290 OA
BRANCH  33  34
HETATM   34  C   UNL     1      43.349 -17.770   2.642  1.00  0.00     0.505 C 
HETATM   35  F   UNL     1      44.419 -18.505   3.035  1.00  0.00    -0.184 F 
HETATM   36  F   UNL     1      42.427 -18.648   2.173  1.00  0.00    -0.184 F 
ENDBRANCH  33  34
ENDBRANCH  31  33
ENDBRANCH  25  27
ENDBRANCH   1  25
TORSDOF 6
ENDMDL
MODEL 2
REMARK VINA RESULT:      -9.2      4.288     10.979
REMARK  6 active torsions:
REMARK  status: ('A' for Active; 'I' for Inactive)
REMARK    1  A    between atoms: C_2  and  O_4 
REMARK    2  A    between atoms: O_4  and  C_5 
REMARK    3  A    between atoms: C_9  and  N_10 
REMARK    4  A    between atoms: N_10  and  C_11 
REMARK    5  A    between atoms: N_14  and  C_17 
REMARK    6  A    between atoms: C_20  and  C_23 
ROOT
HETATM    1  C   UNL     1      42.556  -8.559   7.656  1.00  0.00     0.176 C 
HETATM    2  C   UNL     1      41.729  -8.546   6.379  1.00  0.00     0.055 C 
HETATM    3  C   UNL     1      41.263  -9.982   6.240  1.00  0.00     0.135 C 
HETATM    4  N   UNL     1      42.338 -10.771   6.793  1.00  0.00    -0.316 N 
HETATM    5  C   UNL     1      43.088  -9.998   7.696  1.00  0.00     0.247 C 
HETATM    6  O   UNL     1      43.990 -10.352   8.445  1.00  0.00    -0.271 OA
ENDROOT
BRANCH   4   7
HETATM    7  C   UNL     1      42.523 -12.152   6.500  1.00  0.00     0.037 A 
HETATM    8  C   UNL     1      41.439 -13.005   6.249  1.00  0.00     0.030 A 
HETATM    9  C   UNL     1      41.622 -14.377   6.026  1.00  0.00     0.016 A 
HETATM   10  C   UNL     1      42.901 -14.926   6.082  1.00  0.00    -0.005 A 
HETATM   11  C   UNL     1      43.999 -14.091   6.277  1.00  0.00     0.016 A 
HETATM   12  C   UNL     1      43.810 -12.718   6.482  1.00  0.00     0.030 A 
BRANCH  10  13
HETATM   13  C   UNL     1      43.119 -16.383   5.883  1.00  0.00     0.098 A 
HETATM   14  N   UNL     1      43.179 -17.115   6.956  1.00  0.00    -0.170 NA
HETATM   15  N   UNL     1      43.434 -18.443   6.824  1.00  0.00    -0.242 N 
HETATM   16  C   UNL     1      43.695 -19.103   5.649  1.00  0.00     0.272 A 
HETATM   17  H   UNL     1      43.506 -18.980   7.683  1.00  0.00     0.192 HD
HETATM   18  O   UNL     1      43.982 -20.294   5.615  1.00  0.00    -0.266 OA
HETATM   19  C   UNL     1      43.584 -18.305   4.419  1.00  0.00     0.046 A 
HETATM   20  C   UNL     1      43.762 -18.911   3.168  1.00  0.00     0.018 A 
HETATM   21  C   UNL     1      43.262 -16.952   4.515  1.00  0.00     0.011 A 
HETATM   22  C   UNL     1      43.598 -18.163   2.004  1.00  0.00     0.001 A 
HETATM   23  C   UNL     1      43.236 -16.819   2.090  1.00  0.00     0.001 A 
HETATM   24  C   UNL     1      43.058 -16.217   3.339  1.00  0.00     0.015 A 
ENDBRANCH  10  13
ENDBRANCH   4   7
BRANCH   1  25
HETATM   25  N   UNL     1      41.697  -8.277   8.809  1.00  0.00    -0.377 N 
HETATM   26  H   UNL     1      40.712  -8.493   8.649  1.00  0.00     0.160 HD
BRANCH  25  27
HETATM   27  C   UNL     1      42.097  -8.536  10.120  1.00  0.00     0.031 A 
HETATM   28  C   UNL     1      43.198  -7.940  10.745  1.00  0.00     0.029 A 
HETATM   29  C   UNL     1      43.504  -8.206  12.084  1.00  0.00     0.005 A 
HETATM   30  C   UNL     1      42.676  -9.031  12.838  1.00  0.00     0.037 A 
HETATM   31  C   UNL     1      41.537  -9.582  12.259  1.00  0.00     0.077 A 
HETATM   32  C   UNL     1      41.269  -9.354  10.905  1.00  0.00     0.066 A 
BRANCH  31  33
HETATM   33  O   UNL     1      40.765 -10.347  13.089  1.00  0.00    -0.290 OA
BRANCH  33  34
HETATM   34  C   UNL     1      39.474 -10.643  12.578  1.00  0.00     0.505 C 
HETATM   35  F   UNL     1      39.073 -11.845  13.062  1.00  0.00    -0.184 F 
HETATM   36  F   UNL     1      38.618  -9.718  13.081  1.00  0.00    -0.184 F 
ENDBRANCH  33  34
ENDBRANCH  31  33
ENDBRANCH  25  27
ENDBRANCH   1  25
TORSDOF 6
ENDMDL
MODEL 3
REMARK VINA RESULT:      -9.0      2.600      3.743
REMARK  6 active torsions:
REMARK  status: ('A' for Active; 'I' for Inactive)
REMARK    1  A    between atoms: C_2  and  O_4 
REMARK    2  A    between atoms: O_4  and  C_5 
REMARK    3  A    between atoms: C_9  and  N_10 
REMARK    4  A    between atoms: N_10  and  C_11 
REMARK    5  A    between atoms: N_14  and  C_17 
REMARK    6  A    between atoms: C_20  and  C_23 
ROOT
HETATM    1  C   UNL     1      41.857 -13.605   3.812  1.00  0.00     0.176 C 
HETATM    2  C   UNL     1      41.804 -12.329   2.986  1.00  0.00     0.055 C 
HETATM    3  C   UNL     1      42.416 -11.285   3.900  1.00  0.00     0.135 C 
HETATM    4  N   UNL     1      42.037 -11.696   5.231  1.00  0.00    -0.316 N 
HETATM    5  C   UNL     1      41.769 -13.076   5.251  1.00  0.00     0.247 C 
HETATM    6  O   UNL     1      41.542 -13.800   6.212  1.00  0.00    -0.271 OA
ENDROOT
BRANCH   4   7
HETATM    7  C   UNL     1      42.028 -10.814   6.348  1.00  0.00     0.037 A 
HETATM    8  C   UNL     1      40.841 -10.245   6.831  1.00  0.00     0.030 A 
HETATM    9  C   UNL     1      40.845  -9.325   7.888  1.00  0.00     0.016 A 
HETATM   10  C   UNL     1      42.051  -8.933   8.464  1.00  0.00    -0.005 A 
HETATM   11  C   UNL     1      43.240  -9.524   8.038  1.00  0.00     0.016 A 
HETATM   12  C   UNL     1      43.226 -10.455   6.991  1.00  0.00     0.030 A 
BRANCH  10  13
HETATM   13  C   UNL     1      42.088  -7.935   9.564  1.00  0.00     0.098 A 
HETATM   14  N   UNL     1      42.021  -6.683   9.217  1.00  0.00    -0.170 NA
HETATM   15  N   UNL     1      42.107  -5.734  10.186  1.00  0.00    -0.242 N 
HETATM   16  C   UNL     1      42.317  -5.961  11.523  1.00  0.00     0.272 A 
HETATM   17  H   UNL     1      42.085  -4.767   9.878  1.00  0.00     0.192 HD
HETATM   18  O   UNL     1      42.450  -5.049  12.331  1.00  0.00    -0.266 OA
HETATM   19  C   UNL     1      42.346  -7.370  11.945  1.00  0.00     0.046 A 
HETATM   20  C   UNL     1      42.482  -7.696  13.301  1.00  0.00     0.018 A 
HETATM   21  C   UNL     1      42.197  -8.368  10.984  1.00  0.00     0.011 A 
HETATM   22  C   UNL     1      42.449  -9.030  13.702  1.00  0.00     0.001 A 
HETATM   23  C   UNL     1      42.260 -10.034  12.751  1.00  0.00     0.001 A 
HETATM   24  C   UNL     1      42.124  -9.705  11.399  1.00  0.00     0.015 A 
ENDBRANCH  10  13
ENDBRANCH   4   7
BRANCH   1  25
HETATM   25  N   UNL     1      43.125 -14.300   3.577  1.00  0.00    -0.377 N 
HETATM   26  H   UNL     1      43.904 -13.927   4.122  1.00  0.00     0.160 HD
BRANCH  25  27
HETATM   27  C   UNL     1      43.200 -15.682   3.409  1.00  0.00     0.031 A 
HETATM   28  C   UNL     1      42.970 -16.348   2.200  1.00  0.00     0.029 A 
HETATM   29  C   UNL     1      43.121 -17.735   2.096  1.00  0.00     0.005 A 
HETATM   30  C   UNL     1      43.561 -18.474   3.189  1.00  0.00     0.037 A 
HETATM   31  C   UNL     1      43.862 -17.827   4.384  1.00  0.00     0.077 A 
HETATM   32  C   UNL     1      43.656 -16.447   4.496  1.00  0.00     0.066 A 
BRANCH  31  33
HETATM   33  O   UNL     1      44.324 -18.630   5.390  1.00  0.00    -0.290 OA
BRANCH  33  34
HETATM   34  C   UNL     1      43.943 -19.992   5.272  1.00  0.00     0.505 C 
HETATM   35  F   UNL     1      45.058 -20.763   5.270  1.00  0.00    -0.184 F 
HETATM   36  F   UNL     1      43.249 -20.317   6.392  1.00  0.00    -0.184 F 
ENDBRANCH  33  34
ENDBRANCH  31  33
ENDBRANCH  25  27
ENDBRANCH   1  25
TORSDOF 6
ENDMDL
MODEL 4
REMARK VINA RESULT:      -8.8      1.593      2.286
REMARK  6 active torsions:
REMARK  status: ('A' for Active; 'I' for Inactive)
REMARK    1  A    between atoms: C_2  and  O_4 
REMARK    2  A    between atoms: O_4  and  C_5 
REMARK    3  A    between atoms: C_9  and  N_10 
REMARK    4  A    between atoms: N_10  and  C_11 
REMARK    5  A    between atoms: N_14  and  C_17 
REMARK    6  A    between atoms: C_20  and  C_23 
ROOT
HETATM    1  C   UNL     1      44.085 -10.678   7.866  1.00  0.00     0.176 C 
HETATM    2  C   UNL     1      45.435 -10.424   8.521  1.00  0.00     0.055 C 
HETATM    3  C   UNL     1      45.098 -10.294   9.994  1.00  0.00     0.135 C 
HETATM    4  N   UNL     1      43.785  -9.696  10.019  1.00  0.00    -0.316 N 
HETATM    5  C   UNL     1      43.113  -9.958   8.812  1.00  0.00     0.247 C 
HETATM    6  O   UNL     1      41.949  -9.723   8.515  1.00  0.00    -0.271 OA
ENDROOT
BRANCH   4   7
HETATM    7  C   UNL     1      43.258  -9.018  11.154  1.00  0.00     0.037 A 
HETATM    8  C   UNL     1      43.116  -7.622  11.180  1.00  0.00     0.030 A 
HETATM    9  C   UNL     1      42.659  -6.953  12.323  1.00  0.00     0.016 A 
HETATM   10  C   UNL     1      42.363  -7.673  13.479  1.00  0.00    -0.005 A 
HETATM   11  C   UNL     1      42.444  -9.064  13.462  1.00  0.00     0.016 A 
HETATM   12  C   UNL     1      42.886  -9.728  12.309  1.00  0.00     0.030 A 
BRANCH  10  13
HETATM   13  C   UNL     1      41.909  -6.986  14.715  1.00  0.00     0.098 A 
HETATM   14  N   UNL     1      42.791  -6.842  15.660  1.00  0.00    -0.170 NA
HETATM   15  N   UNL     1      42.403  -6.270  16.830  1.00  0.00    -0.242 N 
HETATM   16  C   UNL     1      41.132  -5.864  17.150  1.00  0.00     0.272 A 
HETATM   17  H   UNL     1      43.108  -6.203  17.558  1.00  0.00     0.192 HD
HETATM   18  O   UNL     1      40.843  -5.415  18.253  1.00  0.00    -0.266 OA
HETATM   19  C   UNL     1      40.129  -5.971  16.079  1.00  0.00     0.046 A 
HETATM   20  C   UNL     1      38.822  -5.513  16.291  1.00  0.00     0.018 A 
HETATM   21  C   UNL     1      40.508  -6.496  14.845  1.00  0.00     0.011 A 
HETATM   22  C   UNL     1      37.892  -5.562  15.254  1.00  0.00     0.001 A 
HETATM   23  C   UNL     1      38.274  -6.048  14.004  1.00  0.00     0.001 A 
HETATM   24  C   UNL     1      39.579  -6.504  13.795  1.00  0.00     0.015 A 
ENDBRANCH  10  13
ENDBRANCH   4   7
BRANCH   1  25
HETATM   25  N   UNL     1      43.816 -12.117   7.820  1.00  0.00    -0.377 N 
HETATM   26  H   UNL     1      43.301 -12.464   8.631  1.00  0.00     0.160 HD
BRANCH  25  27
HETATM   27  C   UNL     1      43.466 -12.774   6.641  1.00  0.00     0.031 A 
HETATM   28  C   UNL     1      43.380 -12.160   5.386  1.00  0.00     0.029 A 
HETATM   29  C   UNL     1      43.080 -12.897   4.236  1.00  0.00     0.005 A 
HETATM   30  C   UNL     1      42.916 -14.276   4.314  1.00  0.00     0.037 A 
HETATM   31  C   UNL     1      43.063 -14.921   5.539  1.00  0.00     0.077 A 
HETATM   32  C   UNL     1      43.310 -14.169   6.693  1.00  0.00     0.066 A 
BRANCH  31  33
HETATM   33  O   UNL     1      42.922 -16.281   5.510  1.00  0.00    -0.290 OA
BRANCH  33  34
HETATM   34  C   UNL     1      44.088 -16.981   5.103  1.00  0.00     0.505 C 
HETATM   35  F   UNL     1      45.138 -16.562   5.852  1.00  0.00    -0.184 F 
HETATM   36  F   UNL     1      43.898 -18.292   5.402  1.00  0.00    -0.184 F 
ENDBRANCH  33  34
ENDBRANCH  31  33
ENDBRANCH  25  27
ENDBRANCH   1  25
TORSDOF 6
ENDMDL
MODEL 5
REMARK VINA RESULT:      -8.7      3.034      5.295
REMARK  6 active torsions:
REMARK  status: ('A' for Active; 'I' for Inactive)
REMARK    1  A    between atoms: C_2  and  O_4 
REMARK    2  A    between atoms: O_4  and  C_5 
REMARK    3  A    between atoms: C_9  and  N_10 
REMARK    4  A    between atoms: N_10  and  C_11 
REMARK    5  A    between atoms: N_14  and  C_17 
REMARK    6  A    between atoms: C_20  and  C_23 
ROOT
HETATM    1  C   UNL     1      42.198  -9.456   9.876  1.00  0.00     0.176 C 
HETATM    2  C   UNL     1      42.776  -8.083   9.566  1.00  0.00     0.055 C 
HETATM    3  C   UNL     1      43.162  -7.541  10.928  1.00  0.00     0.135 C 
HETATM    4  N   UNL     1      42.182  -8.092  11.833  1.00  0.00    -0.316 N 
HETATM    5  C   UNL     1      41.636  -9.270  11.293  1.00  0.00     0.247 C 
HETATM    6  O   UNL     1      40.876 -10.074  11.817  1.00  0.00    -0.271 OA
ENDROOT
BRANCH   4   7
HETATM    7  C   UNL     1      41.902  -7.536  13.113  1.00  0.00     0.037 A 
HETATM    8  C   UNL     1      40.691  -6.882  13.384  1.00  0.00     0.030 A 
HETATM    9  C   UNL     1      40.446  -6.278  14.625  1.00  0.00     0.016 A 
HETATM   10  C   UNL     1      41.430  -6.292  15.612  1.00  0.00    -0.005 A 
HETATM   11  C   UNL     1      42.620  -6.981  15.386  1.00  0.00     0.016 A 
HETATM   12  C   UNL     1      42.851  -7.597  14.149  1.00  0.00     0.030 A 
BRANCH  10  13
HETATM   13  C   UNL     1      41.209  -5.630  16.924  1.00  0.00     0.098 A 
HETATM   14  N   UNL     1      41.439  -4.351  16.977  1.00  0.00    -0.170 NA
HETATM   15  N   UNL     1      41.304  -3.716  18.171  1.00  0.00    -0.242 N 
HETATM   16  C   UNL     1      40.995  -4.306  19.371  1.00  0.00     0.272 A 
HETATM   17  H   UNL     1      41.523  -2.724  18.185  1.00  0.00     0.192 HD
HETATM   18  O   UNL     1      40.955  -3.677  20.422  1.00  0.00    -0.266 OA
HETATM   19  C   UNL     1      40.683  -5.742  19.325  1.00  0.00     0.046 A 
HETATM   20  C   UNL     1      40.285  -6.414  20.489  1.00  0.00     0.018 A 
HETATM   21  C   UNL     1      40.750  -6.412  18.105  1.00  0.00     0.011 A 
HETATM   22  C   UNL     1      39.933  -7.761  20.429  1.00  0.00     0.001 A 
HETATM   23  C   UNL     1      39.959  -8.429  19.204  1.00  0.00     0.001 A 
HETATM   24  C   UNL     1      40.355  -7.756  18.044  1.00  0.00     0.015 A 
ENDBRANCH  10  13
ENDBRANCH   4   7
BRANCH   1  25
HETATM   25  N   UNL     1      43.263 -10.462   9.854  1.00  0.00    -0.377 N 
HETATM   26  H   UNL     1      43.004 -11.343  10.301  1.00  0.00     0.160 HD
BRANCH  25  27
HETATM   27  C   UNL     1      44.096 -10.644   8.751  1.00  0.00     0.031 A 
HETATM   28  C   UNL     1      45.463 -10.345   8.731  1.00  0.00     0.029 A 
HETATM   29  C   UNL     1      46.247 -10.610   7.603  1.00  0.00     0.005 A 
HETATM   30  C   UNL     1      45.686 -11.233   6.493  1.00  0.00     0.037 A 
HETATM   31  C   UNL     1      44.344 -11.603   6.514  1.00  0.00     0.077 A 
HETATM   32  C   UNL     1      43.555 -11.286   7.624  1.00  0.00     0.066 A 
BRANCH  31  33
HETATM   33  O   UNL     1      43.893 -12.245   5.394  1.00  0.00    -0.290 OA
BRANCH  33  34
HETATM   34  C   UNL     1      43.298 -13.510   5.644  1.00  0.00     0.505 C 
HETATM   35  F   UNL     1      43.169 -14.176   4.471  1.00  0.00    -0.184 F 
HETATM   36  F   UNL     1      44.170 -14.223   6.402  1.00  0.00    -0.184 F 
ENDBRANCH  33  34
ENDBRANCH  31  33
ENDBRANCH  25  27
ENDBRANCH   1  25
TORSDOF 6
ENDMDL
MODEL 6
REMARK VINA RESULT:      -8.7      8.079     11.939
REMARK  6 active torsions:
REMARK  status: ('A' for Active; 'I' for Inactive)
REMARK    1  A    between atoms: C_2  and  O_4 
REMARK    2  A    between atoms: O_4  and  C_5 
REMARK    3  A    between atoms: C_9  and  N_10 
REMARK    4  A    between atoms: N_10  and  C_11 
REMARK    5  A    between atoms: N_14  and  C_17 
REMARK    6  A    between atoms: C_20  and  C_23 
ROOT
HETATM    1  C   UNL     1      41.434 -14.042   4.265  1.00  0.00     0.176 C 
HETATM    2  C   UNL     1      40.196 -13.273   4.704  1.00  0.00     0.055 C 
HETATM    3  C   UNL     1      39.460 -13.009   3.404  1.00  0.00     0.135 C 
HETATM    4  N   UNL     1      40.503 -12.855   2.418  1.00  0.00    -0.316 N 
HETATM    5  C   UNL     1      41.669 -13.513   2.843  1.00  0.00     0.247 C 
HETATM    6  O   UNL     1      42.710 -13.707   2.227  1.00  0.00    -0.271 OA
ENDROOT
BRANCH   4   7
HETATM    7  C   UNL     1      40.307 -12.194   1.173  1.00  0.00     0.037 A 
HETATM    8  C   UNL     1      40.888 -12.666  -0.013  1.00  0.00     0.030 A 
HETATM    9  C   UNL     1      40.748 -11.975  -1.224  1.00  0.00     0.016 A 
HETATM   10  C   UNL     1      40.044 -10.774  -1.262  1.00  0.00    -0.005 A 
HETATM   11  C   UNL     1      39.412 -10.311  -0.110  1.00  0.00     0.016 A 
HETATM   12  C   UNL     1      39.543 -11.016   1.094  1.00  0.00     0.030 A 
BRANCH  10  13
HETATM   13  C   UNL     1      39.908 -10.004  -2.526  1.00  0.00     0.098 A 
HETATM   14  N   UNL     1      38.875 -10.279  -3.267  1.00  0.00    -0.170 NA
HETATM   15  N   UNL     1      38.741  -9.639  -4.458  1.00  0.00    -0.242 N 
HETATM   16  C   UNL     1      39.632  -8.748  -5.003  1.00  0.00     0.272 A 
HETATM   17  H   UNL     1      37.941  -9.900  -5.027  1.00  0.00     0.192 HD
HETATM   18  O   UNL     1      39.476  -8.259  -6.115  1.00  0.00    -0.266 OA
HETATM   19  C   UNL     1      40.782  -8.385  -4.160  1.00  0.00     0.046 A 
HETATM   20  C   UNL     1      41.704  -7.428  -4.604  1.00  0.00     0.018 A 
HETATM   21  C   UNL     1      40.916  -8.976  -2.905  1.00  0.00     0.011 A 
HETATM   22  C   UNL     1      42.759  -7.044  -3.777  1.00  0.00     0.001 A 
HETATM   23  C   UNL     1      42.878  -7.601  -2.504  1.00  0.00     0.001 A 
HETATM   24  C   UNL     1      41.955  -8.556  -2.064  1.00  0.00     0.015 A 
ENDBRANCH  10  13
ENDBRANCH   4   7
BRANCH   1  25
HETATM   25  N   UNL     1      41.152 -15.480   4.258  1.00  0.00    -0.377 N 
HETATM   26  H   UNL     1      40.522 -15.770   3.509  1.00  0.00     0.160 HD
BRANCH  25  27
HETATM   27  C   UNL     1      42.129 -16.434   4.539  1.00  0.00     0.031 A 
HETATM   28  C   UNL     1      42.496 -16.839   5.827  1.00  0.00     0.029 A 
HETATM   29  C   UNL     1      43.446 -17.846   6.029  1.00  0.00     0.005 A 
HETATM   30  C   UNL     1      44.004 -18.506   4.939  1.00  0.00     0.037 A 
HETATM   31  C   UNL     1      43.606 -18.169   3.648  1.00  0.00     0.077 A 
HETATM   32  C   UNL     1      42.696 -17.124   3.455  1.00  0.00     0.066 A 
BRANCH  31  33
HETATM   33  O   UNL     1      44.181 -18.899   2.645  1.00  0.00    -0.290 OA
BRANCH  33  34
HETATM   34  C   UNL     1      43.611 -20.185   2.457  1.00  0.00     0.505 C 
HETATM   35  F   UNL     1      42.372 -20.045   1.924  1.00  0.00    -0.184 F 
HETATM   36  F   UNL     1      44.362 -20.829   1.528  1.00  0.00    -0.184 F 
ENDBRANCH  33  34
ENDBRANCH  31  33
ENDBRANCH  25  27
ENDBRANCH   1  25
TORSDOF 6
ENDMDL
MODEL 7
REMARK VINA RESULT:      -8.6      4.827     11.789
REMARK  6 active torsions:
REMARK  status: ('A' for Active; 'I' for Inactive)
REMARK    1  A    between atoms: C_2  and  O_4 
REMARK    2  A    between atoms: O_4  and  C_5 
REMARK    3  A    between atoms: C_9  and  N_10 
REMARK    4  A    between atoms: N_10  and  C_11 
REMARK    5  A    between atoms: N_14  and  C_17 
REMARK    6  A    between atoms: C_20  and  C_23 
ROOT
HETATM    1  C   UNL     1      43.415  -8.546  10.282  1.00  0.00     0.176 C 
HETATM    2  C   UNL     1      43.294  -7.505   9.179  1.00  0.00     0.055 C 
HETATM    3  C   UNL     1      42.655  -8.267   8.035  1.00  0.00     0.135 C 
HETATM    4  N   UNL     1      43.162  -9.613   8.163  1.00  0.00    -0.316 N 
HETATM    5  C   UNL     1      43.554  -9.855   9.491  1.00  0.00     0.247 C 
HETATM    6  O   UNL     1      43.912 -10.907  10.006  1.00  0.00    -0.271 OA
ENDROOT
BRANCH   4   7
HETATM    7  C   UNL     1      43.168 -10.550   7.092  1.00  0.00     0.037 A 
HETATM    8  C   UNL     1      41.979 -11.031   6.525  1.00  0.00     0.030 A 
HETATM    9  C   UNL     1      41.990 -12.003   5.515  1.00  0.00     0.016 A 
HETATM   10  C   UNL     1      43.199 -12.537   5.075  1.00  0.00    -0.005 A 
HETATM   11  C   UNL     1      44.396 -12.037   5.585  1.00  0.00     0.016 A 
HETATM   12  C   UNL     1      44.379 -11.053   6.582  1.00  0.00     0.030 A 
BRANCH  10  13
HETATM   13  C   UNL     1      43.237 -13.592   4.030  1.00  0.00     0.098 A 
HETATM   14  N   UNL     1      43.219 -13.189   2.794  1.00  0.00    -0.170 NA
HETATM   15  N   UNL     1      43.195 -14.121   1.806  1.00  0.00    -0.242 N 
HETATM   16  C   UNL     1      43.132 -15.482   1.979  1.00  0.00     0.272 A 
HETATM   17  H   UNL     1      43.149 -13.773   0.853  1.00  0.00     0.192 HD
HETATM   18  O   UNL     1      43.047 -16.261   1.037  1.00  0.00    -0.266 OA
HETATM   19  C   UNL     1      43.201 -15.962   3.368  1.00  0.00     0.046 A 
HETATM   20  C   UNL     1      43.217 -17.337   3.637  1.00  0.00     0.018 A 
HETATM   21  C   UNL     1      43.290 -15.033   4.403  1.00  0.00     0.011 A 
HETATM   22  C   UNL     1      43.342 -17.787   4.950  1.00  0.00     0.001 A 
HETATM   23  C   UNL     1      43.472 -16.865   5.988  1.00  0.00     0.001 A 
HETATM   24  C   UNL     1      43.456 -15.493   5.717  1.00  0.00     0.015 A 
ENDBRANCH  10  13
ENDBRANCH   4   7
BRANCH   1  25
HETATM   25  N   UNL     1      42.201  -8.547  11.103  1.00  0.00    -0.377 N 
HETATM   26  H   UNL     1      41.712  -9.443  11.110  1.00  0.00     0.160 HD
BRANCH  25  27
HETATM   27  C   UNL     1      42.128  -7.885  12.328  1.00  0.00     0.031 A 
HETATM   28  C   UNL     1      43.164  -7.840  13.268  1.00  0.00     0.029 A 
HETATM   29  C   UNL     1      43.038  -7.105  14.452  1.00  0.00     0.005 A 
HETATM   30  C   UNL     1      41.891  -6.354  14.688  1.00  0.00     0.037 A 
HETATM   31  C   UNL     1      40.875  -6.326  13.738  1.00  0.00     0.077 A 
HETATM   32  C   UNL     1      40.986  -7.107  12.582  1.00  0.00     0.066 A 
BRANCH  31  33
HETATM   33  O   UNL     1      39.805  -5.530  14.040  1.00  0.00    -0.290 OA
BRANCH  33  34
HETATM   34  C   UNL     1      38.666  -6.235  14.511  1.00  0.00     0.505 C 
HETATM   35  F   UNL     1      38.689  -6.254  15.866  1.00  0.00    -0.184 F 
HETATM   36  F   UNL     1      37.571  -5.518  14.152  1.00  0.00    -0.184 F 
ENDBRANCH  33  34
ENDBRANCH  31  33
ENDBRANCH  25  27
ENDBRANCH   1  25
TORSDOF 6
ENDMDL
MODEL 8
REMARK VINA RESULT:      -8.6      4.834     11.508
REMARK  6 active torsions:
REMARK  status: ('A' for Active; 'I' for Inactive)
REMARK    1  A    between atoms: C_2  and  O_4 
REMARK    2  A    between atoms: O_4  and  C_5 
REMARK    3  A    between atoms: C_9  and  N_10 
REMARK    4  A    between atoms: N_10  and  C_11 
REMARK    5  A    between atoms: N_14  and  C_17 
REMARK    6  A    between atoms: C_20  and  C_23 
ROOT
HETATM    1  C   UNL     1      43.970  -9.979   9.240  1.00  0.00     0.176 C 
HETATM    2  C   UNL     1      43.370  -8.670   8.748  1.00  0.00     0.055 C 
HETATM    3  C   UNL     1      42.367  -9.109   7.699  1.00  0.00     0.135 C 
HETATM    4  N   UNL     1      42.949 -10.290   7.108  1.00  0.00    -0.316 N 
HETATM    5  C   UNL     1      43.848 -10.887   8.008  1.00  0.00     0.247 C 
HETATM    6  O   UNL     1      44.433 -11.958   7.913  1.00  0.00    -0.271 OA
ENDROOT
BRANCH   4   7
HETATM    7  C   UNL     1      42.574 -10.788   5.828  1.00  0.00     0.037 A 
HETATM    8  C   UNL     1      43.530 -11.201   4.888  1.00  0.00     0.030 A 
HETATM    9  C   UNL     1      43.160 -11.627   3.605  1.00  0.00     0.016 A 
HETATM   10  C   UNL     1      41.819 -11.616   3.228  1.00  0.00    -0.005 A 
HETATM   11  C   UNL     1      40.846 -11.261   4.161  1.00  0.00     0.016 A 
HETATM   12  C   UNL     1      41.222 -10.852   5.447  1.00  0.00     0.030 A 
BRANCH  10  13
HETATM   13  C   UNL     1      41.403 -12.031   1.863  1.00  0.00     0.098 A 
HETATM   14  N   UNL     1      41.498 -11.133   0.927  1.00  0.00    -0.170 NA
HETATM   15  N   UNL     1      41.075 -11.451  -0.324  1.00  0.00    -0.242 N 
HETATM   16  C   UNL     1      40.492 -12.635  -0.705  1.00  0.00     0.272 A 
HETATM   17  H   UNL     1      41.132 -10.718  -1.024  1.00  0.00     0.192 HD
HETATM   18  O   UNL     1      40.075 -12.826  -1.841  1.00  0.00    -0.266 OA
HETATM   19  C   UNL     1      40.420 -13.682   0.326  1.00  0.00     0.046 A 
HETATM   20  C   UNL     1      39.908 -14.947   0.008  1.00  0.00     0.018 A 
HETATM   21  C   UNL     1      40.903 -13.410   1.604  1.00  0.00     0.011 A 
HETATM   22  C   UNL     1      39.897 -15.954   0.972  1.00  0.00     0.001 A 
HETATM   23  C   UNL     1      40.415 -15.702   2.242  1.00  0.00     0.001 A 
HETATM   24  C   UNL     1      40.926 -14.439   2.556  1.00  0.00     0.015 A 
ENDBRANCH  10  13
ENDBRANCH   4   7
BRANCH   1  25
HETATM   25  N   UNL     1      43.185 -10.497  10.364  1.00  0.00    -0.377 N 
HETATM   26  H   UNL     1      43.476 -11.426  10.673  1.00  0.00     0.160 HD
BRANCH  25  27
HETATM   27  C   UNL     1      42.766  -9.687  11.418  1.00  0.00     0.031 A 
HETATM   28  C   UNL     1      43.592  -8.794  12.109  1.00  0.00     0.029 A 
HETATM   29  C   UNL     1      43.085  -7.969  13.120  1.00  0.00     0.005 A 
HETATM   30  C   UNL     1      41.727  -7.985  13.417  1.00  0.00     0.037 A 
HETATM   31  C   UNL     1      40.871  -8.815  12.698  1.00  0.00     0.077 A 
HETATM   32  C   UNL     1      41.396  -9.675  11.726  1.00  0.00     0.066 A 
BRANCH  31  33
HETATM   33  O   UNL     1      39.549  -8.733  13.035  1.00  0.00    -0.290 OA
BRANCH  33  34
HETATM   34  C   UNL     1      39.005  -7.424  12.956  1.00  0.00     0.505 C 
HETATM   35  F   UNL     1      39.222  -6.930  11.711  1.00  0.00    -0.184 F 
HETATM   36  F   UNL     1      37.660  -7.535  13.099  1.00  0.00    -0.184 F 
ENDBRANCH  33  34
ENDBRANCH  31  33
ENDBRANCH  25  27
ENDBRANCH   1  25
TORSDOF 6
ENDMDL
MODEL 9
REMARK VINA RESULT:      -8.6      4.566     11.484
REMARK  6 active torsions:
REMARK  status: ('A' for Active; 'I' for Inactive)
REMARK    1  A    between atoms: C_2  and  O_4 
REMARK    2  A    between atoms: O_4  and  C_5 
REMARK    3  A    between atoms: C_9  and  N_10 
REMARK    4  A    between atoms: N_10  and  C_11 
REMARK    5  A    between atoms: N_14  and  C_17 
REMARK    6  A    between atoms: C_20  and  C_23 
ROOT
HETATM    1  C   UNL     1      42.858  -7.799   8.273  1.00  0.00     0.176 C 
HETATM    2  C   UNL     1      42.300  -7.606   6.871  1.00  0.00     0.055 C 
HETATM    3  C   UNL     1      41.769  -8.978   6.505  1.00  0.00     0.135 C 
HETATM    4  N   UNL     1      42.657  -9.903   7.169  1.00  0.00    -0.316 N 
HETATM    5  C   UNL     1      43.269  -9.278   8.269  1.00  0.00     0.247 C 
HETATM    6  O   UNL     1      43.979  -9.773   9.135  1.00  0.00    -0.271 OA
ENDROOT
BRANCH   4   7
HETATM    7  C   UNL     1      42.798 -11.265   6.779  1.00  0.00     0.037 A 
HETATM    8  C   UNL     1      41.720 -12.002   6.266  1.00  0.00     0.030 A 
HETATM    9  C   UNL     1      41.847 -13.361   5.947  1.00  0.00     0.016 A 
HETATM   10  C   UNL     1      43.056 -14.018   6.167  1.00  0.00    -0.005 A 
HETATM   11  C   UNL     1      44.156 -13.295   6.626  1.00  0.00     0.016 A 
HETATM   12  C   UNL     1      44.026 -11.933   6.927  1.00  0.00     0.030 A 
BRANCH  10  13
HETATM   13  C   UNL     1      43.208 -15.465   5.869  1.00  0.00     0.098 A 
HETATM   14  N   UNL     1      43.319 -16.262   6.891  1.00  0.00    -0.170 NA
HETATM   15  N   UNL     1      43.516 -17.587   6.664  1.00  0.00    -0.242 N 
HETATM   16  C   UNL     1      43.668 -18.183   5.436  1.00  0.00     0.272 A 
HETATM   17  H   UNL     1      43.631 -18.176   7.482  1.00  0.00     0.192 HD
HETATM   18  O   UNL     1      43.910 -19.378   5.312  1.00  0.00    -0.266 OA
HETATM   19  C   UNL     1      43.497 -17.309   4.266  1.00  0.00     0.046 A 
HETATM   20  C   UNL     1      43.563 -17.845   2.973  1.00  0.00     0.018 A 
HETATM   21  C   UNL     1      43.231 -15.956   4.463  1.00  0.00     0.011 A 
HETATM   22  C   UNL     1      43.341 -17.024   1.868  1.00  0.00     0.001 A 
HETATM   23  C   UNL     1      43.035 -15.677   2.058  1.00  0.00     0.001 A 
HETATM   24  C   UNL     1      42.969 -15.145   3.350  1.00  0.00     0.015 A 
ENDBRANCH  10  13
ENDBRANCH   4   7
BRANCH   1  25
HETATM   25  N   UNL     1      41.812  -7.540   9.266  1.00  0.00    -0.377 N 
HETATM   26  H   UNL     1      41.289  -8.374   9.537  1.00  0.00     0.160 HD
BRANCH  25  27
HETATM   27  C   UNL     1      41.991  -6.651  10.325  1.00  0.00     0.031 A 
HETATM   28  C   UNL     1      42.332  -5.301  10.178  1.00  0.00     0.029 A 
HETATM   29  C   UNL     1      42.437  -4.455  11.287  1.00  0.00     0.005 A 
HETATM   30  C   UNL     1      42.147  -4.933  12.561  1.00  0.00     0.037 A 
HETATM   31  C   UNL     1      41.739  -6.254  12.726  1.00  0.00     0.077 A 
HETATM   32  C   UNL     1      41.689  -7.107  11.619  1.00  0.00     0.066 A 
BRANCH  31  33
HETATM   33  O   UNL     1      41.438  -6.622  14.008  1.00  0.00    -0.290 OA
BRANCH  33  34
HETATM   34  C   UNL     1      42.559  -6.679  14.879  1.00  0.00     0.505 C 
HETATM   35  F   UNL     1      42.232  -7.414  15.970  1.00  0.00    -0.184 F 
HETATM   36  F   UNL     1      43.539  -7.360  14.232  1.00  0.00    -0.184 F 
ENDBRANCH  33  34
ENDBRANCH  31  33
ENDBRANCH  25  27
ENDBRANCH   1  25
TORSDOF 6
ENDMDL
MODEL 10
REMARK VINA RESULT:      -8.6      9.151     12.832
REMARK  6 active torsions:
REMARK  status: ('A' for Active; 'I' for Inactive)
REMARK    1  A    between atoms: C_2  and  O_4 
REMARK    2  A    between atoms: O_4  and  C_5 
REMARK    3  A    between atoms: C_9  and  N_10 
REMARK    4  A    between atoms: N_10  and  C_11 
REMARK    5  A    between atoms: N_14  and  C_17 
REMARK    6  A    between atoms: C_20  and  C_23 
ROOT
HETATM    1  C   UNL     1      41.232 -14.696   2.258  1.00  0.00     0.176 C 
HETATM    2  C   UNL     1      40.038 -15.342   1.571  1.00  0.00     0.055 C 
HETATM    3  C   UNL     1      40.090 -14.783   0.162  1.00  0.00     0.135 C 
HETATM    4  N   UNL     1      40.624 -13.451   0.317  1.00  0.00    -0.316 N 
HETATM    5  C   UNL     1      41.373 -13.367   1.504  1.00  0.00     0.247 C 
HETATM    6  O   UNL     1      42.072 -12.445   1.907  1.00  0.00    -0.271 OA
ENDROOT
BRANCH   4   7
HETATM    7  C   UNL     1      40.460 -12.426  -0.657  1.00  0.00     0.037 A 
HETATM    8  C   UNL     1      39.811 -11.219  -0.357  1.00  0.00     0.030 A 
HETATM    9  C   UNL     1      39.593 -10.241  -1.337  1.00  0.00     0.016 A 
HETATM   10  C   UNL     1      39.995 -10.470  -2.651  1.00  0.00    -0.005 A 
HETATM   11  C   UNL     1      40.689 -11.638  -2.963  1.00  0.00     0.016 A 
HETATM   12  C   UNL     1      40.919 -12.604  -1.974  1.00  0.00     0.030 A 
BRANCH  10  13
HETATM   13  C   UNL     1      39.746  -9.464  -3.715  1.00  0.00     0.098 A 
HETATM   14  N   UNL     1      38.607  -9.544  -4.337  1.00  0.00    -0.170 NA
HETATM   15  N   UNL     1      38.361  -8.680  -5.356  1.00  0.00    -0.242 N 
HETATM   16  C   UNL     1      39.232  -7.740  -5.848  1.00  0.00     0.272 A 
HETATM   17  H   UNL     1      37.476  -8.790  -5.842  1.00  0.00     0.192 HD
HETATM   18  O   UNL     1      38.963  -7.038  -6.816  1.00  0.00    -0.266 OA
HETATM   19  C   UNL     1      40.506  -7.598  -5.128  1.00  0.00     0.046 A 
HETATM   20  C   UNL     1      41.426  -6.614  -5.514  1.00  0.00     0.018 A 
HETATM   21  C   UNL     1      40.765  -8.427  -4.038  1.00  0.00     0.011 A 
HETATM   22  C   UNL     1      42.606  -6.445  -4.792  1.00  0.00     0.001 A 
HETATM   23  C   UNL     1      42.855  -7.243  -3.675  1.00  0.00     0.001 A 
HETATM   24  C   UNL     1      41.934  -8.224  -3.292  1.00  0.00     0.015 A 
ENDBRANCH  10  13
ENDBRANCH   4   7
BRANCH   1  25
HETATM   25  N   UNL     1      42.421 -15.535   2.085  1.00  0.00    -0.377 N 
HETATM   26  H   UNL     1      43.107 -15.145   1.438  1.00  0.00     0.160 HD
BRANCH  25  27
HETATM   27  C   UNL     1      43.012 -16.220   3.146  1.00  0.00     0.031 A 
HETATM   28  C   UNL     1      43.220 -15.680   4.421  1.00  0.00     0.029 A 
HETATM   29  C   UNL     1      43.767 -16.448   5.454  1.00  0.00     0.005 A 
HETATM   30  C   UNL     1      44.064 -17.791   5.243  1.00  0.00     0.037 A 
HETATM   31  C   UNL     1      43.803 -18.370   4.004  1.00  0.00     0.077 A 
HETATM   32  C   UNL     1      43.307 -17.580   2.962  1.00  0.00     0.066 A 
BRANCH  31  33
HETATM   33  O   UNL     1      44.091 -19.703   3.904  1.00  0.00    -0.290 OA
BRANCH  33  34
HETATM   34  C   UNL     1      44.152 -20.383   5.149  1.00  0.00     0.505 C 
HETATM   35  F   UNL     1      43.200 -21.348   5.171  1.00  0.00    -0.184 F 
HETATM   36  F   UNL     1      45.350 -21.019   5.204  1.00  0.00    -0.184 F 
ENDBRANCH  33  34
ENDBRANCH  31  33
ENDBRANCH  25  27
ENDBRANCH   1  25
TORSDOF 6
ENDMDL
