MODEL 1
REMARK VINA RESULT:      -8.7      0.000      0.000
REMARK  6 active torsions:
REMARK  status: ('A' for Active; 'I' for Inactive)
REMARK    1  A    between atoms: C_2  and  N_3 
REMARK    2  A    between atoms: C_2  and  C_12 
REMARK       I    between atoms: N_3  and  C_4 
REMARK    3  A    between atoms: C_4  and  C_5 
REMARK    4  A    between atoms: C_12  and  C_13 
REMARK       I    between atoms: C_13  and  N_14 
REMARK    5  A    between atoms: N_14  and  C_15 
REMARK    6  A    between atoms: C_17  and  C_18 
ROOT
HETATM    1  C   UNL     1      43.354 -12.161   5.371  1.00  0.00     0.224 C 
HETATM    2  N   UNL     1      44.361 -12.313   6.305  1.00  0.00    -0.327 N 
HETATM    3  O   UNL     1      42.715 -11.138   5.145  1.00  0.00    -0.273 OA
HETATM    4  H   UNL     1      44.856 -13.197   6.306  1.00  0.00     0.169 HD
ENDROOT
BRANCH   1   5
HETATM    5  C   UNL     1      43.100 -13.407   4.550  1.00  0.00     0.128 C 
BRANCH   5   6
HETATM    6  C   UNL     1      42.925 -14.626   5.463  1.00  0.00     0.089 C 
HETATM    7  C   UNL     1      41.609 -14.583   6.242  1.00  0.00     0.032 C 
BRANCH   6   8
HETATM    8  N   UNL     1      43.067 -15.878   4.721  1.00  0.00    -0.352 N 
HETATM    9  C   UNL     1      43.955 -16.875   5.069  1.00  0.00     0.252 C 
HETATM   10  O   UNL     1      44.752 -16.777   5.995  1.00  0.00    -0.268 OA
HETATM   11  H   UNL     1      42.305 -16.115   4.098  1.00  0.00     0.163 HD
BRANCH   9  12
HETATM   12  C   UNL     1      43.857 -18.143   4.289  1.00  0.00     0.032 A 
HETATM   13  C   UNL     1      43.489 -18.159   2.937  1.00  0.00     0.017 A 
HETATM   14  C   UNL     1      43.385 -19.374   2.255  1.00  0.00     0.001 A 
HETATM   15  C   UNL     1      43.658 -20.572   2.916  1.00  0.00     0.000 A 
HETATM   16  C   UNL     1      44.044 -20.560   4.255  1.00  0.00     0.001 A 
HETATM   17  C   UNL     1      44.147 -19.347   4.940  1.00  0.00     0.017 A 
ENDBRANCH   9  12
ENDBRANCH   6   8
ENDBRANCH   5   6
ENDBRANCH   1   5
BRANCH   2  18
HETATM   18  C   UNL     1      44.792 -11.364   7.257  1.00  0.00     0.035 A 
HETATM   19  C   UNL     1      44.106 -11.080   8.443  1.00  0.00     0.042 A 
HETATM   20  C   UNL     1      44.600 -10.143   9.366  1.00  0.00    -0.021 A 
HETATM   21  C   UNL     1      45.798  -9.479   9.077  1.00  0.00     0.012 A 
HETATM   22  C   UNL     1      46.490  -9.751   7.895  1.00  0.00     0.003 A 
HETATM   23  C   UNL     1      45.992 -10.692   6.994  1.00  0.00     0.029 A 
BRANCH  20  24
HETATM   24  C   UNL     1      43.881  -9.898  10.609  1.00  0.00     0.010 A 
HETATM   25  C   UNL     1      43.506 -10.785  11.649  1.00  0.00     0.152 A 
HETATM   26  N   UNL     1      42.849 -10.175  12.639  1.00  0.00    -0.187 NA
HETATM   27  N   UNL     1      42.788  -8.898  12.233  1.00  0.00    -0.289 N 
HETATM   28  H   UNL     1      42.317  -8.227  12.831  1.00  0.00     0.188 HD
HETATM   29  C   UNL     1      43.391  -8.680  11.028  1.00  0.00     0.123 A 
ENDBRANCH  20  24
ENDBRANCH   2  18
TORSDOF 6
ENDMDL
MODEL 2
REMARK VINA RESULT:      -8.7      4.662      8.585
REMARK  6 active torsions:
REMARK  status: ('A' for Active; 'I' for Inactive)
REMARK    1  A    between atoms: C_2  and  N_3 
REMARK    2  A    between atoms: C_2  and  C_12 
REMARK       I    between atoms: N_3  and  C_4 
REMARK    3  A    between atoms: C_4  and  C_5 
REMARK    4  A    between atoms: C_12  and  C_13 
REMARK       I    between atoms: C_13  and  N_14 
REMARK    5  A    between atoms: N_14  and  C_15 
REMARK    6  A    between atoms: C_17  and  C_18 
ROOT
HETATM    1  C   UNL     1      40.560 -13.590   4.021  1.00  0.00     0.224 C 
HETATM    2  N   UNL     1      41.171 -13.924   2.827  1.00  0.00    -0.327 N 
HETATM    3  O   UNL     1      39.648 -12.784   4.175  1.00  0.00    -0.273 OA
HETATM    4  H   UNL     1      41.848 -14.678   2.853  1.00  0.00     0.169 HD
ENDROOT
BRANCH   1   5
HETATM    5  C   UNL     1      41.086 -14.372   5.206  1.00  0.00     0.128 C 
BRANCH   5   6
HETATM    6  C   UNL     1      42.562 -14.730   5.001  1.00  0.00     0.089 C 
HETATM    7  C   UNL     1      43.440 -14.257   6.162  1.00  0.00     0.032 C 
BRANCH   6   8
HETATM    8  N   UNL     1      42.737 -16.160   4.746  1.00  0.00    -0.352 N 
HETATM    9  C   UNL     1      43.191 -16.670   3.547  1.00  0.00     0.252 C 
HETATM   10  O   UNL     1      43.427 -15.978   2.564  1.00  0.00    -0.268 OA
HETATM   11  H   UNL     1      42.776 -16.756   5.563  1.00  0.00     0.163 HD
BRANCH   9  12
HETATM   12  C   UNL     1      43.452 -18.138   3.516  1.00  0.00     0.032 A 
HETATM   13  C   UNL     1      43.965 -18.827   4.624  1.00  0.00     0.017 A 
HETATM   14  C   UNL     1      44.218 -20.199   4.538  1.00  0.00     0.001 A 
HETATM   15  C   UNL     1      43.950 -20.887   3.355  1.00  0.00     0.000 A 
HETATM   16  C   UNL     1      43.420 -20.210   2.257  1.00  0.00     0.001 A 
HETATM   17  C   UNL     1      43.168 -18.839   2.339  1.00  0.00     0.017 A 
ENDBRANCH   9  12
ENDBRANCH   6   8
ENDBRANCH   5   6
ENDBRANCH   1   5
BRANCH   2  18
HETATM   18  C   UNL     1      40.950 -13.337   1.562  1.00  0.00     0.035 A 
HETATM   19  C   UNL     1      40.319 -13.989   0.498  1.00  0.00     0.042 A 
HETATM   20  C   UNL     1      40.102 -13.342  -0.730  1.00  0.00    -0.021 A 
HETATM   21  C   UNL     1      40.542 -12.022  -0.883  1.00  0.00     0.012 A 
HETATM   22  C   UNL     1      41.177 -11.361   0.170  1.00  0.00     0.003 A 
HETATM   23  C   UNL     1      41.374 -12.014   1.388  1.00  0.00     0.029 A 
BRANCH  20  24
HETATM   24  C   UNL     1      39.408 -14.037  -1.806  1.00  0.00     0.010 A 
HETATM   25  C   UNL     1      38.972 -13.575  -3.072  1.00  0.00     0.152 A 
HETATM   26  N   UNL     1      38.365 -14.524  -3.790  1.00  0.00    -0.187 NA
HETATM   27  N   UNL     1      38.398 -15.595  -2.983  1.00  0.00    -0.289 N 
HETATM   28  H   UNL     1      37.980 -16.458  -3.314  1.00  0.00     0.188 HD
HETATM   29  C   UNL     1      39.011 -15.357  -1.787  1.00  0.00     0.123 A 
ENDBRANCH  20  24
ENDBRANCH   2  18
TORSDOF 6
ENDMDL
MODEL 3
REMARK VINA RESULT:      -8.6      2.379      9.145
REMARK  6 active torsions:
REMARK  status: ('A' for Active; 'I' for Inactive)
REMARK    1  A    between atoms: C_2  and  N_3 
REMARK    2  A    between atoms: C_2  and  C_12 
REMARK       I    between atoms: N_3  and  C_4 
REMARK    3  A    between atoms: C_4  and  C_5 
REMARK    4  A    between atoms: C_12  and  C_13 
REMARK       I    between atoms: C_13  and  N_14 
REMARK    5  A    between atoms: N_14  and  C_15 
REMARK    6  A    between atoms: C_17  and  C_18 
ROOT
HETATM    1  C   UNL     1      40.890 -14.887   5.559  1.00  0.00     0.224 C 
HETATM    2  N   UNL     1      41.967 -14.676   4.718  1.00  0.00    -0.327 N 
HETATM    3  O   UNL     1      40.276 -15.940   5.709  1.00  0.00    -0.273 OA
HETATM    4  H   UNL     1      42.423 -13.774   4.777  1.00  0.00     0.169 HD
ENDROOT
BRANCH   1   5
HETATM    5  C   UNL     1      40.518 -13.671   6.379  1.00  0.00     0.128 C 
BRANCH   5   6
HETATM    6  C   UNL     1      41.051 -12.394   5.719  1.00  0.00     0.089 C 
HETATM    7  C   UNL     1      39.925 -11.473   5.244  1.00  0.00     0.032 C 
BRANCH   6   8
HETATM    8  N   UNL     1      41.986 -11.689   6.595  1.00  0.00    -0.352 N 
HETATM    9  C   UNL     1      43.353 -11.875   6.559  1.00  0.00     0.252 C 
HETATM   10  O   UNL     1      43.904 -12.696   5.835  1.00  0.00    -0.268 OA
HETATM   11  H   UNL     1      41.631 -10.856   7.046  1.00  0.00     0.163 HD
BRANCH   9  12
HETATM   12  C   UNL     1      44.162 -10.962   7.417  1.00  0.00     0.032 A 
HETATM   13  C   UNL     1      43.600 -10.252   8.486  1.00  0.00     0.017 A 
HETATM   14  C   UNL     1      44.394  -9.387   9.245  1.00  0.00     0.001 A 
HETATM   15  C   UNL     1      45.748  -9.238   8.948  1.00  0.00     0.000 A 
HETATM   16  C   UNL     1      46.317  -9.959   7.898  1.00  0.00     0.001 A 
HETATM   17  C   UNL     1      45.526 -10.822   7.136  1.00  0.00     0.017 A 
ENDBRANCH   9  12
ENDBRANCH   6   8
ENDBRANCH   5   6
ENDBRANCH   1   5
BRANCH   2  18
HETATM   18  C   UNL     1      42.515 -15.586   3.788  1.00  0.00     0.035 A 
HETATM   19  C   UNL     1      42.872 -16.902   4.101  1.00  0.00     0.042 A 
HETATM   20  C   UNL     1      43.388 -17.770   3.124  1.00  0.00    -0.021 A 
HETATM   21  C   UNL     1      43.554 -17.293   1.818  1.00  0.00     0.012 A 
HETATM   22  C   UNL     1      43.205 -15.980   1.495  1.00  0.00     0.003 A 
HETATM   23  C   UNL     1      42.683 -15.134   2.474  1.00  0.00     0.029 A 
BRANCH  20  24
HETATM   24  C   UNL     1      43.715 -19.146   3.473  1.00  0.00     0.010 A 
HETATM   25  C   UNL     1      43.650 -20.334   2.704  1.00  0.00     0.152 A 
HETATM   26  N   UNL     1      44.040 -21.415   3.384  1.00  0.00    -0.187 NA
HETATM   27  N   UNL     1      44.343 -20.928   4.596  1.00  0.00    -0.289 N 
HETATM   28  H   UNL     1      44.665 -21.577   5.307  1.00  0.00     0.188 HD
HETATM   29  C   UNL     1      44.169 -19.578   4.701  1.00  0.00     0.123 A 
ENDBRANCH  20  24
ENDBRANCH   2  18
TORSDOF 6
ENDMDL
MODEL 4
REMARK VINA RESULT:      -8.4      4.863      9.606
REMARK  6 active torsions:
REMARK  status: ('A' for Active; 'I' for Inactive)
REMARK    1  A    between atoms: C_2  and  N_3 
REMARK    2  A    between atoms: C_2  and  C_12 
REMARK       I    between atoms: N_3  and  C_4 
REMARK    3  A    between atoms: C_4  and  C_5 
REMARK    4  A    between atoms: C_12  and  C_13 
REMARK       I    between atoms: C_13  and  N_14 
REMARK    5  A    between atoms: N_14  and  C_15 
REMARK    6  A    between atoms: C_17  and  C_18 
ROOT
HETATM    1  C   UNL     1      42.666 -16.346   1.958  1.00  0.00     0.224 C 
HETATM    2  N   UNL     1      41.315 -16.053   1.932  1.00  0.00    -0.327 N 
HETATM    3  O   UNL     1      43.575 -15.646   1.522  1.00  0.00    -0.273 OA
HETATM    4  H   UNL     1      40.698 -16.693   2.418  1.00  0.00     0.169 HD
ENDROOT
BRANCH   1   5
HETATM    5  C   UNL     1      42.986 -17.654   2.651  1.00  0.00     0.128 C 
BRANCH   5   6
HETATM    6  C   UNL     1      43.211 -17.426   4.150  1.00  0.00     0.089 C 
HETATM    7  C   UNL     1      44.290 -18.349   4.721  1.00  0.00     0.032 C 
BRANCH   6   8
HETATM    8  N   UNL     1      43.499 -16.022   4.442  1.00  0.00    -0.352 N 
HETATM    9  C   UNL     1      42.685 -15.223   5.219  1.00  0.00     0.252 C 
HETATM   10  O   UNL     1      41.614 -15.597   5.682  1.00  0.00    -0.268 OA
HETATM   11  H   UNL     1      44.452 -15.721   4.285  1.00  0.00     0.163 HD
BRANCH   9  12
HETATM   12  C   UNL     1      43.211 -13.863   5.536  1.00  0.00     0.032 A 
HETATM   13  C   UNL     1      43.705 -13.532   6.805  1.00  0.00     0.017 A 
HETATM   14  C   UNL     1      44.163 -12.237   7.061  1.00  0.00     0.001 A 
HETATM   15  C   UNL     1      44.140 -11.275   6.051  1.00  0.00     0.000 A 
HETATM   16  C   UNL     1      43.669 -11.605   4.781  1.00  0.00     0.001 A 
HETATM   17  C   UNL     1      43.209 -12.898   4.523  1.00  0.00     0.017 A 
ENDBRANCH   9  12
ENDBRANCH   6   8
ENDBRANCH   5   6
ENDBRANCH   1   5
BRANCH   2  18
HETATM   18  C   UNL     1      40.694 -14.948   1.312  1.00  0.00     0.035 A 
HETATM   19  C   UNL     1      40.083 -15.000   0.055  1.00  0.00     0.042 A 
HETATM   20  C   UNL     1      39.455 -13.871  -0.499  1.00  0.00    -0.021 A 
HETATM   21  C   UNL     1      39.458 -12.674   0.226  1.00  0.00     0.012 A 
HETATM   22  C   UNL     1      40.069 -12.609   1.480  1.00  0.00     0.003 A 
HETATM   23  C   UNL     1      40.677 -13.742   2.021  1.00  0.00     0.029 A 
BRANCH  20  24
HETATM   24  C   UNL     1      38.795 -13.968  -1.794  1.00  0.00     0.010 A 
HETATM   25  C   UNL     1      39.019 -14.849  -2.881  1.00  0.00     0.152 A 
HETATM   26  N   UNL     1      38.197 -14.623  -3.910  1.00  0.00    -0.187 NA
HETATM   27  N   UNL     1      37.452 -13.590  -3.493  1.00  0.00    -0.289 N 
HETATM   28  H   UNL     1      36.744 -13.225  -4.122  1.00  0.00     0.188 HD
HETATM   29  C   UNL     1      37.767 -13.162  -2.235  1.00  0.00     0.123 A 
ENDBRANCH  20  24
ENDBRANCH   2  18
TORSDOF 6
ENDMDL
MODEL 5
REMARK VINA RESULT:      -8.3      4.730      8.364
REMARK  6 active torsions:
REMARK  status: ('A' for Active; 'I' for Inactive)
REMARK    1  A    between atoms: C_2  and  N_3 
REMARK    2  A    between atoms: C_2  and  C_12 
REMARK       I    between atoms: N_3  and  C_4 
REMARK    3  A    between atoms: C_4  and  C_5 
REMARK    4  A    between atoms: C_12  and  C_13 
REMARK       I    between atoms: C_13  and  N_14 
REMARK    5  A    between atoms: N_14  and  C_15 
REMARK    6  A    between atoms: C_17  and  C_18 
ROOT
HETATM    1  C   UNL     1      42.727 -13.637   3.184  1.00  0.00     0.224 C 
HETATM    2  N   UNL     1      41.436 -13.356   2.777  1.00  0.00    -0.327 N 
HETATM    3  O   UNL     1      43.630 -14.092   2.488  1.00  0.00    -0.273 OA
HETATM    4  H   UNL     1      40.834 -12.896   3.449  1.00  0.00     0.169 HD
ENDROOT
BRANCH   1   5
HETATM    5  C   UNL     1      42.995 -13.277   4.629  1.00  0.00     0.128 C 
BRANCH   5   6
HETATM    6  C   UNL     1      42.970 -14.531   5.509  1.00  0.00     0.089 C 
HETATM    7  C   UNL     1      41.735 -14.581   6.411  1.00  0.00     0.032 C 
BRANCH   6   8
HETATM    8  N   UNL     1      43.099 -15.749   4.711  1.00  0.00    -0.352 N 
HETATM    9  C   UNL     1      43.834 -16.848   5.108  1.00  0.00     0.252 C 
HETATM   10  O   UNL     1      44.500 -16.878   6.136  1.00  0.00    -0.268 OA
HETATM   11  H   UNL     1      42.413 -15.876   3.977  1.00  0.00     0.163 HD
BRANCH   9  12
HETATM   12  C   UNL     1      43.730 -18.056   4.239  1.00  0.00     0.032 A 
HETATM   13  C   UNL     1      44.126 -19.326   4.680  1.00  0.00     0.017 A 
HETATM   14  C   UNL     1      44.034 -20.424   3.820  1.00  0.00     0.001 A 
HETATM   15  C   UNL     1      43.538 -20.260   2.526  1.00  0.00     0.000 A 
HETATM   16  C   UNL     1      43.123 -19.002   2.091  1.00  0.00     0.001 A 
HETATM   17  C   UNL     1      43.215 -17.902   2.947  1.00  0.00     0.017 A 
ENDBRANCH   9  12
ENDBRANCH   6   8
ENDBRANCH   5   6
ENDBRANCH   1   5
BRANCH   2  18
HETATM   18  C   UNL     1      40.860 -13.629   1.517  1.00  0.00     0.035 A 
HETATM   19  C   UNL     1      40.799 -12.703   0.470  1.00  0.00     0.042 A 
HETATM   20  C   UNL     1      40.237 -13.043  -0.772  1.00  0.00    -0.021 A 
HETATM   21  C   UNL     1      39.722 -14.332  -0.949  1.00  0.00     0.012 A 
HETATM   22  C   UNL     1      39.774 -15.263   0.090  1.00  0.00     0.003 A 
HETATM   23  C   UNL     1      40.346 -14.914   1.314  1.00  0.00     0.029 A 
BRANCH  20  24
HETATM   24  C   UNL     1      40.222 -12.068  -1.855  1.00  0.00     0.010 A 
HETATM   25  C   UNL     1      41.148 -11.837  -2.901  1.00  0.00     0.152 A 
HETATM   26  N   UNL     1      40.779 -10.840  -3.710  1.00  0.00    -0.187 NA
HETATM   27  N   UNL     1      39.623 -10.418  -3.178  1.00  0.00    -0.289 N 
HETATM   28  H   UNL     1      39.143  -9.643  -3.626  1.00  0.00     0.188 HD
HETATM   29  C   UNL     1      39.244 -11.120  -2.070  1.00  0.00     0.123 A 
ENDBRANCH  20  24
ENDBRANCH   2  18
TORSDOF 6
ENDMDL
MODEL 6
REMARK VINA RESULT:      -8.2      1.466      1.777
REMARK  6 active torsions:
REMARK  status: ('A' for Active; 'I' for Inactive)
REMARK    1  A    between atoms: C_2  and  N_3 
REMARK    2  A    between atoms: C_2  and  C_12 
REMARK       I    between atoms: N_3  and  C_4 
REMARK    3  A    between atoms: C_4  and  C_5 
REMARK    4  A    between atoms: C_12  and  C_13 
REMARK       I    between atoms: C_13  and  N_14 
REMARK    5  A    between atoms: N_14  and  C_15 
REMARK    6  A    between atoms: C_17  and  C_18 
ROOT
HETATM    1  C   UNL     1      42.703 -11.084   4.484  1.00  0.00     0.224 C 
HETATM    2  N   UNL     1      43.622 -11.714   5.302  1.00  0.00    -0.327 N 
HETATM    3  O   UNL     1      42.342  -9.913   4.556  1.00  0.00    -0.273 OA
HETATM    4  H   UNL     1      43.883 -12.661   5.055  1.00  0.00     0.169 HD
ENDROOT
BRANCH   1   5
HETATM    5  C   UNL     1      42.168 -11.974   3.383  1.00  0.00     0.128 C 
BRANCH   5   6
HETATM    6  C   UNL     1      41.359 -13.134   3.975  1.00  0.00     0.089 C 
HETATM    7  C   UNL     1      39.873 -13.045   3.621  1.00  0.00     0.032 C 
BRANCH   6   8
HETATM    8  N   UNL     1      41.922 -14.429   3.597  1.00  0.00    -0.352 N 
HETATM    9  C   UNL     1      42.831 -15.121   4.372  1.00  0.00     0.252 C 
HETATM   10  O   UNL     1      43.298 -14.684   5.417  1.00  0.00    -0.268 OA
HETATM   11  H   UNL     1      41.425 -14.938   2.877  1.00  0.00     0.163 HD
BRANCH   9  12
HETATM   12  C   UNL     1      43.182 -16.493   3.903  1.00  0.00     0.032 A 
HETATM   13  C   UNL     1      42.728 -17.001   2.678  1.00  0.00     0.017 A 
HETATM   14  C   UNL     1      43.061 -18.303   2.294  1.00  0.00     0.001 A 
HETATM   15  C   UNL     1      43.856 -19.094   3.123  1.00  0.00     0.000 A 
HETATM   16  C   UNL     1      44.327 -18.586   4.333  1.00  0.00     0.001 A 
HETATM   17  C   UNL     1      43.994 -17.286   4.720  1.00  0.00     0.017 A 
ENDBRANCH   9  12
ENDBRANCH   6   8
ENDBRANCH   5   6
ENDBRANCH   1   5
BRANCH   2  18
HETATM   18  C   UNL     1      44.254 -11.179   6.446  1.00  0.00     0.035 A 
HETATM   19  C   UNL     1      43.565 -10.673   7.553  1.00  0.00     0.042 A 
HETATM   20  C   UNL     1      44.251 -10.178   8.676  1.00  0.00    -0.021 A 
HETATM   21  C   UNL     1      45.651 -10.188   8.669  1.00  0.00     0.012 A 
HETATM   22  C   UNL     1      46.349 -10.686   7.568  1.00  0.00     0.003 A 
HETATM   23  C   UNL     1      45.653 -11.185   6.466  1.00  0.00     0.029 A 
BRANCH  20  24
HETATM   24  C   UNL     1      43.504  -9.693   9.828  1.00  0.00     0.010 A 
HETATM   25  C   UNL     1      42.151  -9.292   9.950  1.00  0.00     0.152 A 
HETATM   26  N   UNL     1      41.833  -8.905  11.188  1.00  0.00    -0.187 NA
HETATM   27  N   UNL     1      42.984  -9.042  11.863  1.00  0.00    -0.289 N 
HETATM   28  H   UNL     1      42.994  -8.795  12.847  1.00  0.00     0.188 HD
HETATM   29  C   UNL     1      44.012  -9.511  11.098  1.00  0.00     0.123 A 
ENDBRANCH  20  24
ENDBRANCH   2  18
TORSDOF 6
ENDMDL
MODEL 7
REMARK VINA RESULT:      -8.1      4.868      8.360
REMARK  6 active torsions:
REMARK  status: ('A' for Active; 'I' for Inactive)
REMARK    1  A    between atoms: C_2  and  N_3 
REMARK    2  A    between atoms: C_2  and  C_12 
REMARK       I    between atoms: N_3  and  C_4 
REMARK    3  A    between atoms: C_4  and  C_5 
REMARK    4  A    between atoms: C_12  and  C_13 
REMARK       I    between atoms: C_13  and  N_14 
REMARK    5  A    between atoms: N_14  and  C_15 
REMARK    6  A    between atoms: C_17  and  C_18 
ROOT
HETATM    1  C   UNL     1      41.800 -13.677   3.172  1.00  0.00     0.224 C 
HETATM    2  N   UNL     1      41.197 -12.456   2.933  1.00  0.00    -0.327 N 
HETATM    3  O   UNL     1      41.552 -14.737   2.606  1.00  0.00    -0.273 OA
HETATM    4  H   UNL     1      41.580 -11.654   3.420  1.00  0.00     0.169 HD
ENDROOT
BRANCH   1   5
HETATM    5  C   UNL     1      42.898 -13.614   4.212  1.00  0.00     0.128 C 
BRANCH   5   6
HETATM    6  C   UNL     1      42.747 -14.756   5.223  1.00  0.00     0.089 C 
HETATM    7  C   UNL     1      41.408 -14.704   5.961  1.00  0.00     0.032 C 
BRANCH   6   8
HETATM    8  N   UNL     1      42.962 -16.060   4.595  1.00  0.00    -0.352 N 
HETATM    9  C   UNL     1      43.879 -16.984   5.052  1.00  0.00     0.252 C 
HETATM   10  O   UNL     1      44.644 -16.772   5.986  1.00  0.00    -0.268 OA
HETATM   11  H   UNL     1      42.229 -16.382   3.977  1.00  0.00     0.163 HD
BRANCH   9  12
HETATM   12  C   UNL     1      43.856 -18.317   4.383  1.00  0.00     0.032 A 
HETATM   13  C   UNL     1      43.613 -18.457   3.010  1.00  0.00     0.017 A 
HETATM   14  C   UNL     1      43.575 -19.730   2.433  1.00  0.00     0.001 A 
HETATM   15  C   UNL     1      43.790 -20.861   3.220  1.00  0.00     0.000 A 
HETATM   16  C   UNL     1      44.052 -20.725   4.583  1.00  0.00     0.001 A 
HETATM   17  C   UNL     1      44.089 -19.455   5.163  1.00  0.00     0.017 A 
ENDBRANCH   9  12
ENDBRANCH   6   8
ENDBRANCH   5   6
ENDBRANCH   1   5
BRANCH   2  18
HETATM   18  C   UNL     1      40.109 -12.195   2.073  1.00  0.00     0.035 A 
HETATM   19  C   UNL     1      40.039 -12.635   0.747  1.00  0.00     0.042 A 
HETATM   20  C   UNL     1      38.915 -12.368  -0.053  1.00  0.00    -0.021 A 
HETATM   21  C   UNL     1      37.856 -11.635   0.496  1.00  0.00     0.012 A 
HETATM   22  C   UNL     1      37.916 -11.187   1.817  1.00  0.00     0.003 A 
HETATM   23  C   UNL     1      39.034 -11.471   2.602  1.00  0.00     0.029 A 
BRANCH  20  24
HETATM   24  C   UNL     1      38.857 -12.872  -1.418  1.00  0.00     0.010 A 
HETATM   25  C   UNL     1      39.884 -13.345  -2.272  1.00  0.00     0.152 A 
HETATM   26  N   UNL     1      39.429 -13.729  -3.468  1.00  0.00    -0.187 NA
HETATM   27  N   UNL     1      38.111 -13.492  -3.391  1.00  0.00    -0.289 N 
HETATM   28  H   UNL     1      37.538 -13.702  -4.202  1.00  0.00     0.188 HD
HETATM   29  C   UNL     1      37.718 -12.982  -2.187  1.00  0.00     0.123 A 
ENDBRANCH  20  24
ENDBRANCH   2  18
TORSDOF 6
ENDMDL
MODEL 8
REMARK VINA RESULT:      -8.0      2.251      9.981
REMARK  6 active torsions:
REMARK  status: ('A' for Active; 'I' for Inactive)
REMARK    1  A    between atoms: C_2  and  N_3 
REMARK    2  A    between atoms: C_2  and  C_12 
REMARK       I    between atoms: N_3  and  C_4 
REMARK    3  A    between atoms: C_4  and  C_5 
REMARK    4  A    between atoms: C_12  and  C_13 
REMARK       I    between atoms: C_13  and  N_14 
REMARK    5  A    between atoms: N_14  and  C_15 
REMARK    6  A    between atoms: C_17  and  C_18 
ROOT
HETATM    1  C   UNL     1      43.854 -12.242   6.799  1.00  0.00     0.224 C 
HETATM    2  N   UNL     1      43.276 -12.689   5.625  1.00  0.00    -0.327 N 
HETATM    3  O   UNL     1      43.930 -12.859   7.857  1.00  0.00    -0.273 OA
HETATM    4  H   UNL     1      43.376 -12.096   4.810  1.00  0.00     0.169 HD
ENDROOT
BRANCH   1   5
HETATM    5  C   UNL     1      44.476 -10.868   6.678  1.00  0.00     0.128 C 
BRANCH   5   6
HETATM    6  C   UNL     1      45.244 -10.512   7.956  1.00  0.00     0.089 C 
HETATM    7  C   UNL     1      46.636  -9.949   7.658  1.00  0.00     0.032 C 
BRANCH   6   8
HETATM    8  N   UNL     1      44.474  -9.610   8.812  1.00  0.00    -0.352 N 
HETATM    9  C   UNL     1      44.335  -9.785  10.174  1.00  0.00     0.252 C 
HETATM   10  O   UNL     1      44.790 -10.747  10.781  1.00  0.00    -0.268 OA
HETATM   11  H   UNL     1      44.266  -8.699   8.425  1.00  0.00     0.163 HD
BRANCH   9  12
HETATM   12  C   UNL     1      43.642  -8.687  10.908  1.00  0.00     0.032 A 
HETATM   13  C   UNL     1      43.497  -8.699  12.302  1.00  0.00     0.017 A 
HETATM   14  C   UNL     1      42.817  -7.660  12.943  1.00  0.00     0.001 A 
HETATM   15  C   UNL     1      42.291  -6.604  12.198  1.00  0.00     0.000 A 
HETATM   16  C   UNL     1      42.451  -6.577  10.814  1.00  0.00     0.001 A 
HETATM   17  C   UNL     1      43.129  -7.615  10.170  1.00  0.00     0.017 A 
ENDBRANCH   9  12
ENDBRANCH   6   8
ENDBRANCH   5   6
ENDBRANCH   1   5
BRANCH   2  18
HETATM   18  C   UNL     1      42.566 -13.894   5.429  1.00  0.00     0.035 A 
HETATM   19  C   UNL     1      43.050 -14.971   4.678  1.00  0.00     0.042 A 
HETATM   20  C   UNL     1      42.308 -16.157   4.541  1.00  0.00    -0.021 A 
HETATM   21  C   UNL     1      41.057 -16.245   5.163  1.00  0.00     0.012 A 
HETATM   22  C   UNL     1      40.562 -15.175   5.912  1.00  0.00     0.003 A 
HETATM   23  C   UNL     1      41.316 -14.009   6.048  1.00  0.00     0.029 A 
BRANCH  20  24
HETATM   24  C   UNL     1      42.856 -17.274   3.784  1.00  0.00     0.010 A 
HETATM   25  C   UNL     1      42.527 -17.766   2.497  1.00  0.00     0.152 A 
HETATM   26  N   UNL     1      43.263 -18.823   2.142  1.00  0.00    -0.187 NA
HETATM   27  N   UNL     1      44.057 -19.022   3.204  1.00  0.00    -0.289 N 
HETATM   28  H   UNL     1      44.715 -19.793   3.173  1.00  0.00     0.188 HD
HETATM   29  C   UNL     1      43.855 -18.122   4.212  1.00  0.00     0.123 A 
ENDBRANCH  20  24
ENDBRANCH   2  18
TORSDOF 6
ENDMDL
MODEL 9
REMARK VINA RESULT:      -7.9     16.835     18.873
REMARK  6 active torsions:
REMARK  status: ('A' for Active; 'I' for Inactive)
REMARK    1  A    between atoms: C_2  and  N_3 
REMARK    2  A    between atoms: C_2  and  C_12 
REMARK       I    between atoms: N_3  and  C_4 
REMARK    3  A    between atoms: C_4  and  C_5 
REMARK    4  A    between atoms: C_12  and  C_13 
REMARK       I    between atoms: C_13  and  N_14 
REMARK    5  A    between atoms: N_14  and  C_15 
REMARK    6  A    between atoms: C_17  and  C_18 
ROOT
HETATM    1  C   UNL     1      45.837 -28.994   2.529  1.00  0.00     0.224 C 
HETATM    2  N   UNL     1      46.616 -30.018   3.033  1.00  0.00    -0.327 N 
HETATM    3  O   UNL     1      46.217 -28.070   1.815  1.00  0.00    -0.273 OA
HETATM    4  H   UNL     1      46.134 -30.757   3.531  1.00  0.00     0.169 HD
ENDROOT
BRANCH   1   5
HETATM    5  C   UNL     1      44.373 -29.114   2.893  1.00  0.00     0.128 C 
BRANCH   5   6
HETATM    6  C   UNL     1      43.611 -29.884   1.808  1.00  0.00     0.089 C 
HETATM    7  C   UNL     1      42.094 -29.800   1.994  1.00  0.00     0.032 C 
BRANCH   6   8
HETATM    8  N   UNL     1      44.009 -29.457   0.467  1.00  0.00    -0.352 N 
HETATM    9  C   UNL     1      44.115 -30.317  -0.607  1.00  0.00     0.252 C 
HETATM   10  O   UNL     1      43.948 -31.528  -0.521  1.00  0.00    -0.268 OA
HETATM   11  H   UNL     1      43.945 -28.465   0.278  1.00  0.00     0.163 HD
BRANCH   9  12
HETATM   12  C   UNL     1      44.386 -29.684  -1.930  1.00  0.00     0.032 A 
HETATM   13  C   UNL     1      44.026 -30.298  -3.138  1.00  0.00     0.017 A 
HETATM   14  C   UNL     1      44.325 -29.677  -4.354  1.00  0.00     0.001 A 
HETATM   15  C   UNL     1      44.971 -28.441  -4.368  1.00  0.00     0.000 A 
HETATM   16  C   UNL     1      45.312 -27.816  -3.169  1.00  0.00     0.001 A 
HETATM   17  C   UNL     1      45.017 -28.435  -1.952  1.00  0.00     0.017 A 
ENDBRANCH   9  12
ENDBRANCH   6   8
ENDBRANCH   5   6
ENDBRANCH   1   5
BRANCH   2  18
HETATM   18  C   UNL     1      48.016 -30.159   2.923  1.00  0.00     0.035 A 
HETATM   19  C   UNL     1      48.680 -30.441   1.725  1.00  0.00     0.042 A 
HETATM   20  C   UNL     1      50.081 -30.542   1.673  1.00  0.00    -0.021 A 
HETATM   21  C   UNL     1      50.813 -30.367   2.853  1.00  0.00     0.012 A 
HETATM   22  C   UNL     1      50.161 -30.090   4.056  1.00  0.00     0.003 A 
HETATM   23  C   UNL     1      48.771 -29.980   4.088  1.00  0.00     0.029 A 
BRANCH  20  24
HETATM   24  C   UNL     1      50.745 -30.799   0.402  1.00  0.00     0.010 A 
HETATM   25  C   UNL     1      50.653 -30.125  -0.840  1.00  0.00     0.152 A 
HETATM   26  N   UNL     1      51.429 -30.666  -1.784  1.00  0.00    -0.187 NA
HETATM   27  N   UNL     1      52.011 -31.698  -1.155  1.00  0.00    -0.289 N 
HETATM   28  H   UNL     1      52.654 -32.280  -1.682  1.00  0.00     0.188 HD
HETATM   29  C   UNL     1      51.638 -31.820   0.153  1.00  0.00     0.123 A 
ENDBRANCH  20  24
ENDBRANCH   2  18
TORSDOF 6
ENDMDL
MODEL 10
REMARK VINA RESULT:      -7.8      2.717      9.261
REMARK  6 active torsions:
REMARK  status: ('A' for Active; 'I' for Inactive)
REMARK    1  A    between atoms: C_2  and  N_3 
REMARK    2  A    between atoms: C_2  and  C_12 
REMARK       I    between atoms: N_3  and  C_4 
REMARK    3  A    between atoms: C_4  and  C_5 
REMARK    4  A    between atoms: C_12  and  C_13 
REMARK       I    between atoms: C_13  and  N_14 
REMARK    5  A    between atoms: N_14  and  C_15 
REMARK    6  A    between atoms: C_17  and  C_18 
ROOT
HETATM    1  C   UNL     1      39.870 -13.068   5.743  1.00  0.00     0.224 C 
HETATM    2  N   UNL     1      40.286 -13.075   4.425  1.00  0.00    -0.327 N 
HETATM    3  O   UNL     1      39.778 -14.042   6.485  1.00  0.00    -0.273 OA
HETATM    4  H   UNL     1      40.397 -12.174   3.975  1.00  0.00     0.169 HD
ENDROOT
BRANCH   1   5
HETATM    5  C   UNL     1      39.561 -11.684   6.271  1.00  0.00     0.128 C 
BRANCH   5   6
HETATM    6  C   UNL     1      40.744 -10.740   6.027  1.00  0.00     0.089 C 
HETATM    7  C   UNL     1      40.317  -9.440   5.341  1.00  0.00     0.032 C 
BRANCH   6   8
HETATM    8  N   UNL     1      41.482 -10.475   7.262  1.00  0.00    -0.352 N 
HETATM    9  C   UNL     1      42.860 -10.433   7.332  1.00  0.00     0.252 C 
HETATM   10  O   UNL     1      43.593 -10.678   6.381  1.00  0.00    -0.268 OA
HETATM   11  H   UNL     1      40.954 -10.054   8.015  1.00  0.00     0.163 HD
BRANCH   9  12
HETATM   12  C   UNL     1      43.437 -10.001   8.638  1.00  0.00     0.032 A 
HETATM   13  C   UNL     1      44.762 -10.284   8.998  1.00  0.00     0.017 A 
HETATM   14  C   UNL     1      45.249  -9.881  10.244  1.00  0.00     0.001 A 
HETATM   15  C   UNL     1      44.422  -9.186  11.127  1.00  0.00     0.000 A 
HETATM   16  C   UNL     1      43.110  -8.884  10.765  1.00  0.00     0.001 A 
HETATM   17  C   UNL     1      42.619  -9.287   9.521  1.00  0.00     0.017 A 
ENDBRANCH   9  12
ENDBRANCH   6   8
ENDBRANCH   5   6
ENDBRANCH   1   5
BRANCH   2  18
HETATM   18  C   UNL     1      40.588 -14.203   3.631  1.00  0.00     0.035 A 
HETATM   19  C   UNL     1      41.612 -15.111   3.922  1.00  0.00     0.042 A 
HETATM   20  C   UNL     1      41.847 -16.232   3.108  1.00  0.00    -0.021 A 
HETATM   21  C   UNL     1      41.041 -16.426   1.980  1.00  0.00     0.012 A 
HETATM   22  C   UNL     1      40.019 -15.525   1.677  1.00  0.00     0.003 A 
HETATM   23  C   UNL     1      39.791 -14.423   2.503  1.00  0.00     0.029 A 
BRANCH  20  24
HETATM   24  C   UNL     1      42.896 -17.178   3.459  1.00  0.00     0.010 A 
HETATM   25  C   UNL     1      43.394 -18.306   2.760  1.00  0.00     0.152 A 
HETATM   26  N   UNL     1      44.375 -18.932   3.416  1.00  0.00    -0.187 NA
HETATM   27  N   UNL     1      44.501 -18.218   4.544  1.00  0.00    -0.289 N 
HETATM   28  H   UNL     1      45.197 -18.512   5.222  1.00  0.00     0.188 HD
HETATM   29  C   UNL     1      43.643 -17.159   4.618  1.00  0.00     0.123 A 
ENDBRANCH  20  24
ENDBRANCH   2  18
TORSDOF 6
ENDMDL
