MODEL 1
REMARK VINA RESULT:      -9.1      0.000      0.000
REMARK  8 active torsions:
REMARK  status: ('A' for Active; 'I' for Inactive)
REMARK    1  A    between atoms: C_2  and  N_3 
REMARK    2  A    between atoms: C_2  and  C_36 
REMARK       I    between atoms: N_3  and  C_4 
REMARK    3  A    between atoms: C_4  and  C_5 
REMARK    4  A    between atoms: C_5  and  N_6 
REMARK       I    between atoms: N_12  and  C_13 
REMARK    5  A    between atoms: C_13  and  C_14 
REMARK    6  A    between atoms: C_15  and  O_16 
REMARK    7  A    between atoms: C_21  and  O_22 
REMARK    8  A    between atoms: N_27  and  C_28 
ROOT
HETATM    1  N   UNL     1      40.127  -9.296   8.187  1.00  0.00    -0.325 N 
HETATM    2  C   UNL     1      40.010  -9.545   6.836  1.00  0.00     0.250 C 
HETATM    3  O   UNL     1      38.979  -9.453   6.187  1.00  0.00    -0.270 OA
HETATM    4  C   UNL     1      41.368 -10.093   6.357  1.00  0.00     0.118 C 
HETATM    5  C   UNL     1      41.756  -9.418   5.030  1.00  0.00     0.061 C 
HETATM    6  C   UNL     1      41.115 -10.082   3.816  1.00  0.00     0.129 C 
HETATM    7  N   UNL     1      41.187 -11.533   3.900  1.00  0.00    -0.348 N 
HETATM    8  C   UNL     1      42.178 -12.213   3.182  1.00  0.00     0.259 C 
HETATM    9  O   UNL     1      43.076 -11.643   2.568  1.00  0.00    -0.267 OA
HETATM   10  C   UNL     1      40.485 -12.092   5.045  1.00  0.00     0.129 C 
HETATM   11  C   UNL     1      41.178 -11.629   6.324  1.00  0.00     0.061 C 
HETATM   12  N   UNL     1      42.261  -9.689   7.485  1.00  0.00    -0.346 N 
HETATM   13  C   UNL     1      41.479  -9.324   8.658  1.00  0.00     0.254 C 
ENDROOT
BRANCH  12  14
HETATM   14  C   UNL     1      43.627  -9.890   7.587  1.00  0.00     0.032 A 
HETATM   15  C   UNL     1      44.291 -10.985   7.007  1.00  0.00     0.029 A 
HETATM   16  C   UNL     1      45.679 -11.164   7.101  1.00  0.00     0.002 A 
HETATM   17  C   UNL     1      46.458 -10.240   7.781  1.00  0.00     0.000 A 
HETATM   18  C   UNL     1      45.845  -9.142   8.366  1.00  0.00     0.002 A 
HETATM   19  C   UNL     1      44.455  -8.976   8.267  1.00  0.00     0.029 A 
ENDBRANCH  12  14
BRANCH   1  20
HETATM   20  C   UNL     1      39.007  -9.177   9.102  1.00  0.00     0.230 C 
BRANCH  20  21
HETATM   21  C   UNL     1      39.342  -9.314  10.585  1.00  0.00     0.236 C 
HETATM   22  N   UNL     1      39.414  -8.121  11.268  1.00  0.00    -0.351 N 
HETATM   23  H   UNL     1      39.087  -7.312  10.752  1.00  0.00     0.163 HD
HETATM   24  O   UNL     1      39.408 -10.421  11.113  1.00  0.00    -0.272 OA
BRANCH  22  25
HETATM   25  C   UNL     1      39.352  -8.004  12.720  1.00  0.00     0.113 C 
HETATM   26  C   UNL     1      38.263  -7.069  13.252  1.00  0.00     0.037 C 
BRANCH  25  27
HETATM   27  C   UNL     1      40.736  -7.730  13.287  1.00  0.00    -0.036 A 
HETATM   28  C   UNL     1      41.877  -8.125  12.568  1.00  0.00     0.009 A 
HETATM   29  C   UNL     1      43.157  -7.848  13.049  1.00  0.00     0.001 A 
HETATM   30  C   UNL     1      43.319  -7.165  14.252  1.00  0.00     0.000 A 
HETATM   31  C   UNL     1      42.200  -6.758  14.973  1.00  0.00     0.001 A 
HETATM   32  C   UNL     1      40.918  -7.037  14.495  1.00  0.00     0.009 A 
ENDBRANCH  25  27
ENDBRANCH  22  25
ENDBRANCH  20  21
ENDBRANCH   1  20
BRANCH   8  33
HETATM   33  C   UNL     1      42.062 -13.686   3.057  1.00  0.00     0.098 A 
HETATM   34  C   UNL     1      41.327 -14.200   1.976  1.00  0.00     0.086 A 
HETATM   35  C   UNL     1      41.186 -15.579   1.813  1.00  0.00     0.038 A 
HETATM   36  C   UNL     1      41.752 -16.446   2.742  1.00  0.00     0.005 A 
HETATM   37  C   UNL     1      42.494 -15.941   3.814  1.00  0.00     0.038 A 
HETATM   38  C   UNL     1      42.670 -14.559   3.975  1.00  0.00     0.086 A 
BRANCH  34  39
HETATM   39  O   UNL     1      40.829 -13.387   0.992  1.00  0.00    -0.355 OA
HETATM   40  C   UNL     1      40.104 -14.138   0.020  1.00  0.00     0.210 C 
ENDBRANCH  34  39
BRANCH  38  41
HETATM   41  O   UNL     1      43.409 -13.994   4.980  1.00  0.00    -0.355 OA
HETATM   42  C   UNL     1      43.377 -14.619   6.259  1.00  0.00     0.210 C 
ENDBRANCH  38  41
ENDBRANCH   8  33
TORSDOF 8
ENDMDL
MODEL 2
REMARK VINA RESULT:      -9.1      0.268      2.180
REMARK  8 active torsions:
REMARK  status: ('A' for Active; 'I' for Inactive)
REMARK    1  A    between atoms: C_2  and  N_3 
REMARK    2  A    between atoms: C_2  and  C_36 
REMARK       I    between atoms: N_3  and  C_4 
REMARK    3  A    between atoms: C_4  and  C_5 
REMARK    4  A    between atoms: C_5  and  N_6 
REMARK       I    between atoms: N_12  and  C_13 
REMARK    5  A    between atoms: C_13  and  C_14 
REMARK    6  A    between atoms: C_15  and  O_16 
REMARK    7  A    between atoms: C_21  and  O_22 
REMARK    8  A    between atoms: N_27  and  C_28 
ROOT
HETATM    1  N   UNL     1      40.136  -9.359   8.132  1.00  0.00    -0.325 N 
HETATM    2  C   UNL     1      40.010  -9.673   6.796  1.00  0.00     0.250 C 
HETATM    3  O   UNL     1      38.975  -9.615   6.151  1.00  0.00    -0.270 OA
HETATM    4  C   UNL     1      41.366 -10.242   6.334  1.00  0.00     0.118 C 
HETATM    5  C   UNL     1      41.743  -9.631   4.973  1.00  0.00     0.061 C 
HETATM    6  C   UNL     1      41.095 -10.354   3.798  1.00  0.00     0.129 C 
HETATM    7  N   UNL     1      41.171 -11.799   3.952  1.00  0.00    -0.348 N 
HETATM    8  C   UNL     1      42.158 -12.512   3.260  1.00  0.00     0.259 C 
HETATM    9  O   UNL     1      43.051 -11.970   2.613  1.00  0.00    -0.267 OA
HETATM   10  C   UNL     1      40.478 -12.304   5.127  1.00  0.00     0.129 C 
HETATM   11  C   UNL     1      41.179 -11.778   6.377  1.00  0.00     0.061 C 
HETATM   12  N   UNL     1      42.266  -9.783   7.435  1.00  0.00    -0.346 N 
HETATM   13  C   UNL     1      41.491  -9.363   8.594  1.00  0.00     0.254 C 
ENDROOT
BRANCH  12  14
HETATM   14  C   UNL     1      43.633  -9.976   7.538  1.00  0.00     0.032 A 
HETATM   15  C   UNL     1      44.304 -11.063   6.952  1.00  0.00     0.029 A 
HETATM   16  C   UNL     1      45.693 -11.235   7.046  1.00  0.00     0.002 A 
HETATM   17  C   UNL     1      46.466 -10.310   7.732  1.00  0.00     0.000 A 
HETATM   18  C   UNL     1      45.845  -9.219   8.322  1.00  0.00     0.002 A 
HETATM   19  C   UNL     1      44.454  -9.061   8.224  1.00  0.00     0.029 A 
ENDBRANCH  12  14
BRANCH   1  20
HETATM   20  C   UNL     1      39.021  -9.199   9.049  1.00  0.00     0.230 C 
BRANCH  20  21
HETATM   21  C   UNL     1      39.357  -9.330  10.532  1.00  0.00     0.236 C 
HETATM   22  N   UNL     1      39.420  -8.134  11.212  1.00  0.00    -0.351 N 
HETATM   23  H   UNL     1      39.088  -7.328  10.694  1.00  0.00     0.163 HD
HETATM   24  O   UNL     1      39.428 -10.435  11.063  1.00  0.00    -0.272 OA
BRANCH  22  25
HETATM   25  C   UNL     1      39.356  -8.014  12.664  1.00  0.00     0.113 C 
HETATM   26  C   UNL     1      38.227  -7.127  13.194  1.00  0.00     0.037 C 
BRANCH  25  27
HETATM   27  C   UNL     1      40.727  -7.676  13.226  1.00  0.00    -0.036 A 
HETATM   28  C   UNL     1      40.833  -6.882  14.381  1.00  0.00     0.009 A 
HETATM   29  C   UNL     1      42.079  -6.592  14.939  1.00  0.00     0.001 A 
HETATM   30  C   UNL     1      43.239  -7.097  14.357  1.00  0.00     0.000 A 
HETATM   31  C   UNL     1      43.153  -7.893  13.218  1.00  0.00     0.001 A 
HETATM   32  C   UNL     1      41.907  -8.182  12.657  1.00  0.00     0.009 A 
ENDBRANCH  25  27
ENDBRANCH  22  25
ENDBRANCH  20  21
ENDBRANCH   1  20
BRANCH   8  33
HETATM   33  C   UNL     1      42.045 -13.989   3.207  1.00  0.00     0.098 A 
HETATM   34  C   UNL     1      42.746 -14.739   4.166  1.00  0.00     0.086 A 
HETATM   35  C   UNL     1      42.676 -16.133   4.159  1.00  0.00     0.038 A 
HETATM   36  C   UNL     1      41.929 -16.782   3.181  1.00  0.00     0.005 A 
HETATM   37  C   UNL     1      41.220 -16.042   2.230  1.00  0.00     0.038 A 
HETATM   38  C   UNL     1      41.257 -14.639   2.241  1.00  0.00     0.086 A 
BRANCH  34  39
HETATM   39  O   UNL     1      43.420 -14.140   5.198  1.00  0.00    -0.355 OA
HETATM   40  C   UNL     1      43.490 -14.997   6.335  1.00  0.00     0.210 C 
ENDBRANCH  34  39
BRANCH  38  41
HETATM   41  O   UNL     1      40.565 -13.849   1.364  1.00  0.00    -0.355 OA
HETATM   42  C   UNL     1      40.087 -14.449   0.165  1.00  0.00     0.210 C 
ENDBRANCH  38  41
ENDBRANCH   8  33
TORSDOF 8
ENDMDL
MODEL 3
REMARK VINA RESULT:      -8.6      3.239      6.237
REMARK  8 active torsions:
REMARK  status: ('A' for Active; 'I' for Inactive)
REMARK    1  A    between atoms: C_2  and  N_3 
REMARK    2  A    between atoms: C_2  and  C_36 
REMARK       I    between atoms: N_3  and  C_4 
REMARK    3  A    between atoms: C_4  and  C_5 
REMARK    4  A    between atoms: C_5  and  N_6 
REMARK       I    between atoms: N_12  and  C_13 
REMARK    5  A    between atoms: C_13  and  C_14 
REMARK    6  A    between atoms: C_15  and  O_16 
REMARK    7  A    between atoms: C_21  and  O_22 
REMARK    8  A    between atoms: N_27  and  C_28 
ROOT
HETATM    1  N   UNL     1      39.955 -11.622   5.557  1.00  0.00    -0.325 N 
HETATM    2  C   UNL     1      40.143 -10.858   4.426  1.00  0.00     0.250 C 
HETATM    3  O   UNL     1      39.929  -9.658   4.340  1.00  0.00    -0.270 OA
HETATM    4  C   UNL     1      40.520 -11.822   3.285  1.00  0.00     0.118 C 
HETATM    5  C   UNL     1      41.693 -11.234   2.481  1.00  0.00     0.061 C 
HETATM    6  C   UNL     1      41.245 -10.233   1.422  1.00  0.00     0.129 C 
HETATM    7  N   UNL     1      40.079 -10.711   0.693  1.00  0.00    -0.348 N 
HETATM    8  C   UNL     1      40.250 -11.287  -0.572  1.00  0.00     0.259 C 
HETATM    9  O   UNL     1      41.351 -11.521  -1.062  1.00  0.00    -0.267 OA
HETATM   10  C   UNL     1      38.907 -10.920   1.529  1.00  0.00     0.129 C 
HETATM   11  C   UNL     1      39.197 -12.050   2.514  1.00  0.00     0.061 C 
HETATM   12  N   UNL     1      40.909 -13.044   4.050  1.00  0.00    -0.346 N 
HETATM   13  C   UNL     1      40.435 -12.965   5.425  1.00  0.00     0.254 C 
ENDROOT
BRANCH  12  14
HETATM   14  C   UNL     1      41.378 -14.242   3.538  1.00  0.00     0.032 A 
HETATM   15  C   UNL     1      42.739 -14.590   3.513  1.00  0.00     0.029 A 
HETATM   16  C   UNL     1      43.199 -15.816   3.012  1.00  0.00     0.002 A 
HETATM   17  C   UNL     1      42.299 -16.749   2.518  1.00  0.00     0.000 A 
HETATM   18  C   UNL     1      40.945 -16.450   2.527  1.00  0.00     0.002 A 
HETATM   19  C   UNL     1      40.499 -15.218   3.029  1.00  0.00     0.029 A 
ENDBRANCH  12  14
BRANCH   1  20
HETATM   20  C   UNL     1      39.202 -11.197   6.723  1.00  0.00     0.230 C 
BRANCH  20  21
HETATM   21  C   UNL     1      39.868 -10.133   7.593  1.00  0.00     0.236 C 
HETATM   22  N   UNL     1      41.242 -10.111   7.515  1.00  0.00    -0.351 N 
HETATM   23  H   UNL     1      41.641 -10.688   6.783  1.00  0.00     0.163 HD
HETATM   24  O   UNL     1      39.192  -9.304   8.196  1.00  0.00    -0.272 OA
BRANCH  22  25
HETATM   25  C   UNL     1      42.067  -8.987   7.944  1.00  0.00     0.113 C 
HETATM   26  C   UNL     1      41.758  -7.654   7.258  1.00  0.00     0.037 C 
BRANCH  25  27
HETATM   27  C   UNL     1      43.537  -9.371   7.918  1.00  0.00    -0.036 A 
HETATM   28  C   UNL     1      44.475  -8.598   8.623  1.00  0.00     0.009 A 
HETATM   29  C   UNL     1      45.824  -8.955   8.647  1.00  0.00     0.001 A 
HETATM   30  C   UNL     1      46.258 -10.094   7.974  1.00  0.00     0.000 A 
HETATM   31  C   UNL     1      45.341 -10.878   7.278  1.00  0.00     0.001 A 
HETATM   32  C   UNL     1      43.991 -10.521   7.251  1.00  0.00     0.009 A 
ENDBRANCH  25  27
ENDBRANCH  22  25
ENDBRANCH  20  21
ENDBRANCH   1  20
BRANCH   8  33
HETATM   33  C   UNL     1      39.045 -11.507  -1.407  1.00  0.00     0.098 A 
HETATM   34  C   UNL     1      38.548 -12.817  -1.515  1.00  0.00     0.086 A 
HETATM   35  C   UNL     1      37.418 -13.079  -2.291  1.00  0.00     0.038 A 
HETATM   36  C   UNL     1      36.797 -12.043  -2.980  1.00  0.00     0.005 A 
HETATM   37  C   UNL     1      37.280 -10.735  -2.868  1.00  0.00     0.038 A 
HETATM   38  C   UNL     1      38.397 -10.450  -2.070  1.00  0.00     0.086 A 
BRANCH  34  39
HETATM   39  O   UNL     1      39.074 -13.850  -0.785  1.00  0.00    -0.355 OA
HETATM   40  C   UNL     1      39.410 -14.954  -1.621  1.00  0.00     0.210 C 
ENDBRANCH  34  39
BRANCH  38  41
HETATM   41  O   UNL     1      38.906  -9.192  -1.887  1.00  0.00    -0.355 OA
HETATM   42  C   UNL     1      39.427  -8.515  -3.025  1.00  0.00     0.210 C 
ENDBRANCH  38  41
ENDBRANCH   8  33
TORSDOF 8
ENDMDL
MODEL 4
REMARK VINA RESULT:      -8.5      2.864      5.879
REMARK  8 active torsions:
REMARK  status: ('A' for Active; 'I' for Inactive)
REMARK    1  A    between atoms: C_2  and  N_3 
REMARK    2  A    between atoms: C_2  and  C_36 
REMARK       I    between atoms: N_3  and  C_4 
REMARK    3  A    between atoms: C_4  and  C_5 
REMARK    4  A    between atoms: C_5  and  N_6 
REMARK       I    between atoms: N_12  and  C_13 
REMARK    5  A    between atoms: C_13  and  C_14 
REMARK    6  A    between atoms: C_15  and  O_16 
REMARK    7  A    between atoms: C_21  and  O_22 
REMARK    8  A    between atoms: N_27  and  C_28 
ROOT
HETATM    1  N   UNL     1      39.796 -11.726   5.670  1.00  0.00    -0.325 N 
HETATM    2  C   UNL     1      40.012 -10.922   4.572  1.00  0.00     0.250 C 
HETATM    3  O   UNL     1      39.814  -9.718   4.528  1.00  0.00    -0.270 OA
HETATM    4  C   UNL     1      40.395 -11.847   3.401  1.00  0.00     0.118 C 
HETATM    5  C   UNL     1      41.588 -11.245   2.639  1.00  0.00     0.061 C 
HETATM    6  C   UNL     1      41.170 -10.200   1.611  1.00  0.00     0.129 C 
HETATM    7  N   UNL     1      40.011 -10.635   0.847  1.00  0.00    -0.348 N 
HETATM    8  C   UNL     1      40.195 -11.165  -0.436  1.00  0.00     0.259 C 
HETATM    9  O   UNL     1      41.301 -11.395  -0.917  1.00  0.00    -0.267 OA
HETATM   10  C   UNL     1      38.822 -10.859   1.656  1.00  0.00     0.129 C 
HETATM   11  C   UNL     1      39.082 -12.030   2.602  1.00  0.00     0.061 C 
HETATM   12  N   UNL     1      40.757 -13.103   4.126  1.00  0.00    -0.346 N 
HETATM   13  C   UNL     1      40.262 -13.069   5.496  1.00  0.00     0.254 C 
ENDROOT
BRANCH  12  14
HETATM   14  C   UNL     1      41.219 -14.286   3.577  1.00  0.00     0.032 A 
HETATM   15  C   UNL     1      40.474 -15.059   2.671  1.00  0.00     0.029 A 
HETATM   16  C   UNL     1      40.964 -16.246   2.105  1.00  0.00     0.002 A 
HETATM   17  C   UNL     1      42.234 -16.700   2.428  1.00  0.00     0.000 A 
HETATM   18  C   UNL     1      43.006 -15.966   3.315  1.00  0.00     0.002 A 
HETATM   19  C   UNL     1      42.503 -14.783   3.876  1.00  0.00     0.029 A 
ENDBRANCH  12  14
BRANCH   1  20
HETATM   20  C   UNL     1      39.030 -11.335   6.840  1.00  0.00     0.230 C 
BRANCH  20  21
HETATM   21  C   UNL     1      39.592 -10.163   7.642  1.00  0.00     0.236 C 
HETATM   22  N   UNL     1      40.966 -10.087   7.655  1.00  0.00    -0.351 N 
HETATM   23  H   UNL     1      41.437 -10.715   7.012  1.00  0.00     0.163 HD
HETATM   24  O   UNL     1      38.845  -9.310   8.112  1.00  0.00    -0.272 OA
BRANCH  22  25
HETATM   25  C   UNL     1      41.716  -8.892   8.023  1.00  0.00     0.113 C 
HETATM   26  C   UNL     1      41.984  -7.913   6.877  1.00  0.00     0.037 C 
BRANCH  25  27
HETATM   27  C   UNL     1      42.955  -9.270   8.818  1.00  0.00    -0.036 A 
HETATM   28  C   UNL     1      44.227  -9.138   8.236  1.00  0.00     0.009 A 
HETATM   29  C   UNL     1      45.381  -9.441   8.960  1.00  0.00     0.001 A 
HETATM   30  C   UNL     1      45.284  -9.872  10.280  1.00  0.00     0.000 A 
HETATM   31  C   UNL     1      44.033 -10.000  10.877  1.00  0.00     0.001 A 
HETATM   32  C   UNL     1      42.877  -9.700  10.153  1.00  0.00     0.009 A 
ENDBRANCH  25  27
ENDBRANCH  22  25
ENDBRANCH  20  21
ENDBRANCH   1  20
BRANCH   8  33
HETATM   33  C   UNL     1      39.000 -11.338  -1.297  1.00  0.00     0.098 A 
HETATM   34  C   UNL     1      38.485 -10.204  -1.946  1.00  0.00     0.086 A 
HETATM   35  C   UNL     1      37.361 -10.312  -2.766  1.00  0.00     0.038 A 
HETATM   36  C   UNL     1      36.732 -11.543  -2.919  1.00  0.00     0.005 A 
HETATM   37  C   UNL     1      37.247 -12.679  -2.285  1.00  0.00     0.038 A 
HETATM   38  C   UNL     1      38.393 -12.593  -1.481  1.00  0.00     0.086 A 
BRANCH  34  39
HETATM   39  O   UNL     1      39.122  -8.992  -1.894  1.00  0.00    -0.355 OA
HETATM   40  C   UNL     1      38.294  -7.999  -1.293  1.00  0.00     0.210 C 
ENDBRANCH  34  39
BRANCH  38  41
HETATM   41  O   UNL     1      38.971 -13.665  -0.856  1.00  0.00    -0.355 OA
HETATM   42  C   UNL     1      39.363 -14.770  -1.662  1.00  0.00     0.210 C 
ENDBRANCH  38  41
ENDBRANCH   8  33
TORSDOF 8
ENDMDL
MODEL 5
REMARK VINA RESULT:      -8.3      3.098      9.136
REMARK  8 active torsions:
REMARK  status: ('A' for Active; 'I' for Inactive)
REMARK    1  A    between atoms: C_2  and  N_3 
REMARK    2  A    between atoms: C_2  and  C_36 
REMARK       I    between atoms: N_3  and  C_4 
REMARK    3  A    between atoms: C_4  and  C_5 
REMARK    4  A    between atoms: C_5  and  N_6 
REMARK       I    between atoms: N_12  and  C_13 
REMARK    5  A    between atoms: C_13  and  C_14 
REMARK    6  A    between atoms: C_15  and  O_16 
REMARK    7  A    between atoms: C_21  and  O_22 
REMARK    8  A    between atoms: N_27  and  C_28 
ROOT
HETATM    1  N   UNL     1      42.776 -11.742   4.306  1.00  0.00    -0.325 N 
HETATM    2  C   UNL     1      41.490 -11.370   4.634  1.00  0.00     0.250 C 
HETATM    3  O   UNL     1      40.488 -11.648   3.993  1.00  0.00    -0.270 OA
HETATM    4  C   UNL     1      41.587 -10.432   5.852  1.00  0.00     0.118 C 
HETATM    5  C   UNL     1      40.511 -10.815   6.883  1.00  0.00     0.061 C 
HETATM    6  C   UNL     1      39.150 -10.199   6.578  1.00  0.00     0.129 C 
HETATM    7  N   UNL     1      39.270  -8.801   6.192  1.00  0.00    -0.348 N 
HETATM    8  C   UNL     1      39.004  -7.803   7.139  1.00  0.00     0.259 C 
HETATM    9  O   UNL     1      38.786  -8.040   8.323  1.00  0.00    -0.267 OA
HETATM   10  C   UNL     1      40.054  -8.588   4.986  1.00  0.00     0.129 C 
HETATM   11  C   UNL     1      41.498  -9.006   5.255  1.00  0.00     0.061 C 
HETATM   12  N   UNL     1      42.970 -10.722   6.337  1.00  0.00    -0.346 N 
HETATM   13  C   UNL     1      43.739 -11.419   5.315  1.00  0.00     0.254 C 
ENDROOT
BRANCH  12  14
HETATM   14  C   UNL     1      43.601 -10.185   7.445  1.00  0.00     0.032 A 
HETATM   15  C   UNL     1      44.565 -10.879   8.196  1.00  0.00     0.029 A 
HETATM   16  C   UNL     1      45.213 -10.315   9.304  1.00  0.00     0.002 A 
HETATM   17  C   UNL     1      44.919  -9.018   9.698  1.00  0.00     0.000 A 
HETATM   18  C   UNL     1      43.977  -8.294   8.983  1.00  0.00     0.002 A 
HETATM   19  C   UNL     1      43.334  -8.871   7.878  1.00  0.00     0.029 A 
ENDBRANCH  12  14
BRANCH   1  20
HETATM   20  C   UNL     1      43.178 -12.260   3.011  1.00  0.00     0.230 C 
BRANCH  20  21
HETATM   21  C   UNL     1      42.554 -13.593   2.604  1.00  0.00     0.236 C 
HETATM   22  N   UNL     1      42.610 -14.569   3.573  1.00  0.00    -0.351 N 
HETATM   23  H   UNL     1      42.914 -14.250   4.487  1.00  0.00     0.163 HD
HETATM   24  O   UNL     1      41.948 -13.703   1.542  1.00  0.00    -0.272 OA
BRANCH  22  25
HETATM   25  C   UNL     1      41.783 -15.770   3.573  1.00  0.00     0.113 C 
HETATM   26  C   UNL     1      40.742 -15.844   4.694  1.00  0.00     0.037 C 
BRANCH  25  27
HETATM   27  C   UNL     1      42.653 -17.010   3.453  1.00  0.00    -0.036 A 
HETATM   28  C   UNL     1      43.519 -17.361   4.503  1.00  0.00     0.009 A 
HETATM   29  C   UNL     1      44.298 -18.518   4.433  1.00  0.00     0.001 A 
HETATM   30  C   UNL     1      44.218 -19.347   3.317  1.00  0.00     0.000 A 
HETATM   31  C   UNL     1      43.359 -19.020   2.271  1.00  0.00     0.001 A 
HETATM   32  C   UNL     1      42.581 -17.862   2.338  1.00  0.00     0.009 A 
ENDBRANCH  25  27
ENDBRANCH  22  25
ENDBRANCH  20  21
ENDBRANCH   1  20
BRANCH   8  33
HETATM   33  C   UNL     1      38.859  -6.408   6.659  1.00  0.00     0.098 A 
HETATM   34  C   UNL     1      37.600  -6.000   6.187  1.00  0.00     0.086 A 
HETATM   35  C   UNL     1      37.410  -4.699   5.722  1.00  0.00     0.038 A 
HETATM   36  C   UNL     1      38.479  -3.809   5.699  1.00  0.00     0.005 A 
HETATM   37  C   UNL     1      39.733  -4.205   6.177  1.00  0.00     0.038 A 
HETATM   38  C   UNL     1      39.933  -5.501   6.675  1.00  0.00     0.086 A 
BRANCH  34  39
HETATM   39  O   UNL     1      36.500  -6.814   6.273  1.00  0.00    -0.355 OA
HETATM   40  C   UNL     1      35.895  -7.000   4.996  1.00  0.00     0.210 C 
ENDBRANCH  34  39
BRANCH  38  41
HETATM   41  O   UNL     1      41.121  -5.948   7.188  1.00  0.00    -0.355 OA
HETATM   42  C   UNL     1      41.546  -5.417   8.438  1.00  0.00     0.210 C 
ENDBRANCH  38  41
ENDBRANCH   8  33
TORSDOF 8
ENDMDL
MODEL 6
REMARK VINA RESULT:      -8.3      6.680     10.674
REMARK  8 active torsions:
REMARK  status: ('A' for Active; 'I' for Inactive)
REMARK    1  A    between atoms: C_2  and  N_3 
REMARK    2  A    between atoms: C_2  and  C_36 
REMARK       I    between atoms: N_3  and  C_4 
REMARK    3  A    between atoms: C_4  and  C_5 
REMARK    4  A    between atoms: C_5  and  N_6 
REMARK       I    between atoms: N_12  and  C_13 
REMARK    5  A    between atoms: C_13  and  C_14 
REMARK    6  A    between atoms: C_15  and  O_16 
REMARK    7  A    between atoms: C_21  and  O_22 
REMARK    8  A    between atoms: N_27  and  C_28 
ROOT
HETATM    1  N   UNL     1      39.662 -13.525   0.071  1.00  0.00    -0.325 N 
HETATM    2  C   UNL     1      39.226 -12.876  -1.063  1.00  0.00     0.250 C 
HETATM    3  O   UNL     1      38.988 -13.408  -2.136  1.00  0.00    -0.270 OA
HETATM    4  C   UNL     1      39.244 -11.366  -0.755  1.00  0.00     0.118 C 
HETATM    5  C   UNL     1      37.951 -10.718  -1.278  1.00  0.00     0.061 C 
HETATM    6  C   UNL     1      38.019 -10.367  -2.760  1.00  0.00     0.129 C 
HETATM    7  N   UNL     1      39.290  -9.748  -3.105  1.00  0.00    -0.348 N 
HETATM    8  C   UNL     1      39.361  -8.355  -3.236  1.00  0.00     0.259 C 
HETATM    9  O   UNL     1      38.429  -7.604  -2.960  1.00  0.00    -0.267 OA
HETATM   10  C   UNL     1      40.444 -10.601  -2.871  1.00  0.00     0.129 C 
HETATM   11  C   UNL     1      40.572 -10.859  -1.371  1.00  0.00     0.061 C 
HETATM   12  N   UNL     1      39.317 -11.371   0.737  1.00  0.00    -0.346 N 
HETATM   13  C   UNL     1      39.707 -12.685   1.230  1.00  0.00     0.254 C 
ENDROOT
BRANCH  12  14
HETATM   14  C   UNL     1      39.325 -10.275   1.582  1.00  0.00     0.032 A 
HETATM   15  C   UNL     1      38.159  -9.708   2.122  1.00  0.00     0.029 A 
HETATM   16  C   UNL     1      38.184  -8.610   2.995  1.00  0.00     0.002 A 
HETATM   17  C   UNL     1      39.393  -8.040   3.364  1.00  0.00     0.000 A 
HETATM   18  C   UNL     1      40.570  -8.570   2.858  1.00  0.00     0.002 A 
HETATM   19  C   UNL     1      40.531  -9.667   1.983  1.00  0.00     0.029 A 
ENDBRANCH  12  14
BRANCH   1  20
HETATM   20  C   UNL     1      40.189 -14.878   0.094  1.00  0.00     0.230 C 
BRANCH  20  21
HETATM   21  C   UNL     1      40.384 -15.493   1.477  1.00  0.00     0.236 C 
HETATM   22  N   UNL     1      41.698 -15.647   1.854  1.00  0.00    -0.351 N 
HETATM   23  H   UNL     1      42.375 -15.198   1.246  1.00  0.00     0.163 HD
HETATM   24  O   UNL     1      39.422 -15.699   2.213  1.00  0.00    -0.272 OA
BRANCH  22  25
HETATM   25  C   UNL     1      42.136 -15.857   3.229  1.00  0.00     0.113 C 
HETATM   26  C   UNL     1      42.913 -14.692   3.850  1.00  0.00     0.037 C 
BRANCH  25  27
HETATM   27  C   UNL     1      42.827 -17.204   3.364  1.00  0.00    -0.036 A 
HETATM   28  C   UNL     1      42.769 -18.128   2.308  1.00  0.00     0.009 A 
HETATM   29  C   UNL     1      43.429 -19.355   2.393  1.00  0.00     0.001 A 
HETATM   30  C   UNL     1      44.165 -19.675   3.531  1.00  0.00     0.000 A 
HETATM   31  C   UNL     1      44.242 -18.767   4.584  1.00  0.00     0.001 A 
HETATM   32  C   UNL     1      43.579 -17.541   4.502  1.00  0.00     0.009 A 
ENDBRANCH  25  27
ENDBRANCH  22  25
ENDBRANCH  20  21
ENDBRANCH   1  20
BRANCH   8  33
HETATM   33  C   UNL     1      40.576  -7.774  -3.855  1.00  0.00     0.098 A 
HETATM   34  C   UNL     1      41.592  -7.309  -3.003  1.00  0.00     0.086 A 
HETATM   35  C   UNL     1      42.756  -6.751  -3.534  1.00  0.00     0.038 A 
HETATM   36  C   UNL     1      42.898  -6.629  -4.912  1.00  0.00     0.005 A 
HETATM   37  C   UNL     1      41.895  -7.100  -5.766  1.00  0.00     0.038 A 
HETATM   38  C   UNL     1      40.733  -7.690  -5.249  1.00  0.00     0.086 A 
BRANCH  34  39
HETATM   39  O   UNL     1      41.533  -7.489  -1.646  1.00  0.00    -0.355 OA
HETATM   40  C   UNL     1      42.799  -7.881  -1.122  1.00  0.00     0.210 C 
ENDBRANCH  34  39
BRANCH  38  41
HETATM   41  O   UNL     1      39.725  -8.200  -6.023  1.00  0.00    -0.355 OA
HETATM   42  C   UNL     1      39.986  -8.395  -7.409  1.00  0.00     0.210 C 
ENDBRANCH  38  41
ENDBRANCH   8  33
TORSDOF 8
ENDMDL
MODEL 7
REMARK VINA RESULT:      -8.3      6.709     10.479
REMARK  8 active torsions:
REMARK  status: ('A' for Active; 'I' for Inactive)
REMARK    1  A    between atoms: C_2  and  N_3 
REMARK    2  A    between atoms: C_2  and  C_36 
REMARK       I    between atoms: N_3  and  C_4 
REMARK    3  A    between atoms: C_4  and  C_5 
REMARK    4  A    between atoms: C_5  and  N_6 
REMARK       I    between atoms: N_12  and  C_13 
REMARK    5  A    between atoms: C_13  and  C_14 
REMARK    6  A    between atoms: C_15  and  O_16 
REMARK    7  A    between atoms: C_21  and  O_22 
REMARK    8  A    between atoms: N_27  and  C_28 
ROOT
HETATM    1  N   UNL     1      39.672 -13.444   0.007  1.00  0.00    -0.325 N 
HETATM    2  C   UNL     1      39.250 -12.786  -1.127  1.00  0.00     0.250 C 
HETATM    3  O   UNL     1      39.022 -13.310  -2.206  1.00  0.00    -0.270 OA
HETATM    4  C   UNL     1      39.270 -11.278  -0.809  1.00  0.00     0.118 C 
HETATM    5  C   UNL     1      37.984 -10.623  -1.342  1.00  0.00     0.061 C 
HETATM    6  C   UNL     1      38.069 -10.262  -2.821  1.00  0.00     0.129 C 
HETATM    7  N   UNL     1      39.346  -9.645  -3.148  1.00  0.00    -0.348 N 
HETATM    8  C   UNL     1      39.422  -8.252  -3.269  1.00  0.00     0.259 C 
HETATM    9  O   UNL     1      38.490  -7.500  -2.998  1.00  0.00    -0.267 OA
HETATM   10  C   UNL     1      40.495 -10.504  -2.907  1.00  0.00     0.129 C 
HETATM   11  C   UNL     1      40.605 -10.771  -1.407  1.00  0.00     0.061 C 
HETATM   12  N   UNL     1      39.326 -11.294   0.684  1.00  0.00    -0.346 N 
HETATM   13  C   UNL     1      39.707 -12.612   1.172  1.00  0.00     0.254 C 
ENDROOT
BRANCH  12  14
HETATM   14  C   UNL     1      39.329 -10.203   1.535  1.00  0.00     0.032 A 
HETATM   15  C   UNL     1      38.219  -9.825   2.309  1.00  0.00     0.029 A 
HETATM   16  C   UNL     1      38.243  -8.730   3.186  1.00  0.00     0.002 A 
HETATM   17  C   UNL     1      39.396  -7.971   3.321  1.00  0.00     0.000 A 
HETATM   18  C   UNL     1      40.517  -8.310   2.580  1.00  0.00     0.002 A 
HETATM   19  C   UNL     1      40.479  -9.406   1.705  1.00  0.00     0.029 A 
ENDBRANCH  12  14
BRANCH   1  20
HETATM   20  C   UNL     1      40.194 -14.799   0.027  1.00  0.00     0.230 C 
BRANCH  20  21
HETATM   21  C   UNL     1      40.412 -15.408   1.409  1.00  0.00     0.236 C 
HETATM   22  N   UNL     1      41.726 -15.447   1.816  1.00  0.00    -0.351 N 
HETATM   23  H   UNL     1      42.373 -14.933   1.228  1.00  0.00     0.163 HD
HETATM   24  O   UNL     1      39.456 -15.707   2.120  1.00  0.00    -0.272 OA
BRANCH  22  25
HETATM   25  C   UNL     1      42.150 -15.631   3.200  1.00  0.00     0.113 C 
HETATM   26  C   UNL     1      42.926 -14.458   3.804  1.00  0.00     0.037 C 
BRANCH  25  27
HETATM   27  C   UNL     1      42.832 -16.979   3.369  1.00  0.00    -0.036 A 
HETATM   28  C   UNL     1      42.773 -17.927   2.334  1.00  0.00     0.009 A 
HETATM   29  C   UNL     1      43.426 -19.155   2.450  1.00  0.00     0.001 A 
HETATM   30  C   UNL     1      44.155 -19.453   3.598  1.00  0.00     0.000 A 
HETATM   31  C   UNL     1      44.232 -18.522   4.630  1.00  0.00     0.001 A 
HETATM   32  C   UNL     1      43.577 -17.293   4.517  1.00  0.00     0.009 A 
ENDBRANCH  25  27
ENDBRANCH  22  25
ENDBRANCH  20  21
ENDBRANCH   1  20
BRANCH   8  33
HETATM   33  C   UNL     1      40.646  -7.670  -3.871  1.00  0.00     0.098 A 
HETATM   34  C   UNL     1      40.694  -7.535  -5.268  1.00  0.00     0.086 A 
HETATM   35  C   UNL     1      41.824  -6.997  -5.885  1.00  0.00     0.038 A 
HETATM   36  C   UNL     1      42.918  -6.617  -5.115  1.00  0.00     0.005 A 
HETATM   37  C   UNL     1      42.873  -6.738  -3.722  1.00  0.00     0.038 A 
HETATM   38  C   UNL     1      41.733  -7.251  -3.084  1.00  0.00     0.086 A 
BRANCH  34  39
HETATM   39  O   UNL     1      39.609  -7.814  -6.057  1.00  0.00    -0.355 OA
HETATM   40  C   UNL     1      40.009  -8.362  -7.310  1.00  0.00     0.210 C 
ENDBRANCH  34  39
BRANCH  38  41
HETATM   41  O   UNL     1      41.605  -7.369  -1.726  1.00  0.00    -0.355 OA
HETATM   42  C   UNL     1      42.764  -7.718  -0.978  1.00  0.00     0.210 C 
ENDBRANCH  38  41
ENDBRANCH   8  33
TORSDOF 8
ENDMDL
MODEL 8
REMARK VINA RESULT:      -8.3      2.629      4.976
REMARK  8 active torsions:
REMARK  status: ('A' for Active; 'I' for Inactive)
REMARK    1  A    between atoms: C_2  and  N_3 
REMARK    2  A    between atoms: C_2  and  C_36 
REMARK       I    between atoms: N_3  and  C_4 
REMARK    3  A    between atoms: C_4  and  C_5 
REMARK    4  A    between atoms: C_5  and  N_6 
REMARK       I    between atoms: N_12  and  C_13 
REMARK    5  A    between atoms: C_13  and  C_14 
REMARK    6  A    between atoms: C_15  and  O_16 
REMARK    7  A    between atoms: C_21  and  O_22 
REMARK    8  A    between atoms: N_27  and  C_28 
ROOT
HETATM    1  N   UNL     1      41.613  -9.904   5.350  1.00  0.00    -0.325 N 
HETATM    2  C   UNL     1      41.466 -11.120   5.981  1.00  0.00     0.250 C 
HETATM    3  O   UNL     1      41.802 -11.366   7.129  1.00  0.00    -0.270 OA
HETATM    4  C   UNL     1      40.947 -12.118   4.928  1.00  0.00     0.118 C 
HETATM    5  C   UNL     1      39.813 -12.963   5.534  1.00  0.00     0.061 C 
HETATM    6  C   UNL     1      40.326 -14.154   6.337  1.00  0.00     0.129 C 
HETATM    7  N   UNL     1      41.406 -14.840   5.646  1.00  0.00    -0.348 N 
HETATM    8  C   UNL     1      41.128 -16.016   4.937  1.00  0.00     0.259 C 
HETATM    9  O   UNL     1      39.991 -16.446   4.765  1.00  0.00    -0.267 OA
HETATM   10  C   UNL     1      42.580 -14.012   5.418  1.00  0.00     0.129 C 
HETATM   11  C   UNL     1      42.209 -12.882   4.460  1.00  0.00     0.061 C 
HETATM   12  N   UNL     1      40.459 -11.191   3.862  1.00  0.00    -0.346 N 
HETATM   13  C   UNL     1      40.989  -9.849   4.063  1.00  0.00     0.254 C 
ENDROOT
BRANCH  12  14
HETATM   14  C   UNL     1      39.847 -11.532   2.668  1.00  0.00     0.032 A 
HETATM   15  C   UNL     1      38.501 -11.248   2.383  1.00  0.00     0.029 A 
HETATM   16  C   UNL     1      37.900 -11.580   1.159  1.00  0.00     0.002 A 
HETATM   17  C   UNL     1      38.637 -12.209   0.167  1.00  0.00     0.000 A 
HETATM   18  C   UNL     1      39.971 -12.503   0.405  1.00  0.00     0.002 A 
HETATM   19  C   UNL     1      40.560 -12.169   1.634  1.00  0.00     0.029 A 
ENDBRANCH  12  14
BRANCH   1  20
HETATM   20  C   UNL     1      42.449  -8.821   5.835  1.00  0.00     0.230 C 
BRANCH  20  21
HETATM   21  C   UNL     1      41.856  -7.974   6.958  1.00  0.00     0.236 C 
HETATM   22  N   UNL     1      42.300  -8.304   8.218  1.00  0.00    -0.351 N 
HETATM   23  H   UNL     1      43.076  -8.956   8.243  1.00  0.00     0.163 HD
HETATM   24  O   UNL     1      41.145  -7.005   6.704  1.00  0.00    -0.272 OA
BRANCH  22  25
HETATM   25  C   UNL     1      42.177  -7.435   9.383  1.00  0.00     0.113 C 
HETATM   26  C   UNL     1      43.199  -6.297   9.457  1.00  0.00     0.037 C 
BRANCH  25  27
HETATM   27  C   UNL     1      42.079  -8.264  10.653  1.00  0.00    -0.036 A 
HETATM   28  C   UNL     1      42.924  -7.982  11.739  1.00  0.00     0.009 A 
HETATM   29  C   UNL     1      42.825  -8.703  12.930  1.00  0.00     0.001 A 
HETATM   30  C   UNL     1      41.875  -9.713  13.058  1.00  0.00     0.000 A 
HETATM   31  C   UNL     1      41.023 -10.001  11.995  1.00  0.00     0.001 A 
HETATM   32  C   UNL     1      41.122  -9.282  10.802  1.00  0.00     0.009 A 
ENDBRANCH  25  27
ENDBRANCH  22  25
ENDBRANCH  20  21
ENDBRANCH   1  20
BRANCH   8  33
HETATM   33  C   UNL     1      42.272 -16.843   4.482  1.00  0.00     0.098 A 
HETATM   34  C   UNL     1      42.512 -16.933   3.101  1.00  0.00     0.086 A 
HETATM   35  C   UNL     1      43.574 -17.700   2.620  1.00  0.00     0.038 A 
HETATM   36  C   UNL     1      44.381 -18.400   3.511  1.00  0.00     0.005 A 
HETATM   37  C   UNL     1      44.155 -18.305   4.888  1.00  0.00     0.038 A 
HETATM   38  C   UNL     1      43.109 -17.516   5.389  1.00  0.00     0.086 A 
BRANCH  34  39
HETATM   39  O   UNL     1      41.799 -16.192   2.195  1.00  0.00    -0.355 OA
HETATM   40  C   UNL     1      42.636 -15.256   1.522  1.00  0.00     0.210 C 
ENDBRANCH  34  39
BRANCH  38  41
HETATM   41  O   UNL     1      42.847 -17.350   6.723  1.00  0.00    -0.355 OA
HETATM   42  C   UNL     1      43.887 -16.829   7.543  1.00  0.00     0.210 C 
ENDBRANCH  38  41
ENDBRANCH   8  33
TORSDOF 8
ENDMDL
MODEL 9
REMARK VINA RESULT:      -8.2      2.638      5.343
REMARK  8 active torsions:
REMARK  status: ('A' for Active; 'I' for Inactive)
REMARK    1  A    between atoms: C_2  and  N_3 
REMARK    2  A    between atoms: C_2  and  C_36 
REMARK       I    between atoms: N_3  and  C_4 
REMARK    3  A    between atoms: C_4  and  C_5 
REMARK    4  A    between atoms: C_5  and  N_6 
REMARK       I    between atoms: N_12  and  C_13 
REMARK    5  A    between atoms: C_13  and  C_14 
REMARK    6  A    between atoms: C_15  and  O_16 
REMARK    7  A    between atoms: C_21  and  O_22 
REMARK    8  A    between atoms: N_27  and  C_28 
ROOT
HETATM    1  N   UNL     1      41.594  -9.853   5.330  1.00  0.00    -0.325 N 
HETATM    2  C   UNL     1      41.465 -11.080   5.943  1.00  0.00     0.250 C 
HETATM    3  O   UNL     1      41.846 -11.351   7.071  1.00  0.00    -0.270 OA
HETATM    4  C   UNL     1      40.896 -12.053   4.892  1.00  0.00     0.118 C 
HETATM    5  C   UNL     1      39.784 -12.904   5.528  1.00  0.00     0.061 C 
HETATM    6  C   UNL     1      40.320 -14.114   6.285  1.00  0.00     0.129 C 
HETATM    7  N   UNL     1      41.367 -14.793   5.536  1.00  0.00    -0.348 N 
HETATM    8  C   UNL     1      41.052 -15.952   4.817  1.00  0.00     0.259 C 
HETATM    9  O   UNL     1      39.906 -16.372   4.683  1.00  0.00    -0.267 OA
HETATM   10  C   UNL     1      42.536 -13.967   5.277  1.00  0.00     0.129 C 
HETATM   11  C   UNL     1      42.133 -12.816   4.357  1.00  0.00     0.061 C 
HETATM   12  N   UNL     1      40.371 -11.103   3.866  1.00  0.00    -0.346 N 
HETATM   13  C   UNL     1      40.918  -9.768   4.071  1.00  0.00     0.254 C 
ENDROOT
BRANCH  12  14
HETATM   14  C   UNL     1      39.709 -11.416   2.691  1.00  0.00     0.032 A 
HETATM   15  C   UNL     1      38.358 -11.106   2.462  1.00  0.00     0.029 A 
HETATM   16  C   UNL     1      37.705 -11.410   1.258  1.00  0.00     0.002 A 
HETATM   17  C   UNL     1      38.393 -12.037   0.230  1.00  0.00     0.000 A 
HETATM   18  C   UNL     1      39.730 -12.357   0.412  1.00  0.00     0.002 A 
HETATM   19  C   UNL     1      40.370 -12.050   1.622  1.00  0.00     0.029 A 
ENDBRANCH  12  14
BRANCH   1  20
HETATM   20  C   UNL     1      42.457  -8.784   5.801  1.00  0.00     0.230 C 
BRANCH  20  21
HETATM   21  C   UNL     1      41.889  -7.916   6.921  1.00  0.00     0.236 C 
HETATM   22  N   UNL     1      42.284  -8.285   8.187  1.00  0.00    -0.351 N 
HETATM   23  H   UNL     1      43.019  -8.983   8.221  1.00  0.00     0.163 HD
HETATM   24  O   UNL     1      41.243  -6.904   6.663  1.00  0.00    -0.272 OA
BRANCH  22  25
HETATM   25  C   UNL     1      42.186  -7.423   9.359  1.00  0.00     0.113 C 
HETATM   26  C   UNL     1      43.269  -6.346   9.467  1.00  0.00     0.037 C 
BRANCH  25  27
HETATM   27  C   UNL     1      42.016  -8.259  10.617  1.00  0.00    -0.036 A 
HETATM   28  C   UNL     1      40.860  -9.039  10.787  1.00  0.00     0.009 A 
HETATM   29  C   UNL     1      40.700  -9.846  11.915  1.00  0.00     0.001 A 
HETATM   30  C   UNL     1      41.696  -9.894  12.886  1.00  0.00     0.000 A 
HETATM   31  C   UNL     1      42.853  -9.135  12.730  1.00  0.00     0.001 A 
HETATM   32  C   UNL     1      43.013  -8.325  11.604  1.00  0.00     0.009 A 
ENDBRANCH  25  27
ENDBRANCH  22  25
ENDBRANCH  20  21
ENDBRANCH   1  20
BRANCH   8  33
HETATM   33  C   UNL     1      42.171 -16.776   4.298  1.00  0.00     0.098 A 
HETATM   34  C   UNL     1      42.994 -17.431   5.230  1.00  0.00     0.086 A 
HETATM   35  C   UNL     1      44.063 -18.217   4.795  1.00  0.00     0.038 A 
HETATM   36  C   UNL     1      44.329 -18.329   3.434  1.00  0.00     0.005 A 
HETATM   37  C   UNL     1      43.507 -17.689   2.501  1.00  0.00     0.038 A 
HETATM   38  C   UNL     1      42.412 -16.919   2.921  1.00  0.00     0.086 A 
BRANCH  34  39
HETATM   39  O   UNL     1      42.716 -17.419   6.571  1.00  0.00    -0.355 OA
HETATM   40  C   UNL     1      43.801 -16.873   7.318  1.00  0.00     0.210 C 
ENDBRANCH  34  39
BRANCH  38  41
HETATM   41  O   UNL     1      41.547 -16.291   2.066  1.00  0.00    -0.355 OA
HETATM   42  C   UNL     1      42.057 -15.228   1.268  1.00  0.00     0.210 C 
ENDBRANCH  38  41
ENDBRANCH   8  33
TORSDOF 8
ENDMDL
MODEL 10
REMARK VINA RESULT:      -8.2      4.948      9.162
REMARK  8 active torsions:
REMARK  status: ('A' for Active; 'I' for Inactive)
REMARK    1  A    between atoms: C_2  and  N_3 
REMARK    2  A    between atoms: C_2  and  C_36 
REMARK       I    between atoms: N_3  and  C_4 
REMARK    3  A    between atoms: C_4  and  C_5 
REMARK    4  A    between atoms: C_5  and  N_6 
REMARK       I    between atoms: N_12  and  C_13 
REMARK    5  A    between atoms: C_13  and  C_14 
REMARK    6  A    between atoms: C_15  and  O_16 
REMARK    7  A    between atoms: C_21  and  O_22 
REMARK    8  A    between atoms: N_27  and  C_28 
ROOT
HETATM    1  N   UNL     1      40.584 -12.843   4.668  1.00  0.00    -0.325 N 
HETATM    2  C   UNL     1      39.823 -12.715   3.526  1.00  0.00     0.250 C 
HETATM    3  O   UNL     1      39.400 -13.641   2.851  1.00  0.00    -0.270 OA
HETATM    4  C   UNL     1      39.744 -11.212   3.200  1.00  0.00     0.118 C 
HETATM    5  C   UNL     1      38.299 -10.842   2.823  1.00  0.00     0.061 C 
HETATM    6  C   UNL     1      37.976 -11.126   1.360  1.00  0.00     0.129 C 
HETATM    7  N   UNL     1      39.051 -10.694   0.481  1.00  0.00    -0.348 N 
HETATM    8  C   UNL     1      38.932  -9.476  -0.200  1.00  0.00     0.259 C 
HETATM    9  O   UNL     1      38.014  -8.684  -0.008  1.00  0.00    -0.267 OA
HETATM   10  C   UNL     1      40.317 -11.370   0.721  1.00  0.00     0.129 C 
HETATM   11  C   UNL     1      40.823 -10.992   2.112  1.00  0.00     0.061 C 
HETATM   12  N   UNL     1      40.166 -10.607   4.499  1.00  0.00    -0.346 N 
HETATM   13  C   UNL     1      40.807 -11.603   5.348  1.00  0.00     0.254 C 
ENDROOT
BRANCH  12  14
HETATM   14  C   UNL     1      40.251  -9.261   4.811  1.00  0.00     0.032 A 
HETATM   15  C   UNL     1      41.327  -8.445   4.422  1.00  0.00     0.029 A 
HETATM   16  C   UNL     1      41.389  -7.077   4.727  1.00  0.00     0.002 A 
HETATM   17  C   UNL     1      40.360  -6.473   5.434  1.00  0.00     0.000 A 
HETATM   18  C   UNL     1      39.277  -7.239   5.835  1.00  0.00     0.002 A 
HETATM   19  C   UNL     1      39.228  -8.607   5.526  1.00  0.00     0.029 A 
ENDBRANCH  12  14
BRANCH   1  20
HETATM   20  C   UNL     1      41.250 -14.065   5.081  1.00  0.00     0.230 C 
BRANCH  20  21
HETATM   21  C   UNL     1      42.448 -14.489   4.234  1.00  0.00     0.236 C 
HETATM   22  N   UNL     1      42.527 -15.841   3.992  1.00  0.00    -0.351 N 
HETATM   23  H   UNL     1      41.710 -16.375   4.266  1.00  0.00     0.163 HD
HETATM   24  O   UNL     1      43.184 -13.648   3.724  1.00  0.00    -0.272 OA
BRANCH  22  25
HETATM   25  C   UNL     1      43.338 -16.437   2.936  1.00  0.00     0.113 C 
HETATM   26  C   UNL     1      42.927 -16.062   1.510  1.00  0.00     0.037 C 
BRANCH  25  27
HETATM   27  C   UNL     1      43.487 -17.933   3.166  1.00  0.00    -0.036 A 
HETATM   28  C   UNL     1      43.154 -18.834   2.141  1.00  0.00     0.009 A 
HETATM   29  C   UNL     1      43.321 -20.209   2.314  1.00  0.00     0.001 A 
HETATM   30  C   UNL     1      43.831 -20.705   3.510  1.00  0.00     0.000 A 
HETATM   31  C   UNL     1      44.175 -19.826   4.534  1.00  0.00     0.001 A 
HETATM   32  C   UNL     1      44.006 -18.451   4.364  1.00  0.00     0.009 A 
ENDBRANCH  25  27
ENDBRANCH  22  25
ENDBRANCH  20  21
ENDBRANCH   1  20
BRANCH   8  33
HETATM   33  C   UNL     1      39.894  -9.190  -1.291  1.00  0.00     0.098 A 
HETATM   34  C   UNL     1      39.621  -9.714  -2.566  1.00  0.00     0.086 A 
HETATM   35  C   UNL     1      40.496  -9.476  -3.627  1.00  0.00     0.038 A 
HETATM   36  C   UNL     1      41.657  -8.740  -3.415  1.00  0.00     0.005 A 
HETATM   37  C   UNL     1      41.930  -8.207  -2.151  1.00  0.00     0.038 A 
HETATM   38  C   UNL     1      41.046  -8.412  -1.081  1.00  0.00     0.086 A 
BRANCH  34  39
HETATM   39  O   UNL     1      38.448 -10.367  -2.840  1.00  0.00    -0.355 OA
HETATM   40  C   UNL     1      37.626  -9.605  -3.720  1.00  0.00     0.210 C 
ENDBRANCH  34  39
BRANCH  38  41
HETATM   41  O   UNL     1      41.231  -7.895   0.173  1.00  0.00    -0.355 OA
HETATM   42  C   UNL     1      41.043  -6.494   0.348  1.00  0.00     0.210 C 
ENDBRANCH  38  41
ENDBRANCH   8  33
TORSDOF 8
ENDMDL
