MODEL 1
REMARK VINA RESULT:      -7.2      0.000      0.000
REMARK  3 active torsions:
REMARK  status: ('A' for Active; 'I' for Inactive)
REMARK       I    between atoms: C_2  and  N_3 
REMARK    1  A    between atoms: N_3  and  C_4 
REMARK    2  A    between atoms: C_7  and  N_8 
REMARK       I    between atoms: N_8  and  C_9 
REMARK    3  A    between atoms: C_9  and  C_10 
ROOT
HETATM    1  C   UNL     1      39.444 -12.664   0.294  1.00  0.00     0.052 A 
HETATM    2  C   UNL     1      39.985 -12.702   1.574  1.00  0.00     0.148 A 
HETATM    3  N   UNL     1      40.627 -13.778   2.101  1.00  0.00    -0.241 NA
HETATM    4  C   UNL     1      40.743 -14.879   1.330  1.00  0.00     0.130 A 
HETATM    5  C   UNL     1      40.226 -14.941   0.045  1.00  0.00     0.053 A 
HETATM    6  C   UNL     1      39.573 -13.820  -0.474  1.00  0.00     0.035 A 
ENDROOT
BRANCH   4   7
HETATM    7  N   UNL     1      41.433 -15.917   1.956  1.00  0.00    -0.307 N 
HETATM    8  C   UNL     1      42.789 -16.126   2.009  1.00  0.00     0.257 C 
HETATM    9  O   UNL     1      43.651 -15.410   1.509  1.00  0.00    -0.267 OA
HETATM   10  H   UNL     1      40.800 -16.514   2.468  1.00  0.00     0.170 HD
BRANCH   8  11
HETATM   11  C   UNL     1      43.227 -17.327   2.782  1.00  0.00     0.032 A 
HETATM   12  C   UNL     1      43.644 -17.143   4.110  1.00  0.00     0.018 A 
HETATM   13  C   UNL     1      44.057 -18.233   4.880  1.00  0.00     0.025 A 
HETATM   14  C   UNL     1      44.064 -19.509   4.323  1.00  0.00     0.034 A 
HETATM   15 CL   UNL     1      44.571 -20.853   5.271  1.00  0.00    -0.084 Cl
HETATM   16  C   UNL     1      43.670 -19.704   3.000  1.00  0.00     0.025 A 
HETATM   17  C   UNL     1      43.256 -18.614   2.225  1.00  0.00     0.018 A 
ENDBRANCH   8  11
ENDBRANCH   4   7
BRANCH   1  18
HETATM   18  N   UNL     1      38.789 -11.559  -0.285  1.00  0.00    -0.326 N 
HETATM   19  C   UNL     1      39.347 -10.623  -1.136  1.00  0.00     0.218 C 
HETATM   20  C   UNL     1      38.342  -9.597  -1.590  1.00  0.00     0.117 C 
HETATM   21  O   UNL     1      40.511 -10.589  -1.518  1.00  0.00    -0.274 OA
HETATM   22  H   UNL     1      37.809 -11.448  -0.060  1.00  0.00     0.169 HD
ENDBRANCH   1  18
TORSDOF 3
ENDMDL
MODEL 2
REMARK VINA RESULT:      -7.1      5.370      6.611
REMARK  3 active torsions:
REMARK  status: ('A' for Active; 'I' for Inactive)
REMARK       I    between atoms: C_2  and  N_3 
REMARK    1  A    between atoms: N_3  and  C_4 
REMARK    2  A    between atoms: C_7  and  N_8 
REMARK       I    between atoms: N_8  and  C_9 
REMARK    3  A    between atoms: C_9  and  C_10 
ROOT
HETATM    1  C   UNL     1      43.343 -10.992   7.134  1.00  0.00     0.052 A 
HETATM    2  C   UNL     1      44.377 -11.920   7.135  1.00  0.00     0.148 A 
HETATM    3  N   UNL     1      44.351 -13.094   6.448  1.00  0.00    -0.241 NA
HETATM    4  C   UNL     1      43.249 -13.372   5.723  1.00  0.00     0.130 A 
HETATM    5  C   UNL     1      42.162 -12.513   5.670  1.00  0.00     0.053 A 
HETATM    6  C   UNL     1      42.214 -11.312   6.382  1.00  0.00     0.035 A 
ENDROOT
BRANCH   4   7
HETATM    7  N   UNL     1      43.331 -14.588   5.045  1.00  0.00    -0.307 N 
HETATM    8  C   UNL     1      43.019 -15.842   5.508  1.00  0.00     0.257 C 
HETATM    9  O   UNL     1      42.595 -16.115   6.626  1.00  0.00    -0.267 OA
HETATM   10  H   UNL     1      43.596 -14.446   4.081  1.00  0.00     0.170 HD
BRANCH   8  11
HETATM   11  C   UNL     1      43.193 -16.955   4.526  1.00  0.00     0.032 A 
HETATM   12  C   UNL     1      43.956 -18.067   4.915  1.00  0.00     0.018 A 
HETATM   13  C   UNL     1      44.146 -19.138   4.039  1.00  0.00     0.025 A 
HETATM   14  C   UNL     1      43.580 -19.098   2.766  1.00  0.00     0.034 A 
HETATM   15 CL   UNL     1      43.811 -20.417   1.686  1.00  0.00    -0.084 Cl
HETATM   16  C   UNL     1      42.834 -17.992   2.360  1.00  0.00     0.025 A 
HETATM   17  C   UNL     1      42.644 -16.917   3.236  1.00  0.00     0.018 A 
ENDBRANCH   8  11
ENDBRANCH   4   7
BRANCH   1  18
HETATM   18  N   UNL     1      43.349  -9.761   7.820  1.00  0.00    -0.326 N 
HETATM   19  C   UNL     1      43.448  -9.580   9.187  1.00  0.00     0.218 C 
HETATM   20  C   UNL     1      43.458  -8.122   9.569  1.00  0.00     0.117 C 
HETATM   21  O   UNL     1      43.532 -10.462  10.034  1.00  0.00    -0.274 OA
HETATM   22  H   UNL     1      43.284  -8.927   7.250  1.00  0.00     0.169 HD
ENDBRANCH   1  18
TORSDOF 3
ENDMDL
MODEL 3
REMARK VINA RESULT:      -6.8      4.442      5.247
REMARK  3 active torsions:
REMARK  status: ('A' for Active; 'I' for Inactive)
REMARK       I    between atoms: C_2  and  N_3 
REMARK    1  A    between atoms: N_3  and  C_4 
REMARK    2  A    between atoms: C_7  and  N_8 
REMARK       I    between atoms: N_8  and  C_9 
REMARK    3  A    between atoms: C_9  and  C_10 
ROOT
HETATM    1  C   UNL     1      42.199 -10.725   6.219  1.00  0.00     0.052 A 
HETATM    2  C   UNL     1      43.418 -11.267   5.833  1.00  0.00     0.148 A 
HETATM    3  N   UNL     1      43.573 -12.518   5.325  1.00  0.00    -0.241 NA
HETATM    4  C   UNL     1      42.469 -13.281   5.192  1.00  0.00     0.130 A 
HETATM    5  C   UNL     1      41.211 -12.833   5.561  1.00  0.00     0.053 A 
HETATM    6  C   UNL     1      41.078 -11.542   6.078  1.00  0.00     0.035 A 
ENDROOT
BRANCH   4   7
HETATM    7  N   UNL     1      42.733 -14.537   4.646  1.00  0.00    -0.307 N 
HETATM    8  C   UNL     1      43.337 -15.615   5.246  1.00  0.00     0.257 C 
HETATM    9  O   UNL     1      43.751 -15.662   6.400  1.00  0.00    -0.267 OA
HETATM   10  H   UNL     1      42.348 -14.616   3.716  1.00  0.00     0.170 HD
BRANCH   8  11
HETATM   11  C   UNL     1      43.459 -16.841   4.400  1.00  0.00     0.032 A 
HETATM   12  C   UNL     1      42.882 -16.820   3.121  1.00  0.00     0.018 A 
HETATM   13  C   UNL     1      42.971 -17.936   2.285  1.00  0.00     0.025 A 
HETATM   14  C   UNL     1      43.631 -19.080   2.729  1.00  0.00     0.034 A 
HETATM   15 CL   UNL     1      43.744 -20.455   1.701  1.00  0.00    -0.084 Cl
HETATM   16  C   UNL     1      44.193 -19.121   4.004  1.00  0.00     0.025 A 
HETATM   17  C   UNL     1      44.104 -18.005   4.844  1.00  0.00     0.018 A 
ENDBRANCH   8  11
ENDBRANCH   4   7
BRANCH   1  18
HETATM   18  N   UNL     1      42.006  -9.427   6.732  1.00  0.00    -0.326 N 
HETATM   19  C   UNL     1      41.627  -8.306   6.016  1.00  0.00     0.218 C 
HETATM   20  C   UNL     1      41.482  -7.091   6.896  1.00  0.00     0.117 C 
HETATM   21  O   UNL     1      41.411  -8.250   4.811  1.00  0.00    -0.274 OA
HETATM   22  H   UNL     1      42.150  -9.309   7.727  1.00  0.00     0.169 HD
ENDBRANCH   1  18
TORSDOF 3
ENDMDL
MODEL 4
REMARK VINA RESULT:      -6.7      6.441      8.912
REMARK  3 active torsions:
REMARK  status: ('A' for Active; 'I' for Inactive)
REMARK       I    between atoms: C_2  and  N_3 
REMARK    1  A    between atoms: N_3  and  C_4 
REMARK    2  A    between atoms: C_7  and  N_8 
REMARK       I    between atoms: N_8  and  C_9 
REMARK    3  A    between atoms: C_9  and  C_10 
ROOT
HETATM    1  C   UNL     1      43.185 -16.452   4.887  1.00  0.00     0.052 A 
HETATM    2  C   UNL     1      42.401 -15.318   4.718  1.00  0.00     0.148 A 
HETATM    3  N   UNL     1      42.486 -14.207   5.498  1.00  0.00    -0.241 NA
HETATM    4  C   UNL     1      43.389 -14.212   6.499  1.00  0.00     0.130 A 
HETATM    5  C   UNL     1      44.207 -15.301   6.754  1.00  0.00     0.053 A 
HETATM    6  C   UNL     1      44.101 -16.430   5.936  1.00  0.00     0.035 A 
ENDROOT
BRANCH   4   7
HETATM    7  N   UNL     1      43.409 -13.021   7.226  1.00  0.00    -0.307 N 
HETATM    8  C   UNL     1      44.330 -12.004   7.165  1.00  0.00     0.257 C 
HETATM    9  O   UNL     1      45.315 -11.964   6.436  1.00  0.00    -0.267 OA
HETATM   10  H   UNL     1      42.581 -12.932   7.797  1.00  0.00     0.170 HD
BRANCH   8  11
HETATM   11  C   UNL     1      44.063 -10.838   8.061  1.00  0.00     0.032 A 
HETATM   12  C   UNL     1      42.916 -10.066   7.816  1.00  0.00     0.018 A 
HETATM   13  C   UNL     1      42.615  -8.968   8.626  1.00  0.00     0.025 A 
HETATM   14  C   UNL     1      43.464  -8.633   9.679  1.00  0.00     0.034 A 
HETATM   15 CL   UNL     1      43.094  -7.283  10.679  1.00  0.00    -0.084 Cl
HETATM   16  C   UNL     1      44.616  -9.380   9.922  1.00  0.00     0.025 A 
HETATM   17  C   UNL     1      44.921 -10.480   9.111  1.00  0.00     0.018 A 
ENDBRANCH   8  11
ENDBRANCH   4   7
BRANCH   1  18
HETATM   18  N   UNL     1      43.131 -17.610   4.085  1.00  0.00    -0.326 N 
HETATM   19  C   UNL     1      43.291 -17.671   2.714  1.00  0.00     0.218 C 
HETATM   20  C   UNL     1      43.207 -19.083   2.193  1.00  0.00     0.117 C 
HETATM   21  O   UNL     1      43.492 -16.724   1.961  1.00  0.00    -0.274 OA
HETATM   22  H   UNL     1      42.968 -18.485   4.567  1.00  0.00     0.169 HD
ENDBRANCH   1  18
TORSDOF 3
ENDMDL
MODEL 5
REMARK VINA RESULT:      -6.7     11.010     12.351
REMARK  3 active torsions:
REMARK  status: ('A' for Active; 'I' for Inactive)
REMARK       I    between atoms: C_2  and  N_3 
REMARK    1  A    between atoms: N_3  and  C_4 
REMARK    2  A    between atoms: C_7  and  N_8 
REMARK       I    between atoms: N_8  and  C_9 
REMARK    3  A    between atoms: C_9  and  C_10 
ROOT
HETATM    1  C   UNL     1      41.769  -8.912  13.987  1.00  0.00     0.052 A 
HETATM    2  C   UNL     1      41.083  -9.777  13.143  1.00  0.00     0.148 A 
HETATM    3  N   UNL     1      41.463 -10.063  11.869  1.00  0.00    -0.241 NA
HETATM    4  C   UNL     1      42.576  -9.465  11.398  1.00  0.00     0.130 A 
HETATM    5  C   UNL     1      43.320  -8.578  12.161  1.00  0.00     0.053 A 
HETATM    6  C   UNL     1      42.910  -8.303  13.468  1.00  0.00     0.035 A 
ENDROOT
BRANCH   4   7
HETATM    7  N   UNL     1      42.888  -9.839  10.091  1.00  0.00    -0.307 N 
HETATM    8  C   UNL     1      43.986 -10.533   9.644  1.00  0.00     0.257 C 
HETATM    9  O   UNL     1      44.901 -10.961  10.339  1.00  0.00    -0.267 OA
HETATM   10  H   UNL     1      42.141  -9.596   9.457  1.00  0.00     0.170 HD
BRANCH   8  11
HETATM   11  C   UNL     1      44.026 -10.802   8.175  1.00  0.00     0.032 A 
HETATM   12  C   UNL     1      42.878 -10.514   7.420  1.00  0.00     0.018 A 
HETATM   13  C   UNL     1      42.862 -10.741   6.041  1.00  0.00     0.025 A 
HETATM   14  C   UNL     1      43.991 -11.263   5.414  1.00  0.00     0.034 A 
HETATM   15 CL   UNL     1      43.975 -11.540   3.716  1.00  0.00    -0.084 Cl
HETATM   16  C   UNL     1      45.132 -11.569   6.155  1.00  0.00     0.025 A 
HETATM   17  C   UNL     1      45.150 -11.345   7.536  1.00  0.00     0.018 A 
ENDBRANCH   8  11
ENDBRANCH   4   7
BRANCH   1  18
HETATM   18  N   UNL     1      41.409  -8.611  15.316  1.00  0.00    -0.326 N 
HETATM   19  C   UNL     1      40.965  -7.392  15.793  1.00  0.00     0.218 C 
HETATM   20  C   UNL     1      40.637  -7.442  17.264  1.00  0.00     0.117 C 
HETATM   21  O   UNL     1      40.824  -6.362  15.143  1.00  0.00    -0.274 OA
HETATM   22  H   UNL     1      41.474  -9.368  15.984  1.00  0.00     0.169 HD
ENDBRANCH   1  18
TORSDOF 3
ENDMDL
MODEL 6
REMARK VINA RESULT:      -6.7      4.201      4.904
REMARK  3 active torsions:
REMARK  status: ('A' for Active; 'I' for Inactive)
REMARK       I    between atoms: C_2  and  N_3 
REMARK    1  A    between atoms: N_3  and  C_4 
REMARK    2  A    between atoms: C_7  and  N_8 
REMARK       I    between atoms: N_8  and  C_9 
REMARK    3  A    between atoms: C_9  and  C_10 
ROOT
HETATM    1  C   UNL     1      40.881 -10.856   5.893  1.00  0.00     0.052 A 
HETATM    2  C   UNL     1      40.293 -12.095   6.117  1.00  0.00     0.148 A 
HETATM    3  N   UNL     1      40.736 -13.261   5.576  1.00  0.00    -0.241 NA
HETATM    4  C   UNL     1      41.814 -13.207   4.768  1.00  0.00     0.130 A 
HETATM    5  C   UNL     1      42.461 -12.017   4.475  1.00  0.00     0.053 A 
HETATM    6  C   UNL     1      41.987 -10.833   5.046  1.00  0.00     0.035 A 
ENDROOT
BRANCH   4   7
HETATM    7  N   UNL     1      42.197 -14.456   4.280  1.00  0.00    -0.307 N 
HETATM    8  C   UNL     1      43.018 -15.385   4.873  1.00  0.00     0.257 C 
HETATM    9  O   UNL     1      43.562 -15.275   5.966  1.00  0.00    -0.267 OA
HETATM   10  H   UNL     1      41.725 -14.666   3.413  1.00  0.00     0.170 HD
BRANCH   8  11
HETATM   11  C   UNL     1      43.222 -16.649   4.104  1.00  0.00     0.032 A 
HETATM   12  C   UNL     1      44.085 -17.618   4.642  1.00  0.00     0.018 A 
HETATM   13  C   UNL     1      44.308 -18.821   3.968  1.00  0.00     0.025 A 
HETATM   14  C   UNL     1      43.675 -19.057   2.749  1.00  0.00     0.034 A 
HETATM   15 CL   UNL     1      43.946 -20.539   1.919  1.00  0.00    -0.084 Cl
HETATM   16  C   UNL     1      42.830 -18.097   2.195  1.00  0.00     0.025 A 
HETATM   17  C   UNL     1      42.606 -16.890   2.867  1.00  0.00     0.018 A 
ENDBRANCH   8  11
ENDBRANCH   4   7
BRANCH   1  18
HETATM   18  N   UNL     1      40.455  -9.635   6.454  1.00  0.00    -0.326 N 
HETATM   19  C   UNL     1      39.171  -9.124   6.436  1.00  0.00     0.218 C 
HETATM   20  C   UNL     1      39.073  -7.808   7.165  1.00  0.00     0.117 C 
HETATM   21  O   UNL     1      38.188  -9.639   5.916  1.00  0.00    -0.274 OA
HETATM   22  H   UNL     1      41.162  -9.085   6.925  1.00  0.00     0.169 HD
ENDBRANCH   1  18
TORSDOF 3
ENDMDL
MODEL 7
REMARK VINA RESULT:      -6.6      7.424      9.213
REMARK  3 active torsions:
REMARK  status: ('A' for Active; 'I' for Inactive)
REMARK       I    between atoms: C_2  and  N_3 
REMARK    1  A    between atoms: N_3  and  C_4 
REMARK    2  A    between atoms: C_7  and  N_8 
REMARK       I    between atoms: N_8  and  C_9 
REMARK    3  A    between atoms: C_9  and  C_10 
ROOT
HETATM    1  C   UNL     1      43.209 -14.913   4.785  1.00  0.00     0.052 A 
HETATM    2  C   UNL     1      43.454 -15.140   6.134  1.00  0.00     0.148 A 
HETATM    3  N   UNL     1      43.490 -14.163   7.079  1.00  0.00    -0.241 NA
HETATM    4  C   UNL     1      43.275 -12.894   6.677  1.00  0.00     0.130 A 
HETATM    5  C   UNL     1      43.034 -12.568   5.352  1.00  0.00     0.053 A 
HETATM    6  C   UNL     1      43.000 -13.590   4.400  1.00  0.00     0.035 A 
ENDROOT
BRANCH   4   7
HETATM    7  N   UNL     1      43.315 -11.973   7.724  1.00  0.00    -0.307 N 
HETATM    8  C   UNL     1      44.297 -11.057   8.013  1.00  0.00     0.257 C 
HETATM    9  O   UNL     1      45.331 -10.881   7.378  1.00  0.00    -0.267 OA
HETATM   10  H   UNL     1      42.457 -11.992   8.255  1.00  0.00     0.170 HD
BRANCH   8  11
HETATM   11  C   UNL     1      44.038 -10.187   9.200  1.00  0.00     0.032 A 
HETATM   12  C   UNL     1      43.880 -10.805  10.451  1.00  0.00     0.018 A 
HETATM   13  C   UNL     1      43.642 -10.039  11.595  1.00  0.00     0.025 A 
HETATM   14  C   UNL     1      43.553  -8.652  11.491  1.00  0.00     0.034 A 
HETATM   15 CL   UNL     1      43.263  -7.707  12.899  1.00  0.00    -0.084 Cl
HETATM   16  C   UNL     1      43.691  -8.027  10.253  1.00  0.00     0.025 A 
HETATM   17  C   UNL     1      43.927  -8.792   9.105  1.00  0.00     0.018 A 
ENDBRANCH   8  11
ENDBRANCH   4   7
BRANCH   1  18
HETATM   18  N   UNL     1      43.149 -15.906   3.787  1.00  0.00    -0.326 N 
HETATM   19  C   UNL     1      42.022 -16.591   3.373  1.00  0.00     0.218 C 
HETATM   20  C   UNL     1      42.322 -17.559   2.257  1.00  0.00     0.117 C 
HETATM   21  O   UNL     1      40.886 -16.461   3.816  1.00  0.00    -0.274 OA
HETATM   22  H   UNL     1      44.019 -16.131   3.321  1.00  0.00     0.169 HD
ENDBRANCH   1  18
TORSDOF 3
ENDMDL
MODEL 8
REMARK VINA RESULT:      -6.5     15.479     16.691
REMARK  3 active torsions:
REMARK  status: ('A' for Active; 'I' for Inactive)
REMARK       I    between atoms: C_2  and  N_3 
REMARK    1  A    between atoms: N_3  and  C_4 
REMARK    2  A    between atoms: C_7  and  N_8 
REMARK       I    between atoms: N_8  and  C_9 
REMARK    3  A    between atoms: C_9  and  C_10 
ROOT
HETATM    1  C   UNL     1      42.331  -8.859  12.269  1.00  0.00     0.052 A 
HETATM    2  C   UNL     1      41.286  -9.469  12.951  1.00  0.00     0.148 A 
HETATM    3  N   UNL     1      40.983  -9.234  14.255  1.00  0.00    -0.241 NA
HETATM    4  C   UNL     1      41.751  -8.353  14.928  1.00  0.00     0.130 A 
HETATM    5  C   UNL     1      42.823  -7.703  14.337  1.00  0.00     0.053 A 
HETATM    6  C   UNL     1      43.112  -7.960  12.994  1.00  0.00     0.035 A 
ENDROOT
BRANCH   4   7
HETATM    7  N   UNL     1      41.347  -8.170  16.250  1.00  0.00    -0.307 N 
HETATM    8  C   UNL     1      40.757  -7.065  16.814  1.00  0.00     0.257 C 
HETATM    9  O   UNL     1      40.469  -6.024  16.233  1.00  0.00    -0.267 OA
HETATM   10  H   UNL     1      41.473  -9.016  16.787  1.00  0.00     0.170 HD
BRANCH   8  11
HETATM   11  C   UNL     1      40.418  -7.184  18.264  1.00  0.00     0.032 A 
HETATM   12  C   UNL     1      39.730  -8.331  18.690  1.00  0.00     0.018 A 
HETATM   13  C   UNL     1      39.394  -8.496  20.036  1.00  0.00     0.025 A 
HETATM   14  C   UNL     1      39.737  -7.512  20.960  1.00  0.00     0.034 A 
HETATM   15 CL   UNL     1      39.326  -7.714  22.618  1.00  0.00    -0.084 Cl
HETATM   16  C   UNL     1      40.405  -6.359  20.548  1.00  0.00     0.025 A 
HETATM   17  C   UNL     1      40.742  -6.190  19.199  1.00  0.00     0.018 A 
ENDBRANCH   8  11
ENDBRANCH   4   7
BRANCH   1  18
HETATM   18  N   UNL     1      42.657  -9.069  10.914  1.00  0.00    -0.326 N 
HETATM   19  C   UNL     1      43.396 -10.117  10.397  1.00  0.00     0.218 C 
HETATM   20  C   UNL     1      43.518 -10.041   8.897  1.00  0.00     0.117 C 
HETATM   21  O   UNL     1      43.906 -11.031  11.033  1.00  0.00    -0.274 OA
HETATM   22  H   UNL     1      42.304  -8.387  10.254  1.00  0.00     0.169 HD
ENDBRANCH   1  18
TORSDOF 3
ENDMDL
MODEL 9
REMARK VINA RESULT:      -6.5      4.031      8.497
REMARK  3 active torsions:
REMARK  status: ('A' for Active; 'I' for Inactive)
REMARK       I    between atoms: C_2  and  N_3 
REMARK    1  A    between atoms: N_3  and  C_4 
REMARK    2  A    between atoms: C_7  and  N_8 
REMARK       I    between atoms: N_8  and  C_9 
REMARK    3  A    between atoms: C_9  and  C_10 
ROOT
HETATM    1  C   UNL     1      42.901 -17.169   3.401  1.00  0.00     0.052 A 
HETATM    2  C   UNL     1      41.708 -16.469   3.531  1.00  0.00     0.148 A 
HETATM    3  N   UNL     1      41.242 -15.576   2.618  1.00  0.00    -0.241 NA
HETATM    4  C   UNL     1      41.991 -15.356   1.518  1.00  0.00     0.130 A 
HETATM    5  C   UNL     1      43.201 -15.997   1.306  1.00  0.00     0.053 A 
HETATM    6  C   UNL     1      43.656 -16.913   2.259  1.00  0.00     0.035 A 
ENDROOT
BRANCH   4   7
HETATM    7  N   UNL     1      41.417 -14.438   0.638  1.00  0.00    -0.307 N 
HETATM    8  C   UNL     1      40.264 -14.572  -0.097  1.00  0.00     0.257 C 
HETATM    9  O   UNL     1      39.517 -15.544  -0.098  1.00  0.00    -0.267 OA
HETATM   10  H   UNL     1      41.928 -13.567   0.640  1.00  0.00     0.170 HD
BRANCH   8  11
HETATM   11  C   UNL     1      39.896 -13.394  -0.939  1.00  0.00     0.032 A 
HETATM   12  C   UNL     1      38.819 -13.529  -1.829  1.00  0.00     0.018 A 
HETATM   13  C   UNL     1      38.428 -12.458  -2.636  1.00  0.00     0.025 A 
HETATM   14  C   UNL     1      39.118 -11.249  -2.562  1.00  0.00     0.034 A 
HETATM   15 CL   UNL     1      38.637  -9.928  -3.553  1.00  0.00    -0.084 Cl
HETATM   16  C   UNL     1      40.200 -11.107  -1.695  1.00  0.00     0.025 A 
HETATM   17  C   UNL     1      40.596 -12.179  -0.886  1.00  0.00     0.018 A 
ENDBRANCH   8  11
ENDBRANCH   4   7
BRANCH   1  18
HETATM   18  N   UNL     1      43.399 -18.113   4.322  1.00  0.00    -0.326 N 
HETATM   19  C   UNL     1      43.755 -19.421   4.050  1.00  0.00     0.218 C 
HETATM   20  C   UNL     1      44.284 -20.132   5.269  1.00  0.00     0.117 C 
HETATM   21  O   UNL     1      43.682 -19.985   2.964  1.00  0.00    -0.274 OA
HETATM   22  H   UNL     1      43.517 -17.794   5.275  1.00  0.00     0.169 HD
ENDBRANCH   1  18
TORSDOF 3
ENDMDL
MODEL 10
REMARK VINA RESULT:      -6.4     14.998     18.327
REMARK  3 active torsions:
REMARK  status: ('A' for Active; 'I' for Inactive)
REMARK       I    between atoms: C_2  and  N_3 
REMARK    1  A    between atoms: N_3  and  C_4 
REMARK    2  A    between atoms: C_7  and  N_8 
REMARK       I    between atoms: N_8  and  C_9 
REMARK    3  A    between atoms: C_9  and  C_10 
ROOT
HETATM    1  C   UNL     1      50.589 -31.125   4.788  1.00  0.00     0.052 A 
HETATM    2  C   UNL     1      49.212 -31.236   4.641  1.00  0.00     0.148 A 
HETATM    3  N   UNL     1      48.520 -30.785   3.561  1.00  0.00    -0.241 NA
HETATM    4  C   UNL     1      49.218 -30.191   2.573  1.00  0.00     0.130 A 
HETATM    5  C   UNL     1      50.593 -30.024   2.634  1.00  0.00     0.053 A 
HETATM    6  C   UNL     1      51.281 -30.498   3.754  1.00  0.00     0.035 A 
ENDROOT
BRANCH   4   7
HETATM    7  N   UNL     1      48.419 -29.782   1.506  1.00  0.00    -0.307 N 
HETATM    8  C   UNL     1      47.641 -28.653   1.410  1.00  0.00     0.257 C 
HETATM    9  O   UNL     1      47.521 -27.784   2.266  1.00  0.00    -0.267 OA
HETATM   10  H   UNL     1      48.523 -30.403   0.717  1.00  0.00     0.170 HD
BRANCH   8  11
HETATM   11  C   UNL     1      46.911 -28.481   0.117  1.00  0.00     0.032 A 
HETATM   12  C   UNL     1      47.661 -28.185  -1.031  1.00  0.00     0.018 A 
HETATM   13  C   UNL     1      47.030 -28.020  -2.267  1.00  0.00     0.025 A 
HETATM   14  C   UNL     1      45.645 -28.143  -2.357  1.00  0.00     0.034 A 
HETATM   15 CL   UNL     1      44.867 -27.942  -3.878  1.00  0.00    -0.084 Cl
HETATM   16  C   UNL     1      44.886 -28.419  -1.221  1.00  0.00     0.025 A 
HETATM   17  C   UNL     1      45.515 -28.583   0.019  1.00  0.00     0.018 A 
ENDBRANCH   8  11
ENDBRANCH   4   7
BRANCH   1  18
HETATM   18  N   UNL     1      51.335 -31.598   5.887  1.00  0.00    -0.326 N 
HETATM   19  C   UNL     1      51.990 -32.812   5.977  1.00  0.00     0.218 C 
HETATM   20  C   UNL     1      52.718 -32.970   7.287  1.00  0.00     0.117 C 
HETATM   21  O   UNL     1      52.019 -33.689   5.121  1.00  0.00    -0.274 OA
HETATM   22  H   UNL     1      51.404 -30.979   6.685  1.00  0.00     0.169 HD
ENDBRANCH   1  18
TORSDOF 3
ENDMDL
