MODEL 1
REMARK VINA RESULT:      -8.6      0.000      0.000
REMARK  4 active torsions:
REMARK  status: ('A' for Active; 'I' for Inactive)
REMARK    1  A    between atoms: C_4  and  N_5 
REMARK       I    between atoms: N_5  and  C_6 
REMARK       I    between atoms: C_6  and  N_7 
REMARK    2  A    between atoms: N_7  and  C_8 
REMARK    3  A    between atoms: C_8  and  C_9 
REMARK    4  A    between atoms: C_12  and  C_13 
ROOT
HETATM    1  N   UNL     1      43.922 -16.754   4.778  1.00  0.00    -0.309 N 
HETATM    2  C   UNL     1      42.977 -15.780   4.809  1.00  0.00     0.321 C 
HETATM    3  N   UNL     1      41.787 -16.017   4.203  1.00  0.00    -0.335 N 
HETATM    4  O   UNL     1      43.240 -14.704   5.343  1.00  0.00    -0.247 OA
HETATM    5  H   UNL     1      44.811 -16.394   5.106  1.00  0.00     0.170 HD
HETATM    6  H   UNL     1      41.830 -16.620   3.392  1.00  0.00     0.164 HD
ENDROOT
BRANCH   3   7
HETATM    7  C   UNL     1      40.803 -14.954   4.143  1.00  0.00     0.213 C 
BRANCH   7   8
HETATM    8  C   UNL     1      40.675 -14.441   2.759  1.00  0.00     0.190 A 
HETATM    9  O   UNL     1      41.666 -13.606   2.337  1.00  0.00    -0.194 OA
HETATM   10  N   UNL     1      41.365 -13.264   1.025  1.00  0.00    -0.106 NA
HETATM   11  C   UNL     1      40.220 -13.922   0.772  1.00  0.00     0.189 A 
HETATM   12  N   UNL     1      39.764 -14.675   1.838  1.00  0.00    -0.202 NA
BRANCH  11  13
HETATM   13  C   UNL     1      39.518 -13.861  -0.507  1.00  0.00     0.014 A 
HETATM   14  C   UNL     1      39.457 -14.989  -1.338  1.00  0.00     0.015 A 
HETATM   15  C   UNL     1      38.786 -14.934  -2.564  1.00  0.00     0.001 A 
HETATM   16  C   UNL     1      38.171 -13.752  -2.971  1.00  0.00     0.000 A 
HETATM   17  C   UNL     1      38.223 -12.624  -2.156  1.00  0.00     0.001 A 
HETATM   18  C   UNL     1      38.893 -12.678  -0.931  1.00  0.00     0.015 A 
ENDBRANCH  11  13
ENDBRANCH   7   8
ENDBRANCH   3   7
BRANCH   1  19
HETATM   19  C   UNL     1      43.896 -18.121   4.447  1.00  0.00     0.036 A 
HETATM   20  C   UNL     1      43.778 -18.625   3.149  1.00  0.00     0.036 A 
HETATM   21  C   UNL     1      43.768 -20.011   2.913  1.00  0.00    -0.060 A 
HETATM   22  C   UNL     1      43.616 -20.542   1.517  1.00  0.00     0.048 C 
HETATM   23  C   UNL     1      43.830 -20.893   3.997  1.00  0.00     0.007 A 
HETATM   24  C   UNL     1      43.916 -20.401   5.295  1.00  0.00     0.003 A 
HETATM   25  C   UNL     1      43.946 -19.024   5.517  1.00  0.00     0.029 A 
ENDBRANCH   1  19
TORSDOF 4
ENDMDL
MODEL 2
REMARK VINA RESULT:      -8.3      1.336      7.831
REMARK  4 active torsions:
REMARK  status: ('A' for Active; 'I' for Inactive)
REMARK    1  A    between atoms: C_4  and  N_5 
REMARK       I    between atoms: N_5  and  C_6 
REMARK       I    between atoms: C_6  and  N_7 
REMARK    2  A    between atoms: N_7  and  C_8 
REMARK    3  A    between atoms: C_8  and  C_9 
REMARK    4  A    between atoms: C_12  and  C_13 
ROOT
HETATM    1  N   UNL     1      39.515 -13.408   1.208  1.00  0.00    -0.309 N 
HETATM    2  C   UNL     1      40.475 -13.298   2.161  1.00  0.00     0.321 C 
HETATM    3  N   UNL     1      41.772 -13.247   1.767  1.00  0.00    -0.335 N 
HETATM    4  O   UNL     1      40.147 -13.291   3.347  1.00  0.00    -0.247 OA
HETATM    5  H   UNL     1      38.617 -13.611   1.632  1.00  0.00     0.170 HD
HETATM    6  H   UNL     1      41.987 -13.766   0.927  1.00  0.00     0.164 HD
ENDROOT
BRANCH   3   7
HETATM    7  C   UNL     1      42.813 -13.225   2.775  1.00  0.00     0.213 C 
BRANCH   7   8
HETATM    8  C   UNL     1      43.037 -14.584   3.321  1.00  0.00     0.190 A 
HETATM    9  O   UNL     1      43.102 -14.680   4.679  1.00  0.00    -0.194 OA
HETATM   10  N   UNL     1      43.294 -16.023   4.974  1.00  0.00    -0.106 NA
HETATM   11  C   UNL     1      43.327 -16.619   3.769  1.00  0.00     0.189 A 
HETATM   12  N   UNL     1      43.162 -15.744   2.711  1.00  0.00    -0.202 NA
BRANCH  11  13
HETATM   13  C   UNL     1      43.512 -18.055   3.582  1.00  0.00     0.014 A 
HETATM   14  C   UNL     1      43.961 -18.857   4.641  1.00  0.00     0.015 A 
HETATM   15  C   UNL     1      44.141 -20.233   4.466  1.00  0.00     0.001 A 
HETATM   16  C   UNL     1      43.873 -20.820   3.230  1.00  0.00     0.000 A 
HETATM   17  C   UNL     1      43.428 -20.036   2.169  1.00  0.00     0.001 A 
HETATM   18  C   UNL     1      43.248 -18.661   2.343  1.00  0.00     0.015 A 
ENDBRANCH  11  13
ENDBRANCH   7   8
ENDBRANCH   3   7
BRANCH   1  19
HETATM   19  C   UNL     1      39.513 -13.250  -0.190  1.00  0.00     0.036 A 
HETATM   20  C   UNL     1      39.313 -12.037  -0.855  1.00  0.00     0.036 A 
HETATM   21  C   UNL     1      39.335 -11.974  -2.259  1.00  0.00    -0.060 A 
HETATM   22  C   UNL     1      39.095 -10.670  -2.964  1.00  0.00     0.048 C 
HETATM   23  C   UNL     1      39.512 -13.149  -2.997  1.00  0.00     0.007 A 
HETATM   24  C   UNL     1      39.680 -14.366  -2.345  1.00  0.00     0.003 A 
HETATM   25  C   UNL     1      39.677 -14.415  -0.950  1.00  0.00     0.029 A 
ENDBRANCH   1  19
TORSDOF 4
ENDMDL
MODEL 3
REMARK VINA RESULT:      -8.2      1.185      1.543
REMARK  4 active torsions:
REMARK  status: ('A' for Active; 'I' for Inactive)
REMARK    1  A    between atoms: C_4  and  N_5 
REMARK       I    between atoms: N_5  and  C_6 
REMARK       I    between atoms: C_6  and  N_7 
REMARK    2  A    between atoms: N_7  and  C_8 
REMARK    3  A    between atoms: C_8  and  C_9 
REMARK    4  A    between atoms: C_12  and  C_13 
ROOT
HETATM    1  N   UNL     1      43.714 -16.481   4.396  1.00  0.00    -0.309 N 
HETATM    2  C   UNL     1      42.703 -15.577   4.341  1.00  0.00     0.321 C 
HETATM    3  N   UNL     1      41.532 -15.952   3.769  1.00  0.00    -0.335 N 
HETATM    4  O   UNL     1      42.892 -14.439   4.769  1.00  0.00    -0.247 OA
HETATM    5  H   UNL     1      44.576 -16.032   4.681  1.00  0.00     0.170 HD
HETATM    6  H   UNL     1      41.616 -16.624   3.018  1.00  0.00     0.164 HD
ENDROOT
BRANCH   3   7
HETATM    7  C   UNL     1      40.477 -14.969   3.616  1.00  0.00     0.213 C 
BRANCH   7   8
HETATM    8  C   UNL     1      40.227 -14.693   2.183  1.00  0.00     0.190 A 
HETATM    9  O   UNL     1      40.064 -15.784   1.383  1.00  0.00    -0.194 OA
HETATM   10  N   UNL     1      39.824 -15.305   0.102  1.00  0.00    -0.106 NA
HETATM   11  C   UNL     1      39.863 -13.968   0.242  1.00  0.00     0.189 A 
HETATM   12  N   UNL     1      40.107 -13.552   1.537  1.00  0.00    -0.202 NA
BRANCH  11  13
HETATM   13  C   UNL     1      39.660 -13.034  -0.862  1.00  0.00     0.014 A 
HETATM   14  C   UNL     1      40.731 -12.271  -1.351  1.00  0.00     0.015 A 
HETATM   15  C   UNL     1      40.541 -11.373  -2.407  1.00  0.00     0.001 A 
HETATM   16  C   UNL     1      39.281 -11.230  -2.983  1.00  0.00     0.000 A 
HETATM   17  C   UNL     1      38.208 -11.980  -2.508  1.00  0.00     0.001 A 
HETATM   18  C   UNL     1      38.397 -12.877  -1.453  1.00  0.00     0.015 A 
ENDBRANCH  11  13
ENDBRANCH   7   8
ENDBRANCH   3   7
BRANCH   1  19
HETATM   19  C   UNL     1      43.783 -17.872   4.195  1.00  0.00     0.036 A 
HETATM   20  C   UNL     1      43.651 -18.508   2.957  1.00  0.00     0.036 A 
HETATM   21  C   UNL     1      43.741 -19.906   2.852  1.00  0.00    -0.060 A 
HETATM   22  C   UNL     1      43.574 -20.580   1.521  1.00  0.00     0.048 C 
HETATM   23  C   UNL     1      43.918 -20.672   4.009  1.00  0.00     0.007 A 
HETATM   24  C   UNL     1      44.019 -20.051   5.250  1.00  0.00     0.003 A 
HETATM   25  C   UNL     1      43.949 -18.660   5.341  1.00  0.00     0.029 A 
ENDBRANCH   1  19
TORSDOF 4
ENDMDL
MODEL 4
REMARK VINA RESULT:      -8.1      4.483      7.351
REMARK  4 active torsions:
REMARK  status: ('A' for Active; 'I' for Inactive)
REMARK    1  A    between atoms: C_4  and  N_5 
REMARK       I    between atoms: N_5  and  C_6 
REMARK       I    between atoms: C_6  and  N_7 
REMARK    2  A    between atoms: N_7  and  C_8 
REMARK    3  A    between atoms: C_8  and  C_9 
REMARK    4  A    between atoms: C_12  and  C_13 
ROOT
HETATM    1  N   UNL     1      41.583 -15.725   3.291  1.00  0.00    -0.309 N 
HETATM    2  C   UNL     1      41.726 -14.393   3.075  1.00  0.00     0.321 C 
HETATM    3  N   UNL     1      42.954 -13.841   3.237  1.00  0.00    -0.335 N 
HETATM    4  O   UNL     1      40.736 -13.722   2.784  1.00  0.00    -0.247 OA
HETATM    5  H   UNL     1      40.601 -15.977   3.309  1.00  0.00     0.170 HD
HETATM    6  H   UNL     1      43.532 -14.278   3.943  1.00  0.00     0.164 HD
ENDROOT
BRANCH   3   7
HETATM    7  C   UNL     1      43.103 -12.405   3.104  1.00  0.00     0.213 C 
BRANCH   7   8
HETATM    8  C   UNL     1      43.890 -11.857   4.233  1.00  0.00     0.190 A 
HETATM    9  O   UNL     1      45.195 -11.569   3.968  1.00  0.00    -0.194 OA
HETATM   10  N   UNL     1      45.735 -11.056   5.140  1.00  0.00    -0.106 NA
HETATM   11  C   UNL     1      44.709 -11.079   6.008  1.00  0.00     0.189 A 
HETATM   12  N   UNL     1      43.535 -11.571   5.468  1.00  0.00    -0.202 NA
BRANCH  11  13
HETATM   13  C   UNL     1      44.809 -10.625   7.392  1.00  0.00     0.014 A 
HETATM   14  C   UNL     1      45.829  -9.743   7.777  1.00  0.00     0.015 A 
HETATM   15  C   UNL     1      45.931  -9.306   9.102  1.00  0.00     0.001 A 
HETATM   16  C   UNL     1      45.013  -9.746  10.054  1.00  0.00     0.000 A 
HETATM   17  C   UNL     1      43.995 -10.622   9.687  1.00  0.00     0.001 A 
HETATM   18  C   UNL     1      43.893 -11.059   8.363  1.00  0.00     0.015 A 
ENDBRANCH  11  13
ENDBRANCH   7   8
ENDBRANCH   3   7
BRANCH   1  19
HETATM   19  C   UNL     1      42.493 -16.787   3.435  1.00  0.00     0.036 A 
HETATM   20  C   UNL     1      42.607 -17.866   2.553  1.00  0.00     0.036 A 
HETATM   21  C   UNL     1      43.554 -18.881   2.775  1.00  0.00    -0.060 A 
HETATM   22  C   UNL     1      43.651 -20.047   1.835  1.00  0.00     0.048 C 
HETATM   23  C   UNL     1      44.359 -18.831   3.918  1.00  0.00     0.007 A 
HETATM   24  C   UNL     1      44.232 -17.778   4.818  1.00  0.00     0.003 A 
HETATM   25  C   UNL     1      43.303 -16.765   4.578  1.00  0.00     0.029 A 
ENDBRANCH   1  19
TORSDOF 4
ENDMDL
MODEL 5
REMARK VINA RESULT:      -8.0      4.144      7.879
REMARK  4 active torsions:
REMARK  status: ('A' for Active; 'I' for Inactive)
REMARK    1  A    between atoms: C_4  and  N_5 
REMARK       I    between atoms: N_5  and  C_6 
REMARK       I    between atoms: C_6  and  N_7 
REMARK    2  A    between atoms: N_7  and  C_8 
REMARK    3  A    between atoms: C_8  and  C_9 
REMARK    4  A    between atoms: C_12  and  C_13 
ROOT
HETATM    1  N   UNL     1      42.488 -10.815   5.926  1.00  0.00    -0.309 N 
HETATM    2  C   UNL     1      41.617 -11.817   5.643  1.00  0.00     0.321 C 
HETATM    3  N   UNL     1      41.984 -13.091   5.929  1.00  0.00    -0.335 N 
HETATM    4  O   UNL     1      40.547 -11.547   5.100  1.00  0.00    -0.247 OA
HETATM    5  H   UNL     1      42.174  -9.946   5.511  1.00  0.00     0.170 HD
HETATM    6  H   UNL     1      42.975 -13.280   5.854  1.00  0.00     0.164 HD
ENDROOT
BRANCH   3   7
HETATM    7  C   UNL     1      41.106 -14.179   5.546  1.00  0.00     0.213 C 
BRANCH   7   8
HETATM    8  C   UNL     1      41.840 -15.179   4.736  1.00  0.00     0.190 A 
HETATM    9  O   UNL     1      42.518 -14.695   3.658  1.00  0.00    -0.194 OA
HETATM   10  N   UNL     1      43.142 -15.782   3.060  1.00  0.00    -0.106 NA
HETATM   11  C   UNL     1      42.787 -16.825   3.831  1.00  0.00     0.189 A 
HETATM   12  N   UNL     1      41.976 -16.479   4.895  1.00  0.00    -0.202 NA
BRANCH  11  13
HETATM   13  C   UNL     1      43.218 -18.198   3.582  1.00  0.00     0.014 A 
HETATM   14  C   UNL     1      43.744 -18.977   4.622  1.00  0.00     0.015 A 
HETATM   15  C   UNL     1      44.159 -20.291   4.387  1.00  0.00     0.001 A 
HETATM   16  C   UNL     1      44.050 -20.840   3.111  1.00  0.00     0.000 A 
HETATM   17  C   UNL     1      43.530 -20.079   2.068  1.00  0.00     0.001 A 
HETATM   18  C   UNL     1      43.115 -18.765   2.302  1.00  0.00     0.015 A 
ENDBRANCH  11  13
ENDBRANCH   7   8
ENDBRANCH   3   7
BRANCH   1  19
HETATM   19  C   UNL     1      43.663 -10.740   6.696  1.00  0.00     0.036 A 
HETATM   20  C   UNL     1      43.730 -10.260   8.007  1.00  0.00     0.036 A 
HETATM   21  C   UNL     1      44.951 -10.229   8.702  1.00  0.00    -0.060 A 
HETATM   22  C   UNL     1      45.015  -9.688  10.100  1.00  0.00     0.048 C 
HETATM   23  C   UNL     1      46.120 -10.641   8.054  1.00  0.00     0.007 A 
HETATM   24  C   UNL     1      46.070 -11.091   6.739  1.00  0.00     0.003 A 
HETATM   25  C   UNL     1      44.849 -11.137   6.065  1.00  0.00     0.029 A 
ENDBRANCH   1  19
TORSDOF 4
ENDMDL
MODEL 6
REMARK VINA RESULT:      -7.9      5.325      8.650
REMARK  4 active torsions:
REMARK  status: ('A' for Active; 'I' for Inactive)
REMARK    1  A    between atoms: C_4  and  N_5 
REMARK       I    between atoms: N_5  and  C_6 
REMARK       I    between atoms: C_6  and  N_7 
REMARK    2  A    between atoms: N_7  and  C_8 
REMARK    3  A    between atoms: C_8  and  C_9 
REMARK    4  A    between atoms: C_12  and  C_13 
ROOT
HETATM    1  N   UNL     1      44.964 -10.474   7.315  1.00  0.00    -0.309 N 
HETATM    2  C   UNL     1      44.367 -10.988   6.210  1.00  0.00     0.321 C 
HETATM    3  N   UNL     1      43.033 -11.230   6.251  1.00  0.00    -0.335 N 
HETATM    4  O   UNL     1      45.054 -11.258   5.226  1.00  0.00    -0.247 OA
HETATM    5  H   UNL     1      45.972 -10.505   7.219  1.00  0.00     0.170 HD
HETATM    6  H   UNL     1      42.671 -11.493   7.158  1.00  0.00     0.164 HD
ENDROOT
BRANCH   3   7
HETATM    7  C   UNL     1      42.398 -11.867   5.114  1.00  0.00     0.213 C 
BRANCH   7   8
HETATM    8  C   UNL     1      42.601 -13.334   5.159  1.00  0.00     0.190 A 
HETATM    9  O   UNL     1      42.379 -13.931   6.363  1.00  0.00    -0.194 OA
HETATM   10  N   UNL     1      42.603 -15.289   6.180  1.00  0.00    -0.106 NA
HETATM   11  C   UNL     1      42.939 -15.391   4.882  1.00  0.00     0.189 A 
HETATM   12  N   UNL     1      42.941 -14.183   4.212  1.00  0.00    -0.202 NA
BRANCH  11  13
HETATM   13  C   UNL     1      43.268 -16.655   4.229  1.00  0.00     0.014 A 
HETATM   14  C   UNL     1      42.729 -16.966   2.972  1.00  0.00     0.015 A 
HETATM   15  C   UNL     1      43.040 -18.176   2.344  1.00  0.00     0.001 A 
HETATM   16  C   UNL     1      43.892 -19.087   2.965  1.00  0.00     0.000 A 
HETATM   17  C   UNL     1      44.435 -18.792   4.213  1.00  0.00     0.001 A 
HETATM   18  C   UNL     1      44.124 -17.583   4.842  1.00  0.00     0.015 A 
ENDBRANCH  11  13
ENDBRANCH   7   8
ENDBRANCH   3   7
BRANCH   1  19
HETATM   19  C   UNL     1      44.476  -9.884   8.495  1.00  0.00     0.036 A 
HETATM   20  C   UNL     1      44.161 -10.579   9.665  1.00  0.00     0.036 A 
HETATM   21  C   UNL     1      43.685  -9.901  10.800  1.00  0.00    -0.060 A 
HETATM   22  C   UNL     1      43.326 -10.661  12.044  1.00  0.00     0.048 C 
HETATM   23  C   UNL     1      43.481  -8.518  10.739  1.00  0.00     0.007 A 
HETATM   24  C   UNL     1      43.761  -7.821   9.569  1.00  0.00     0.003 A 
HETATM   25  C   UNL     1      44.253  -8.501   8.454  1.00  0.00     0.029 A 
ENDBRANCH   1  19
TORSDOF 4
ENDMDL
MODEL 7
REMARK VINA RESULT:      -7.9      5.976      8.947
REMARK  4 active torsions:
REMARK  status: ('A' for Active; 'I' for Inactive)
REMARK    1  A    between atoms: C_4  and  N_5 
REMARK       I    between atoms: N_5  and  C_6 
REMARK       I    between atoms: C_6  and  N_7 
REMARK    2  A    between atoms: N_7  and  C_8 
REMARK    3  A    between atoms: C_8  and  C_9 
REMARK    4  A    between atoms: C_12  and  C_13 
ROOT
HETATM    1  N   UNL     1      41.685 -14.498   5.791  1.00  0.00    -0.309 N 
HETATM    2  C   UNL     1      42.077 -13.199   5.778  1.00  0.00     0.321 C 
HETATM    3  N   UNL     1      43.405 -12.926   5.796  1.00  0.00    -0.335 N 
HETATM    4  O   UNL     1      41.223 -12.313   5.795  1.00  0.00    -0.247 OA
HETATM    5  H   UNL     1      40.687 -14.565   5.952  1.00  0.00     0.170 HD
HETATM    6  H   UNL     1      43.975 -13.594   6.296  1.00  0.00     0.164 HD
ENDROOT
BRANCH   3   7
HETATM    7  C   UNL     1      43.838 -11.545   5.879  1.00  0.00     0.213 C 
BRANCH   7   8
HETATM    8  C   UNL     1      44.072 -11.156   7.289  1.00  0.00     0.190 A 
HETATM    9  O   UNL     1      45.315 -11.413   7.782  1.00  0.00    -0.194 OA
HETATM   10  N   UNL     1      45.324 -10.959   9.094  1.00  0.00    -0.106 NA
HETATM   11  C   UNL     1      44.086 -10.468   9.277  1.00  0.00     0.189 A 
HETATM   12  N   UNL     1      43.277 -10.571   8.161  1.00  0.00    -0.202 NA
BRANCH  11  13
HETATM   13  C   UNL     1      43.628  -9.873  10.529  1.00  0.00     0.014 A 
HETATM   14  C   UNL     1      43.647  -8.482  10.703  1.00  0.00     0.015 A 
HETATM   15  C   UNL     1      43.211  -7.908  11.902  1.00  0.00     0.001 A 
HETATM   16  C   UNL     1      42.752  -8.720  12.937  1.00  0.00     0.000 A 
HETATM   17  C   UNL     1      42.728 -10.103  12.780  1.00  0.00     0.001 A 
HETATM   18  C   UNL     1      43.163 -10.677  11.582  1.00  0.00     0.015 A 
ENDBRANCH  11  13
ENDBRANCH   7   8
ENDBRANCH   3   7
BRANCH   1  19
HETATM   19  C   UNL     1      42.356 -15.716   5.581  1.00  0.00     0.036 A 
HETATM   20  C   UNL     1      42.616 -16.278   4.328  1.00  0.00     0.036 A 
HETATM   21  C   UNL     1      43.303 -17.500   4.215  1.00  0.00    -0.060 A 
HETATM   22  C   UNL     1      43.554 -18.107   2.865  1.00  0.00     0.048 C 
HETATM   23  C   UNL     1      43.687 -18.182   5.374  1.00  0.00     0.007 A 
HETATM   24  C   UNL     1      43.405 -17.646   6.627  1.00  0.00     0.003 A 
HETATM   25  C   UNL     1      42.742 -16.423   6.728  1.00  0.00     0.029 A 
ENDBRANCH   1  19
TORSDOF 4
ENDMDL
MODEL 8
REMARK VINA RESULT:      -7.7      1.911      7.698
REMARK  4 active torsions:
REMARK  status: ('A' for Active; 'I' for Inactive)
REMARK    1  A    between atoms: C_4  and  N_5 
REMARK       I    between atoms: N_5  and  C_6 
REMARK       I    between atoms: C_6  and  N_7 
REMARK    2  A    between atoms: N_7  and  C_8 
REMARK    3  A    between atoms: C_8  and  C_9 
REMARK    4  A    between atoms: C_12  and  C_13 
ROOT
HETATM    1  N   UNL     1      39.914 -11.419   0.867  1.00  0.00    -0.309 N 
HETATM    2  C   UNL     1      40.782 -11.375   1.910  1.00  0.00     0.321 C 
HETATM    3  N   UNL     1      41.881 -12.168   1.869  1.00  0.00    -0.335 N 
HETATM    4  O   UNL     1      40.526 -10.655   2.875  1.00  0.00    -0.247 OA
HETATM    5  H   UNL     1      39.061 -10.921   1.095  1.00  0.00     0.170 HD
HETATM    6  H   UNL     1      41.759 -13.046   1.382  1.00  0.00     0.164 HD
ENDROOT
BRANCH   3   7
HETATM    7  C   UNL     1      42.766 -12.204   3.016  1.00  0.00     0.213 C 
BRANCH   7   8
HETATM    8  C   UNL     1      42.936 -13.594   3.498  1.00  0.00     0.190 A 
HETATM    9  O   UNL     1      42.847 -13.775   4.846  1.00  0.00    -0.194 OA
HETATM   10  N   UNL     1      43.014 -15.134   5.077  1.00  0.00    -0.106 NA
HETATM   11  C   UNL     1      43.188 -15.653   3.849  1.00  0.00     0.189 A 
HETATM   12  N   UNL     1      43.139 -14.714   2.836  1.00  0.00    -0.202 NA
BRANCH  11  13
HETATM   13  C   UNL     1      43.404 -17.074   3.595  1.00  0.00     0.014 A 
HETATM   14  C   UNL     1      42.856 -17.684   2.458  1.00  0.00     0.015 A 
HETATM   15  C   UNL     1      43.059 -19.046   2.212  1.00  0.00     0.001 A 
HETATM   16  C   UNL     1      43.813 -19.811   3.100  1.00  0.00     0.000 A 
HETATM   17  C   UNL     1      44.363 -19.220   4.234  1.00  0.00     0.001 A 
HETATM   18  C   UNL     1      44.160 -17.859   4.481  1.00  0.00     0.015 A 
ENDBRANCH  11  13
ENDBRANCH   7   8
ENDBRANCH   3   7
BRANCH   1  19
HETATM   19  C   UNL     1      39.987 -11.951  -0.433  1.00  0.00     0.036 A 
HETATM   20  C   UNL     1      39.381 -13.141  -0.844  1.00  0.00     0.036 A 
HETATM   21  C   UNL     1      39.503 -13.592  -2.169  1.00  0.00    -0.060 A 
HETATM   22  C   UNL     1      38.869 -14.885  -2.593  1.00  0.00     0.048 C 
HETATM   23  C   UNL     1      40.280 -12.861  -3.074  1.00  0.00     0.007 A 
HETATM   24  C   UNL     1      40.914 -11.691  -2.667  1.00  0.00     0.003 A 
HETATM   25  C   UNL     1      40.769 -11.242  -1.354  1.00  0.00     0.029 A 
ENDBRANCH   1  19
TORSDOF 4
ENDMDL
MODEL 9
REMARK VINA RESULT:      -7.5      5.271      8.234
REMARK  4 active torsions:
REMARK  status: ('A' for Active; 'I' for Inactive)
REMARK    1  A    between atoms: C_4  and  N_5 
REMARK       I    between atoms: N_5  and  C_6 
REMARK       I    between atoms: C_6  and  N_7 
REMARK    2  A    between atoms: N_7  and  C_8 
REMARK    3  A    between atoms: C_8  and  C_9 
REMARK    4  A    between atoms: C_12  and  C_13 
ROOT
HETATM    1  N   UNL     1      41.516 -14.443   3.565  1.00  0.00    -0.309 N 
HETATM    2  C   UNL     1      41.896 -13.150   3.721  1.00  0.00     0.321 C 
HETATM    3  N   UNL     1      43.165 -12.895   4.124  1.00  0.00    -0.335 N 
HETATM    4  O   UNL     1      41.072 -12.255   3.536  1.00  0.00    -0.247 OA
HETATM    5  H   UNL     1      40.513 -14.504   3.434  1.00  0.00     0.170 HD
HETATM    6  H   UNL     1      43.571 -13.591   4.735  1.00  0.00     0.164 HD
ENDROOT
BRANCH   3   7
HETATM    7  C   UNL     1      43.558 -11.524   4.387  1.00  0.00     0.213 C 
BRANCH   7   8
HETATM    8  C   UNL     1      43.774 -11.314   5.838  1.00  0.00     0.190 A 
HETATM    9  O   UNL     1      44.636 -12.177   6.445  1.00  0.00    -0.194 OA
HETATM   10  N   UNL     1      44.707 -11.795   7.778  1.00  0.00    -0.106 NA
HETATM   11  C   UNL     1      43.882 -10.736   7.857  1.00  0.00     0.189 A 
HETATM   12  N   UNL     1      43.286 -10.405   6.655  1.00  0.00    -0.202 NA
BRANCH  11  13
HETATM   13  C   UNL     1      43.636  -9.992   9.090  1.00  0.00     0.014 A 
HETATM   14  C   UNL     1      42.424  -9.314   9.280  1.00  0.00     0.015 A 
HETATM   15  C   UNL     1      42.185  -8.600  10.458  1.00  0.00     0.001 A 
HETATM   16  C   UNL     1      43.155  -8.557  11.458  1.00  0.00     0.000 A 
HETATM   17  C   UNL     1      44.364  -9.226  11.283  1.00  0.00     0.001 A 
HETATM   18  C   UNL     1      44.603  -9.940  10.106  1.00  0.00     0.015 A 
ENDBRANCH  11  13
ENDBRANCH   7   8
ENDBRANCH   3   7
BRANCH   1  19
HETATM   19  C   UNL     1      42.219 -15.659   3.498  1.00  0.00     0.036 A 
HETATM   20  C   UNL     1      42.622 -16.411   4.605  1.00  0.00     0.036 A 
HETATM   21  C   UNL     1      43.317 -17.622   4.440  1.00  0.00    -0.060 A 
HETATM   22  C   UNL     1      43.766 -18.409   5.636  1.00  0.00     0.048 C 
HETATM   23  C   UNL     1      43.649 -18.053   3.151  1.00  0.00     0.007 A 
HETATM   24  C   UNL     1      43.281 -17.296   2.044  1.00  0.00     0.003 A 
HETATM   25  C   UNL     1      42.573 -16.106   2.218  1.00  0.00     0.029 A 
ENDBRANCH   1  19
TORSDOF 4
ENDMDL
MODEL 10
REMARK VINA RESULT:      -7.2      1.830      2.311
REMARK  4 active torsions:
REMARK  status: ('A' for Active; 'I' for Inactive)
REMARK    1  A    between atoms: C_4  and  N_5 
REMARK       I    between atoms: N_5  and  C_6 
REMARK       I    between atoms: C_6  and  N_7 
REMARK    2  A    between atoms: N_7  and  C_8 
REMARK    3  A    between atoms: C_8  and  C_9 
REMARK    4  A    between atoms: C_12  and  C_13 
ROOT
HETATM    1  N   UNL     1      43.239 -14.681   5.176  1.00  0.00    -0.309 N 
HETATM    2  C   UNL     1      42.158 -13.863   5.117  1.00  0.00     0.321 C 
HETATM    3  N   UNL     1      40.983 -14.378   4.677  1.00  0.00    -0.335 N 
HETATM    4  O   UNL     1      42.285 -12.677   5.419  1.00  0.00    -0.247 OA
HETATM    5  H   UNL     1      44.081 -14.143   5.348  1.00  0.00     0.170 HD
HETATM    6  H   UNL     1      41.067 -15.114   3.989  1.00  0.00     0.164 HD
ENDROOT
BRANCH   3   7
HETATM    7  C   UNL     1      39.844 -13.496   4.517  1.00  0.00     0.213 C 
BRANCH   7   8
HETATM    8  C   UNL     1      39.711 -13.069   3.105  1.00  0.00     0.190 A 
HETATM    9  O   UNL     1      38.919 -11.984   2.881  1.00  0.00    -0.194 OA
HETATM   10  N   UNL     1      38.948 -11.746   1.513  1.00  0.00    -0.106 NA
HETATM   11  C   UNL     1      39.755 -12.709   1.033  1.00  0.00     0.189 A 
HETATM   12  N   UNL     1      40.255 -13.551   2.008  1.00  0.00    -0.202 NA
BRANCH  11  13
HETATM   13  C   UNL     1      40.085 -12.856  -0.381  1.00  0.00     0.014 A 
HETATM   14  C   UNL     1      40.835 -11.872  -1.042  1.00  0.00     0.015 A 
HETATM   15  C   UNL     1      41.152 -12.009  -2.397  1.00  0.00     0.001 A 
HETATM   16  C   UNL     1      40.723 -13.131  -3.105  1.00  0.00     0.000 A 
HETATM   17  C   UNL     1      39.977 -14.116  -2.462  1.00  0.00     0.001 A 
HETATM   18  C   UNL     1      39.660 -13.980  -1.108  1.00  0.00     0.015 A 
ENDBRANCH  11  13
ENDBRANCH   7   8
ENDBRANCH   3   7
BRANCH   1  19
HETATM   19  C   UNL     1      43.406 -16.076   5.102  1.00  0.00     0.036 A 
HETATM   20  C   UNL     1      43.511 -16.806   3.915  1.00  0.00     0.036 A 
HETATM   21  C   UNL     1      43.683 -18.201   3.940  1.00  0.00    -0.060 A 
HETATM   22  C   UNL     1      43.770 -18.978   2.658  1.00  0.00     0.048 C 
HETATM   23  C   UNL     1      43.700 -18.869   5.169  1.00  0.00     0.007 A 
HETATM   24  C   UNL     1      43.564 -18.155   6.355  1.00  0.00     0.003 A 
HETATM   25  C   UNL     1      43.415 -16.768   6.320  1.00  0.00     0.029 A 
ENDBRANCH   1  19
TORSDOF 4
ENDMDL
