MODEL 1
REMARK VINA RESULT:      -9.1      0.000      0.000
REMARK  2 active torsions:
REMARK  status: ('A' for Active; 'I' for Inactive)
REMARK    1  A    between atoms: C_5  and  N_6 
REMARK    2  A    between atoms: C_8  and  C_9 
REMARK       I    between atoms: C_9  and  N_10 
ROOT
HETATM    1  C   UNL     1      43.790 -13.543   6.456  1.00  0.00     0.279 C 
HETATM    2  N   UNL     1      42.550 -13.535   5.772  1.00  0.00    -0.301 N 
HETATM    3  C   UNL     1      42.182 -14.562   4.831  1.00  0.00     0.067 A 
HETATM    4  C   UNL     1      40.845 -14.707   4.436  1.00  0.00     0.079 A 
HETATM    5  C   UNL     1      40.506 -15.725   3.549  1.00  0.00     0.148 A 
HETATM    6  N   UNL     1      41.393 -16.588   3.013  1.00  0.00    -0.271 NA
HETATM    7  C   UNL     1      42.678 -16.422   3.381  1.00  0.00     0.118 A 
HETATM    8  C   UNL     1      43.112 -15.441   4.264  1.00  0.00     0.051 A 
HETATM    9  N   UNL     1      39.840 -13.874   4.928  1.00  0.00    -0.323 N 
HETATM   10  C   UNL     1      40.085 -12.820   5.753  1.00  0.00     0.240 C 
HETATM   11  O   UNL     1      39.158 -12.107   6.137  1.00  0.00    -0.271 OA
HETATM   12  C   UNL     1      41.539 -12.512   6.072  1.00  0.00     0.235 C 
HETATM   13  O   UNL     1      44.523 -14.535   6.490  1.00  0.00    -0.265 OA
HETATM   14  H   UNL     1      38.871 -14.023   4.677  1.00  0.00     0.169 HD
ENDROOT
BRANCH   1  15
HETATM   15  C   UNL     1      44.225 -12.339   7.208  1.00  0.00     0.147 A 
HETATM   16  N   UNL     1      43.621 -11.851   8.300  1.00  0.00    -0.162 NA
HETATM   17  N   UNL     1      44.327 -10.742   8.679  1.00  0.00    -0.238 N 
HETATM   18  C   UNL     1      45.378 -10.511   7.794  1.00  0.00     0.035 A 
HETATM   19  C   UNL     1      45.306 -11.509   6.844  1.00  0.00     0.066 A 
HETATM   20  C   UNL     1      46.384  -9.424   7.850  1.00  0.00     0.070 C 
BRANCH  17  21
HETATM   21  C   UNL     1      43.906 -10.043   9.860  1.00  0.00     0.058 A 
HETATM   22  C   UNL     1      43.686 -10.781  11.039  1.00  0.00     0.032 A 
HETATM   23  C   UNL     1      43.294 -10.153  12.227  1.00  0.00     0.009 A 
HETATM   24  C   UNL     1      43.103  -8.772  12.266  1.00  0.00    -0.062 A 
HETATM   25  C   UNL     1      42.711  -8.079  13.536  1.00  0.00     0.048 C 
HETATM   26  C   UNL     1      43.316  -8.032  11.100  1.00  0.00     0.009 A 
HETATM   27  C   UNL     1      43.711  -8.659   9.909  1.00  0.00     0.032 A 
ENDBRANCH  17  21
ENDBRANCH   1  15
TORSDOF 2
ENDMDL
MODEL 2
REMARK VINA RESULT:      -8.7      1.537      2.384
REMARK  2 active torsions:
REMARK  status: ('A' for Active; 'I' for Inactive)
REMARK    1  A    between atoms: C_5  and  N_6 
REMARK    2  A    between atoms: C_8  and  C_9 
REMARK       I    between atoms: C_9  and  N_10 
ROOT
HETATM    1  C   UNL     1      43.301 -12.259   5.137  1.00  0.00     0.279 C 
HETATM    2  N   UNL     1      43.013 -13.631   5.334  1.00  0.00    -0.301 N 
HETATM    3  C   UNL     1      42.137 -14.368   4.461  1.00  0.00     0.067 A 
HETATM    4  C   UNL     1      42.140 -15.770   4.481  1.00  0.00     0.079 A 
HETATM    5  C   UNL     1      41.306 -16.463   3.608  1.00  0.00     0.148 A 
HETATM    6  N   UNL     1      40.462 -15.872   2.739  1.00  0.00    -0.271 NA
HETATM    7  C   UNL     1      40.450 -14.525   2.747  1.00  0.00     0.118 A 
HETATM    8  C   UNL     1      41.249 -13.747   3.575  1.00  0.00     0.051 A 
HETATM    9  N   UNL     1      42.974 -16.490   5.337  1.00  0.00    -0.323 N 
HETATM   10  C   UNL     1      43.779 -15.899   6.262  1.00  0.00     0.240 C 
HETATM   11  O   UNL     1      44.477 -16.589   7.003  1.00  0.00    -0.271 OA
HETATM   12  C   UNL     1      43.683 -14.389   6.400  1.00  0.00     0.235 C 
HETATM   13  O   UNL     1      43.034 -11.668   4.087  1.00  0.00    -0.265 OA
HETATM   14  H   UNL     1      43.006 -17.501   5.304  1.00  0.00     0.169 HD
ENDROOT
BRANCH   1  15
HETATM   15  C   UNL     1      43.994 -11.490   6.202  1.00  0.00     0.147 A 
HETATM   16  N   UNL     1      43.402 -10.966   7.284  1.00  0.00    -0.162 NA
HETATM   17  N   UNL     1      44.383 -10.341   8.006  1.00  0.00    -0.238 N 
HETATM   18  C   UNL     1      45.609 -10.449   7.352  1.00  0.00     0.035 A 
HETATM   19  C   UNL     1      45.365 -11.159   6.194  1.00  0.00     0.066 A 
HETATM   20  C   UNL     1      46.920  -9.922   7.799  1.00  0.00     0.070 C 
BRANCH  17  21
HETATM   21  C   UNL     1      44.018  -9.722   9.248  1.00  0.00     0.058 A 
HETATM   22  C   UNL     1      44.064 -10.493  10.426  1.00  0.00     0.032 A 
HETATM   23  C   UNL     1      43.739  -9.940  11.670  1.00  0.00     0.009 A 
HETATM   24  C   UNL     1      43.350  -8.604  11.769  1.00  0.00    -0.062 A 
HETATM   25  C   UNL     1      43.026  -7.987  13.096  1.00  0.00     0.048 C 
HETATM   26  C   UNL     1      43.299  -7.832  10.605  1.00  0.00     0.009 A 
HETATM   27  C   UNL     1      43.626  -8.385   9.358  1.00  0.00     0.032 A 
ENDBRANCH  17  21
ENDBRANCH   1  15
TORSDOF 2
ENDMDL
MODEL 3
REMARK VINA RESULT:      -8.5      5.772      7.687
REMARK  2 active torsions:
REMARK  status: ('A' for Active; 'I' for Inactive)
REMARK    1  A    between atoms: C_5  and  N_6 
REMARK    2  A    between atoms: C_8  and  C_9 
REMARK       I    between atoms: C_9  and  N_10 
ROOT
HETATM    1  C   UNL     1      43.029 -16.025   2.179  1.00  0.00     0.279 C 
HETATM    2  N   UNL     1      43.147 -16.811   3.350  1.00  0.00    -0.301 N 
HETATM    3  C   UNL     1      43.392 -18.230   3.306  1.00  0.00     0.067 A 
HETATM    4  C   UNL     1      43.832 -18.904   4.454  1.00  0.00     0.079 A 
HETATM    5  C   UNL     1      44.092 -20.270   4.380  1.00  0.00     0.148 A 
HETATM    6  N   UNL     1      43.929 -21.013   3.267  1.00  0.00    -0.271 NA
HETATM    7  C   UNL     1      43.484 -20.358   2.178  1.00  0.00     0.118 A 
HETATM    8  C   UNL     1      43.202 -18.997   2.151  1.00  0.00     0.051 A 
HETATM    9  N   UNL     1      44.038 -18.238   5.662  1.00  0.00    -0.323 N 
HETATM   10  C   UNL     1      43.756 -16.919   5.842  1.00  0.00     0.240 C 
HETATM   11  O   UNL     1      43.940 -16.392   6.939  1.00  0.00    -0.271 OA
HETATM   12  C   UNL     1      43.113 -16.182   4.678  1.00  0.00     0.235 C 
HETATM   13  O   UNL     1      43.372 -16.435   1.067  1.00  0.00    -0.265 OA
HETATM   14  H   UNL     1      44.406 -18.726   6.468  1.00  0.00     0.169 HD
ENDROOT
BRANCH   1  15
HETATM   15  C   UNL     1      42.521 -14.633   2.273  1.00  0.00     0.147 A 
HETATM   16  N   UNL     1      41.317 -14.221   1.854  1.00  0.00    -0.162 NA
HETATM   17  N   UNL     1      41.246 -12.880   2.119  1.00  0.00    -0.238 N 
HETATM   18  C   UNL     1      42.436 -12.434   2.689  1.00  0.00     0.035 A 
HETATM   19  C   UNL     1      43.260 -13.538   2.770  1.00  0.00     0.066 A 
HETATM   20  C   UNL     1      42.766 -11.058   3.133  1.00  0.00     0.070 C 
BRANCH  17  21
HETATM   21  C   UNL     1      40.028 -12.191   1.798  1.00  0.00     0.058 A 
HETATM   22  C   UNL     1      39.519 -12.294   0.489  1.00  0.00     0.032 A 
HETATM   23  C   UNL     1      38.326 -11.662   0.121  1.00  0.00     0.009 A 
HETATM   24  C   UNL     1      37.614 -10.902   1.049  1.00  0.00    -0.062 A 
HETATM   25  C   UNL     1      36.319 -10.241   0.681  1.00  0.00     0.048 C 
HETATM   26  C   UNL     1      38.112 -10.792   2.349  1.00  0.00     0.009 A 
HETATM   27  C   UNL     1      39.307 -11.426   2.720  1.00  0.00     0.032 A 
ENDBRANCH  17  21
ENDBRANCH   1  15
TORSDOF 2
ENDMDL
MODEL 4
REMARK VINA RESULT:      -8.5      2.641      8.113
REMARK  2 active torsions:
REMARK  status: ('A' for Active; 'I' for Inactive)
REMARK    1  A    between atoms: C_5  and  N_6 
REMARK    2  A    between atoms: C_8  and  C_9 
REMARK       I    between atoms: C_9  and  N_10 
ROOT
HETATM    1  C   UNL     1      41.577 -12.398   5.687  1.00  0.00     0.279 C 
HETATM    2  N   UNL     1      42.441 -11.409   6.216  1.00  0.00    -0.301 N 
HETATM    3  C   UNL     1      41.950 -10.189   6.802  1.00  0.00     0.067 A 
HETATM    4  C   UNL     1      42.792  -9.405   7.604  1.00  0.00     0.079 A 
HETATM    5  C   UNL     1      42.288  -8.244   8.185  1.00  0.00     0.148 A 
HETATM    6  N   UNL     1      41.027  -7.798   8.013  1.00  0.00    -0.271 NA
HETATM    7  C   UNL     1      40.237  -8.547   7.221  1.00  0.00     0.118 A 
HETATM    8  C   UNL     1      40.646  -9.722   6.603  1.00  0.00     0.051 A 
HETATM    9  N   UNL     1      44.115  -9.770   7.855  1.00  0.00    -0.323 N 
HETATM   10  C   UNL     1      44.708 -10.853   7.285  1.00  0.00     0.240 C 
HETATM   11  O   UNL     1      45.887 -11.112   7.529  1.00  0.00    -0.271 OA
HETATM   12  C   UNL     1      43.892 -11.638   6.272  1.00  0.00     0.235 C 
HETATM   13  O   UNL     1      40.363 -12.407   5.910  1.00  0.00    -0.265 OA
HETATM   14  H   UNL     1      44.696  -9.224   8.478  1.00  0.00     0.169 HD
ENDROOT
BRANCH   1  15
HETATM   15  C   UNL     1      42.135 -13.504   4.868  1.00  0.00     0.147 A 
HETATM   16  N   UNL     1      42.441 -14.724   5.327  1.00  0.00    -0.162 NA
HETATM   17  N   UNL     1      42.925 -15.435   4.262  1.00  0.00    -0.238 N 
HETATM   18  C   UNL     1      42.951 -14.639   3.119  1.00  0.00     0.035 A 
HETATM   19  C   UNL     1      42.470 -13.404   3.502  1.00  0.00     0.066 A 
HETATM   20  C   UNL     1      43.392 -15.026   1.758  1.00  0.00     0.070 C 
BRANCH  17  21
HETATM   21  C   UNL     1      43.297 -16.805   4.476  1.00  0.00     0.058 A 
HETATM   22  C   UNL     1      43.240 -17.324   5.784  1.00  0.00     0.032 A 
HETATM   23  C   UNL     1      43.571 -18.657   6.053  1.00  0.00     0.009 A 
HETATM   24  C   UNL     1      43.977 -19.505   5.022  1.00  0.00    -0.062 A 
HETATM   25  C   UNL     1      44.308 -20.943   5.287  1.00  0.00     0.048 C 
HETATM   26  C   UNL     1      44.040 -18.998   3.722  1.00  0.00     0.009 A 
HETATM   27  C   UNL     1      43.707 -17.663   3.451  1.00  0.00     0.032 A 
ENDBRANCH  17  21
ENDBRANCH   1  15
TORSDOF 2
ENDMDL
MODEL 5
REMARK VINA RESULT:      -8.4      5.629      8.256
REMARK  2 active torsions:
REMARK  status: ('A' for Active; 'I' for Inactive)
REMARK    1  A    between atoms: C_5  and  N_6 
REMARK    2  A    between atoms: C_8  and  C_9 
REMARK       I    between atoms: C_9  and  N_10 
ROOT
HETATM    1  C   UNL     1      41.979 -12.391   2.236  1.00  0.00     0.279 C 
HETATM    2  N   UNL     1      41.112 -12.356   1.117  1.00  0.00    -0.301 N 
HETATM    3  C   UNL     1      41.016 -11.209   0.251  1.00  0.00     0.067 A 
HETATM    4  C   UNL     1      40.419 -11.330  -1.012  1.00  0.00     0.079 A 
HETATM    5  C   UNL     1      40.363 -10.215  -1.845  1.00  0.00     0.148 A 
HETATM    6  N   UNL     1      40.834  -8.997  -1.511  1.00  0.00    -0.271 NA
HETATM    7  C   UNL     1      41.383  -8.889  -0.286  1.00  0.00     0.118 A 
HETATM    8  C   UNL     1      41.489  -9.943   0.612  1.00  0.00     0.051 A 
HETATM    9  N   UNL     1      39.900 -12.543  -1.466  1.00  0.00    -0.323 N 
HETATM   10  C   UNL     1      39.859 -13.667  -0.701  1.00  0.00     0.240 C 
HETATM   11  O   UNL     1      39.369 -14.703  -1.150  1.00  0.00    -0.271 OA
HETATM   12  C   UNL     1      40.335 -13.545   0.737  1.00  0.00     0.235 C 
HETATM   13  O   UNL     1      42.879 -11.564   2.405  1.00  0.00    -0.265 OA
HETATM   14  H   UNL     1      39.520 -12.629  -2.400  1.00  0.00     0.169 HD
ENDROOT
BRANCH   1  15
HETATM   15  C   UNL     1      41.849 -13.481   3.235  1.00  0.00     0.147 A 
HETATM   16  N   UNL     1      42.515 -14.643   3.200  1.00  0.00    -0.162 NA
HETATM   17  N   UNL     1      42.110 -15.363   4.291  1.00  0.00    -0.238 N 
HETATM   18  C   UNL     1      41.151 -14.653   5.011  1.00  0.00     0.035 A 
HETATM   19  C   UNL     1      40.964 -13.466   4.334  1.00  0.00     0.066 A 
HETATM   20  C   UNL     1      40.466 -15.070   6.258  1.00  0.00     0.070 C 
BRANCH  17  21
HETATM   21  C   UNL     1      42.708 -16.649   4.513  1.00  0.00     0.058 A 
HETATM   22  C   UNL     1      43.094 -17.415   3.397  1.00  0.00     0.032 A 
HETATM   23  C   UNL     1      43.700 -18.668   3.550  1.00  0.00     0.009 A 
HETATM   24  C   UNL     1      43.927 -19.192   4.823  1.00  0.00    -0.062 A 
HETATM   25  C   UNL     1      44.601 -20.519   5.006  1.00  0.00     0.048 C 
HETATM   26  C   UNL     1      43.545 -18.440   5.936  1.00  0.00     0.009 A 
HETATM   27  C   UNL     1      42.939 -17.184   5.785  1.00  0.00     0.032 A 
ENDBRANCH  17  21
ENDBRANCH   1  15
TORSDOF 2
ENDMDL
MODEL 6
REMARK VINA RESULT:      -8.2      3.268      8.210
REMARK  2 active torsions:
REMARK  status: ('A' for Active; 'I' for Inactive)
REMARK    1  A    between atoms: C_5  and  N_6 
REMARK    2  A    between atoms: C_8  and  C_9 
REMARK       I    between atoms: C_9  and  N_10 
ROOT
HETATM    1  C   UNL     1      40.744 -13.173   6.038  1.00  0.00     0.279 C 
HETATM    2  N   UNL     1      41.324 -11.881   6.039  1.00  0.00    -0.301 N 
HETATM    3  C   UNL     1      40.547 -10.687   5.827  1.00  0.00     0.067 A 
HETATM    4  C   UNL     1      41.078  -9.433   6.164  1.00  0.00     0.079 A 
HETATM    5  C   UNL     1      40.298  -8.294   5.979  1.00  0.00     0.148 A 
HETATM    6  N   UNL     1      39.050  -8.306   5.469  1.00  0.00    -0.271 NA
HETATM    7  C   UNL     1      38.562  -9.514   5.127  1.00  0.00     0.118 A 
HETATM    8  C   UNL     1      39.259 -10.705   5.279  1.00  0.00     0.051 A 
HETATM    9  N   UNL     1      42.358  -9.299   6.703  1.00  0.00    -0.323 N 
HETATM   10  C   UNL     1      43.210 -10.348   6.865  1.00  0.00     0.240 C 
HETATM   11  O   UNL     1      44.336 -10.163   7.326  1.00  0.00    -0.271 OA
HETATM   12  C   UNL     1      42.748 -11.702   6.354  1.00  0.00     0.235 C 
HETATM   13  O   UNL     1      39.525 -13.353   6.108  1.00  0.00    -0.265 OA
HETATM   14  H   UNL     1      42.708  -8.395   6.991  1.00  0.00     0.169 HD
ENDROOT
BRANCH   1  15
HETATM   15  C   UNL     1      41.617 -14.373   6.000  1.00  0.00     0.147 A 
HETATM   16  N   UNL     1      41.718 -15.221   4.968  1.00  0.00    -0.162 NA
HETATM   17  N   UNL     1      42.619 -16.183   5.335  1.00  0.00    -0.238 N 
HETATM   18  C   UNL     1      43.072 -15.953   6.632  1.00  0.00     0.035 A 
HETATM   19  C   UNL     1      42.424 -14.816   7.069  1.00  0.00     0.066 A 
HETATM   20  C   UNL     1      44.058 -16.751   7.400  1.00  0.00     0.070 C 
BRANCH  17  21
HETATM   21  C   UNL     1      42.941 -17.207   4.382  1.00  0.00     0.058 A 
HETATM   22  C   UNL     1      43.775 -18.268   4.787  1.00  0.00     0.032 A 
HETATM   23  C   UNL     1      44.108 -19.306   3.909  1.00  0.00     0.009 A 
HETATM   24  C   UNL     1      43.626 -19.306   2.600  1.00  0.00    -0.062 A 
HETATM   25  C   UNL     1      43.949 -20.424   1.654  1.00  0.00     0.048 C 
HETATM   26  C   UNL     1      42.801 -18.256   2.189  1.00  0.00     0.009 A 
HETATM   27  C   UNL     1      42.464 -17.216   3.068  1.00  0.00     0.032 A 
ENDBRANCH  17  21
ENDBRANCH   1  15
TORSDOF 2
ENDMDL
MODEL 7
REMARK VINA RESULT:      -8.1      5.010      8.604
REMARK  2 active torsions:
REMARK  status: ('A' for Active; 'I' for Inactive)
REMARK    1  A    between atoms: C_5  and  N_6 
REMARK    2  A    between atoms: C_8  and  C_9 
REMARK       I    between atoms: C_9  and  N_10 
ROOT
HETATM    1  C   UNL     1      42.359 -14.833   2.739  1.00  0.00     0.279 C 
HETATM    2  N   UNL     1      41.780 -14.835   4.031  1.00  0.00    -0.301 N 
HETATM    3  C   UNL     1      42.379 -15.523   5.145  1.00  0.00     0.067 A 
HETATM    4  C   UNL     1      41.973 -15.230   6.454  1.00  0.00     0.079 A 
HETATM    5  C   UNL     1      42.587 -15.886   7.518  1.00  0.00     0.148 A 
HETATM    6  N   UNL     1      43.552 -16.818   7.377  1.00  0.00    -0.271 NA
HETATM    7  C   UNL     1      43.915 -17.107   6.114  1.00  0.00     0.118 A 
HETATM    8  C   UNL     1      43.366 -16.503   4.990  1.00  0.00     0.051 A 
HETATM    9  N   UNL     1      40.986 -14.281   6.722  1.00  0.00    -0.323 N 
HETATM   10  C   UNL     1      40.293 -13.634   5.746  1.00  0.00     0.240 C 
HETATM   11  O   UNL     1      39.418 -12.822   6.044  1.00  0.00    -0.271 OA
HETATM   12  C   UNL     1      40.573 -14.043   4.309  1.00  0.00     0.235 C 
HETATM   13  O   UNL     1      43.519 -15.197   2.532  1.00  0.00    -0.265 OA
HETATM   14  H   UNL     1      40.740 -14.040   7.673  1.00  0.00     0.169 HD
ENDROOT
BRANCH   1  15
HETATM   15  C   UNL     1      41.576 -14.335   1.580  1.00  0.00     0.147 A 
HETATM   16  N   UNL     1      41.532 -13.061   1.169  1.00  0.00    -0.162 NA
HETATM   17  N   UNL     1      40.702 -13.026   0.082  1.00  0.00    -0.238 N 
HETATM   18  C   UNL     1      40.191 -14.296  -0.179  1.00  0.00     0.035 A 
HETATM   19  C   UNL     1      40.725 -15.129   0.783  1.00  0.00     0.066 A 
HETATM   20  C   UNL     1      39.267 -14.692  -1.269  1.00  0.00     0.070 C 
BRANCH  17  21
HETATM   21  C   UNL     1      40.509 -11.768  -0.582  1.00  0.00     0.058 A 
HETATM   22  C   UNL     1      41.151 -11.551  -1.817  1.00  0.00     0.032 A 
HETATM   23  C   UNL     1      40.986 -10.353  -2.522  1.00  0.00     0.009 A 
HETATM   24  C   UNL     1      40.182  -9.336  -2.006  1.00  0.00    -0.062 A 
HETATM   25  C   UNL     1      39.971  -8.057  -2.760  1.00  0.00     0.048 C 
HETATM   26  C   UNL     1      39.544  -9.541  -0.780  1.00  0.00     0.009 A 
HETATM   27  C   UNL     1      39.707 -10.742  -0.074  1.00  0.00     0.032 A 
ENDBRANCH  17  21
ENDBRANCH   1  15
TORSDOF 2
ENDMDL
MODEL 8
REMARK VINA RESULT:      -8.0      5.854      9.777
REMARK  2 active torsions:
REMARK  status: ('A' for Active; 'I' for Inactive)
REMARK    1  A    between atoms: C_5  and  N_6 
REMARK    2  A    between atoms: C_8  and  C_9 
REMARK       I    between atoms: C_9  and  N_10 
ROOT
HETATM    1  C   UNL     1      42.389  -7.322  14.189  1.00  0.00     0.279 C 
HETATM    2  N   UNL     1      41.685  -8.177  13.307  1.00  0.00    -0.301 N 
HETATM    3  C   UNL     1      42.047  -8.321  11.920  1.00  0.00     0.067 A 
HETATM    4  C   UNL     1      41.559  -9.403  11.175  1.00  0.00     0.079 A 
HETATM    5  C   UNL     1      41.946  -9.539   9.844  1.00  0.00     0.148 A 
HETATM    6  N   UNL     1      42.757  -8.677   9.200  1.00  0.00    -0.271 NA
HETATM    7  C   UNL     1      43.199  -7.629   9.920  1.00  0.00     0.118 A 
HETATM    8  C   UNL     1      42.875  -7.410  11.253  1.00  0.00     0.051 A 
HETATM    9  N   UNL     1      40.715 -10.361  11.738  1.00  0.00    -0.323 N 
HETATM   10  C   UNL     1      40.240 -10.278  13.010  1.00  0.00     0.240 C 
HETATM   11  O   UNL     1      39.481 -11.144  13.444  1.00  0.00    -0.271 OA
HETATM   12  C   UNL     1      40.599  -9.033  13.805  1.00  0.00     0.235 C 
HETATM   13  O   UNL     1      43.491  -6.842  13.911  1.00  0.00    -0.265 OA
HETATM   14  H   UNL     1      40.413 -11.166  11.204  1.00  0.00     0.169 HD
ENDROOT
BRANCH   1  15
HETATM   15  C   UNL     1      41.821  -7.013  15.526  1.00  0.00     0.147 A 
HETATM   16  N   UNL     1      41.756  -7.871  16.553  1.00  0.00    -0.162 NA
HETATM   17  N   UNL     1      41.166  -7.200  17.590  1.00  0.00    -0.238 N 
HETATM   18  C   UNL     1      40.828  -5.906  17.200  1.00  0.00     0.035 A 
HETATM   19  C   UNL     1      41.222  -5.787  15.883  1.00  0.00     0.066 A 
HETATM   20  C   UNL     1      40.185  -4.854  18.023  1.00  0.00     0.070 C 
BRANCH  17  21
HETATM   21  C   UNL     1      41.009  -7.889  18.840  1.00  0.00     0.058 A 
HETATM   22  C   UNL     1      39.727  -8.347  19.201  1.00  0.00     0.032 A 
HETATM   23  C   UNL     1      39.514  -9.043  20.397  1.00  0.00     0.009 A 
HETATM   24  C   UNL     1      40.575  -9.291  21.268  1.00  0.00    -0.062 A 
HETATM   25  C   UNL     1      40.372 -10.059  22.539  1.00  0.00     0.048 C 
HETATM   26  C   UNL     1      41.850  -8.838  20.919  1.00  0.00     0.009 A 
HETATM   27  C   UNL     1      42.065  -8.142  19.721  1.00  0.00     0.032 A 
ENDBRANCH  17  21
ENDBRANCH   1  15
TORSDOF 2
ENDMDL
MODEL 9
REMARK VINA RESULT:      -7.9      5.711      9.013
REMARK  2 active torsions:
REMARK  status: ('A' for Active; 'I' for Inactive)
REMARK    1  A    between atoms: C_5  and  N_6 
REMARK    2  A    between atoms: C_8  and  C_9 
REMARK       I    between atoms: C_9  and  N_10 
ROOT
HETATM    1  C   UNL     1      39.775 -10.940   0.857  1.00  0.00     0.279 C 
HETATM    2  N   UNL     1      39.371 -11.397  -0.420  1.00  0.00    -0.301 N 
HETATM    3  C   UNL     1      38.156 -10.947  -1.051  1.00  0.00     0.067 A 
HETATM    4  C   UNL     1      37.960 -11.150  -2.424  1.00  0.00     0.079 A 
HETATM    5  C   UNL     1      36.792 -10.681  -3.019  1.00  0.00     0.148 A 
HETATM    6  N   UNL     1      35.804 -10.049  -2.353  1.00  0.00    -0.271 NA
HETATM    7  C   UNL     1      35.995  -9.883  -1.031  1.00  0.00     0.118 A 
HETATM    8  C   UNL     1      37.127 -10.310  -0.349  1.00  0.00     0.051 A 
HETATM    9  N   UNL     1      38.915 -11.789  -3.216  1.00  0.00    -0.323 N 
HETATM   10  C   UNL     1      40.058 -12.329  -2.712  1.00  0.00     0.240 C 
HETATM   11  O   UNL     1      40.853 -12.900  -3.458  1.00  0.00    -0.271 OA
HETATM   12  C   UNL     1      40.236 -12.290  -1.203  1.00  0.00     0.235 C 
HETATM   13  O   UNL     1      39.266  -9.959   1.404  1.00  0.00    -0.265 OA
HETATM   14  H   UNL     1      38.785 -11.881  -4.215  1.00  0.00     0.169 HD
ENDROOT
BRANCH   1  15
HETATM   15  C   UNL     1      40.886 -11.624   1.567  1.00  0.00     0.147 A 
HETATM   16  N   UNL     1      41.035 -12.952   1.669  1.00  0.00    -0.162 NA
HETATM   17  N   UNL     1      42.174 -13.166   2.397  1.00  0.00    -0.238 N 
HETATM   18  C   UNL     1      42.737 -11.952   2.784  1.00  0.00     0.035 A 
HETATM   19  C   UNL     1      41.912 -10.968   2.279  1.00  0.00     0.066 A 
HETATM   20  C   UNL     1      43.975 -11.740   3.571  1.00  0.00     0.070 C 
BRANCH  17  21
HETATM   21  C   UNL     1      42.587 -14.522   2.623  1.00  0.00     0.058 A 
HETATM   22  C   UNL     1      42.584 -15.018   3.940  1.00  0.00     0.032 A 
HETATM   23  C   UNL     1      42.958 -16.338   4.222  1.00  0.00     0.009 A 
HETATM   24  C   UNL     1      43.354 -17.193   3.193  1.00  0.00    -0.062 A 
HETATM   25  C   UNL     1      43.729 -18.618   3.472  1.00  0.00     0.048 C 
HETATM   26  C   UNL     1      43.363 -16.709   1.883  1.00  0.00     0.009 A 
HETATM   27  C   UNL     1      42.987 -15.387   1.600  1.00  0.00     0.032 A 
ENDBRANCH  17  21
ENDBRANCH   1  15
TORSDOF 2
ENDMDL
MODEL 10
REMARK VINA RESULT:      -7.9      4.894      9.299
REMARK  2 active torsions:
REMARK  status: ('A' for Active; 'I' for Inactive)
REMARK    1  A    between atoms: C_5  and  N_6 
REMARK    2  A    between atoms: C_8  and  C_9 
REMARK       I    between atoms: C_9  and  N_10 
ROOT
HETATM    1  C   UNL     1      41.035 -14.645   3.206  1.00  0.00     0.279 C 
HETATM    2  N   UNL     1      42.036 -15.607   3.486  1.00  0.00    -0.301 N 
HETATM    3  C   UNL     1      42.588 -15.784   4.804  1.00  0.00     0.067 A 
HETATM    4  C   UNL     1      43.312 -16.944   5.113  1.00  0.00     0.079 A 
HETATM    5  C   UNL     1      43.812 -17.109   6.403  1.00  0.00     0.148 A 
HETATM    6  N   UNL     1      43.664 -16.205   7.392  1.00  0.00    -0.271 NA
HETATM    7  C   UNL     1      42.988 -15.085   7.075  1.00  0.00     0.118 A 
HETATM    8  C   UNL     1      42.447 -14.832   5.821  1.00  0.00     0.051 A 
HETATM    9  N   UNL     1      43.526 -17.949   4.169  1.00  0.00    -0.323 N 
HETATM   10  C   UNL     1      43.125 -17.849   2.873  1.00  0.00     0.240 C 
HETATM   11  O   UNL     1      43.361 -18.762   2.081  1.00  0.00    -0.271 OA
HETATM   12  C   UNL     1      42.489 -16.538   2.443  1.00  0.00     0.235 C 
HETATM   13  O   UNL     1      40.394 -14.076   4.093  1.00  0.00    -0.265 OA
HETATM   14  H   UNL     1      44.004 -18.805   4.420  1.00  0.00     0.169 HD
ENDROOT
BRANCH   1  15
HETATM   15  C   UNL     1      40.692 -14.327   1.797  1.00  0.00     0.147 A 
HETATM   16  N   UNL     1      40.944 -13.162   1.185  1.00  0.00    -0.162 NA
HETATM   17  N   UNL     1      40.472 -13.277  -0.094  1.00  0.00    -0.238 N 
HETATM   18  C   UNL     1      39.886 -14.527  -0.283  1.00  0.00     0.035 A 
HETATM   19  C   UNL     1      40.003 -15.191   0.921  1.00  0.00     0.066 A 
HETATM   20  C   UNL     1      39.267 -15.056  -1.522  1.00  0.00     0.070 C 
BRANCH  17  21
HETATM   21  C   UNL     1      40.653 -12.166  -0.985  1.00  0.00     0.058 A 
HETATM   22  C   UNL     1      40.696 -10.867  -0.443  1.00  0.00     0.032 A 
HETATM   23  C   UNL     1      40.890  -9.745  -1.258  1.00  0.00     0.009 A 
HETATM   24  C   UNL     1      41.037  -9.892  -2.638  1.00  0.00    -0.062 A 
HETATM   25  C   UNL     1      41.274  -8.706  -3.523  1.00  0.00     0.048 C 
HETATM   26  C   UNL     1      40.993 -11.177  -3.184  1.00  0.00     0.009 A 
HETATM   27  C   UNL     1      40.800 -12.302  -2.368  1.00  0.00     0.032 A 
ENDBRANCH  17  21
ENDBRANCH   1  15
TORSDOF 2
ENDMDL
