MODEL 1
REMARK VINA RESULT:     -10.5      0.000      0.000
REMARK  4 active torsions:
REMARK  status: ('A' for Active; 'I' for Inactive)
REMARK    1  A    between atoms: C_5  and  N_6 
REMARK       I    between atoms: N_6  and  C_7 
REMARK    2  A    between atoms: C_7  and  C_8 
REMARK    3  A    between atoms: C_12  and  C_13 
REMARK    4  A    between atoms: N_24  and  C_25 
ROOT
HETATM    1  N   UNL     1      42.676 -11.824   5.468  1.00  0.00    -0.348 N 
HETATM    2  C   UNL     1      43.103 -12.359   4.282  1.00  0.00     0.257 C 
HETATM    3  O   UNL     1      43.495 -11.671   3.344  1.00  0.00    -0.267 OA
HETATM    4  H   UNL     1      42.340 -12.456   6.195  1.00  0.00     0.163 HD
ENDROOT
BRANCH   1   5
HETATM    5  C   UNL     1      42.827 -10.422   5.793  1.00  0.00     0.122 C 
HETATM    6  C   UNL     1      41.546  -9.604   5.522  1.00  0.00     0.039 C 
HETATM    7  C   UNL     1      40.471  -9.637   6.655  1.00  0.00    -0.040 C 
HETATM    8  C   UNL     1      39.810 -11.026   6.755  1.00  0.00     0.015 C 
HETATM    9  C   UNL     1      39.364  -8.621   6.297  1.00  0.00     0.015 C 
HETATM   10  C   UNL     1      41.079  -9.238   8.038  1.00  0.00     0.069 C 
HETATM   11  C   UNL     1      42.438  -9.821   8.240  1.00  0.00     0.047 A 
HETATM   12  C   UNL     1      43.217 -10.347   7.226  1.00  0.00     0.008 A 
HETATM   13  N   UNL     1      43.158  -9.970   9.421  1.00  0.00    -0.238 N 
HETATM   14  C   UNL     1      44.372 -10.810   7.861  1.00  0.00     0.150 A 
HETATM   15  N   UNL     1      44.336 -10.620   9.176  1.00  0.00    -0.179 NA
BRANCH  13  16
HETATM   16  C   UNL     1      42.867  -9.570  10.764  1.00  0.00     0.058 A 
HETATM   17  C   UNL     1      43.707  -8.621  11.379  1.00  0.00     0.031 A 
HETATM   18  C   UNL     1      43.478  -8.202  12.692  1.00  0.00     0.002 A 
HETATM   19  C   UNL     1      42.401  -8.716  13.405  1.00  0.00     0.000 A 
HETATM   20  C   UNL     1      41.551  -9.641  12.803  1.00  0.00     0.002 A 
HETATM   21  C   UNL     1      41.779 -10.065  11.487  1.00  0.00     0.031 A 
ENDBRANCH  13  16
ENDBRANCH   1   5
BRANCH   2  22
HETATM   22  C   UNL     1      43.134 -13.851   4.229  1.00  0.00     0.100 A 
HETATM   23  C   UNL     1      43.397 -14.723   5.412  1.00  0.00     0.261 A 
HETATM   24  O   UNL     1      43.537 -14.266   6.544  1.00  0.00    -0.267 OA
HETATM   25  N   UNL     1      43.493 -16.074   5.173  1.00  0.00    -0.322 N 
HETATM   26  C   UNL     1      43.362 -16.657   3.935  1.00  0.00     0.045 A 
HETATM   27  H   UNL     1      43.668 -16.656   5.984  1.00  0.00     0.169 HD
HETATM   28  C   UNL     1      43.100 -15.879   2.872  1.00  0.00     0.031 A 
HETATM   29  C   UNL     1      42.979 -14.447   3.031  1.00  0.00     0.025 A 
BRANCH  26  30
HETATM   30  C   UNL     1      43.561 -18.113   3.816  1.00  0.00    -0.009 A 
HETATM   31  C   UNL     1      43.336 -18.758   2.589  1.00  0.00     0.013 A 
HETATM   32  C   UNL     1      43.514 -20.138   2.464  1.00  0.00     0.001 A 
HETATM   33  C   UNL     1      43.918 -20.889   3.565  1.00  0.00     0.000 A 
HETATM   34  C   UNL     1      44.148 -20.263   4.788  1.00  0.00     0.001 A 
HETATM   35  C   UNL     1      43.973 -18.883   4.913  1.00  0.00     0.013 A 
ENDBRANCH  26  30
ENDBRANCH   2  22
TORSDOF 4
ENDMDL
MODEL 2
REMARK VINA RESULT:      -9.8      1.549      2.296
REMARK  4 active torsions:
REMARK  status: ('A' for Active; 'I' for Inactive)
REMARK    1  A    between atoms: C_5  and  N_6 
REMARK       I    between atoms: N_6  and  C_7 
REMARK    2  A    between atoms: C_7  and  C_8 
REMARK    3  A    between atoms: C_12  and  C_13 
REMARK    4  A    between atoms: N_24  and  C_25 
ROOT
HETATM    1  N   UNL     1      42.434 -10.403   7.159  1.00  0.00    -0.348 N 
HETATM    2  C   UNL     1      42.445 -10.771   5.840  1.00  0.00     0.257 C 
HETATM    3  O   UNL     1      42.376  -9.959   4.922  1.00  0.00    -0.267 OA
HETATM    4  H   UNL     1      42.469 -11.135   7.870  1.00  0.00     0.163 HD
ENDROOT
BRANCH   1   5
HETATM    5  C   UNL     1      42.535  -9.024   7.587  1.00  0.00     0.122 C 
HETATM    6  C   UNL     1      41.233  -8.229   7.353  1.00  0.00     0.039 C 
HETATM    7  C   UNL     1      40.141  -8.377   8.461  1.00  0.00    -0.040 C 
HETATM    8  C   UNL     1      39.523  -9.789   8.448  1.00  0.00     0.015 C 
HETATM    9  C   UNL     1      39.009  -7.373   8.156  1.00  0.00     0.015 C 
HETATM   10  C   UNL     1      40.714  -8.061   9.880  1.00  0.00     0.069 C 
HETATM   11  C   UNL     1      42.088  -8.615  10.064  1.00  0.00     0.047 A 
HETATM   12  C   UNL     1      42.900  -9.042   9.029  1.00  0.00     0.008 A 
HETATM   13  N   UNL     1      42.793  -8.827  11.244  1.00  0.00    -0.238 N 
HETATM   14  C   UNL     1      44.058  -9.514   9.650  1.00  0.00     0.150 A 
HETATM   15  N   UNL     1      43.995  -9.421  10.974  1.00  0.00    -0.179 NA
BRANCH  13  16
HETATM   16  C   UNL     1      42.469  -8.535  12.607  1.00  0.00     0.058 A 
HETATM   17  C   UNL     1      43.166  -7.499  13.256  1.00  0.00     0.031 A 
HETATM   18  C   UNL     1      42.899  -7.177  14.589  1.00  0.00     0.002 A 
HETATM   19  C   UNL     1      41.924  -7.879  15.289  1.00  0.00     0.000 A 
HETATM   20  C   UNL     1      41.213  -8.894  14.653  1.00  0.00     0.002 A 
HETATM   21  C   UNL     1      41.479  -9.220  13.318  1.00  0.00     0.031 A 
ENDBRANCH  13  16
ENDBRANCH   1   5
BRANCH   2  22
HETATM   22  C   UNL     1      42.623 -12.232   5.586  1.00  0.00     0.100 A 
HETATM   23  C   UNL     1      43.415 -13.142   6.466  1.00  0.00     0.261 A 
HETATM   24  O   UNL     1      43.923 -12.757   7.518  1.00  0.00    -0.267 OA
HETATM   25  N   UNL     1      43.567 -14.439   6.036  1.00  0.00    -0.322 N 
HETATM   26  C   UNL     1      43.041 -14.938   4.868  1.00  0.00     0.045 A 
HETATM   27  H   UNL     1      44.103 -15.048   6.643  1.00  0.00     0.169 HD
HETATM   28  C   UNL     1      42.306 -14.130   4.085  1.00  0.00     0.031 A 
HETATM   29  C   UNL     1      42.092 -12.750   4.462  1.00  0.00     0.025 A 
BRANCH  26  30
HETATM   30  C   UNL     1      43.344 -16.331   4.496  1.00  0.00    -0.009 A 
HETATM   31  C   UNL     1      43.821 -17.232   5.462  1.00  0.00     0.013 A 
HETATM   32  C   UNL     1      44.119 -18.554   5.121  1.00  0.00     0.001 A 
HETATM   33  C   UNL     1      43.944 -18.991   3.810  1.00  0.00     0.000 A 
HETATM   34  C   UNL     1      43.470 -18.109   2.841  1.00  0.00     0.001 A 
HETATM   35  C   UNL     1      43.169 -16.788   3.181  1.00  0.00     0.013 A 
ENDBRANCH  26  30
ENDBRANCH   2  22
TORSDOF 4
ENDMDL
MODEL 3
REMARK VINA RESULT:      -9.6      2.316      9.628
REMARK  4 active torsions:
REMARK  status: ('A' for Active; 'I' for Inactive)
REMARK    1  A    between atoms: C_5  and  N_6 
REMARK       I    between atoms: N_6  and  C_7 
REMARK    2  A    between atoms: C_7  and  C_8 
REMARK    3  A    between atoms: C_12  and  C_13 
REMARK    4  A    between atoms: N_24  and  C_25 
ROOT
HETATM    1  N   UNL     1      40.030 -11.669   6.293  1.00  0.00    -0.348 N 
HETATM    2  C   UNL     1      39.280 -10.684   6.877  1.00  0.00     0.257 C 
HETATM    3  O   UNL     1      38.192 -10.326   6.437  1.00  0.00    -0.267 OA
HETATM    4  H   UNL     1      40.939 -11.896   6.699  1.00  0.00     0.163 HD
ENDROOT
BRANCH   1   5
HETATM    5  C   UNL     1      39.527 -12.507   5.226  1.00  0.00     0.122 C 
HETATM    6  C   UNL     1      39.745 -11.889   3.828  1.00  0.00     0.039 C 
HETATM    7  C   UNL     1      41.156 -12.125   3.198  1.00  0.00    -0.040 C 
HETATM    8  C   UNL     1      42.241 -11.327   3.947  1.00  0.00     0.015 C 
HETATM    9  C   UNL     1      41.123 -11.612   1.742  1.00  0.00     0.015 C 
HETATM   10  C   UNL     1      41.531 -13.642   3.179  1.00  0.00     0.069 C 
HETATM   11  C   UNL     1      41.115 -14.337   4.432  1.00  0.00     0.047 A 
HETATM   12  C   UNL     1      40.212 -13.821   5.344  1.00  0.00     0.008 A 
HETATM   13  N   UNL     1      41.536 -15.566   4.932  1.00  0.00    -0.238 N 
HETATM   14  C   UNL     1      40.151 -14.770   6.368  1.00  0.00     0.150 A 
HETATM   15  N   UNL     1      40.960 -15.801   6.150  1.00  0.00    -0.179 NA
BRANCH  13  16
HETATM   16  C   UNL     1      42.422 -16.553   4.395  1.00  0.00     0.058 A 
HETATM   17  C   UNL     1      42.207 -17.002   3.078  1.00  0.00     0.031 A 
HETATM   18  C   UNL     1      43.034 -17.972   2.506  1.00  0.00     0.002 A 
HETATM   19  C   UNL     1      44.092 -18.499   3.237  1.00  0.00     0.000 A 
HETATM   20  C   UNL     1      44.328 -18.050   4.534  1.00  0.00     0.002 A 
HETATM   21  C   UNL     1      43.500 -17.079   5.112  1.00  0.00     0.031 A 
ENDBRANCH  13  16
ENDBRANCH   1   5
BRANCH   2  22
HETATM   22  C   UNL     1      39.842 -10.118   8.140  1.00  0.00     0.100 A 
HETATM   23  C   UNL     1      41.253  -9.654   8.293  1.00  0.00     0.261 A 
HETATM   24  O   UNL     1      42.043  -9.639   7.351  1.00  0.00    -0.267 OA
HETATM   25  N   UNL     1      41.639  -9.254   9.551  1.00  0.00    -0.322 N 
HETATM   26  C   UNL     1      40.819  -9.256  10.654  1.00  0.00     0.045 A 
HETATM   27  H   UNL     1      42.597  -8.939   9.641  1.00  0.00     0.169 HD
HETATM   28  C   UNL     1      39.541  -9.648  10.517  1.00  0.00     0.031 A 
HETATM   29  C   UNL     1      39.048 -10.082   9.228  1.00  0.00     0.025 A 
BRANCH  26  30
HETATM   30  C   UNL     1      41.387  -8.870  11.957  1.00  0.00    -0.009 A 
HETATM   31  C   UNL     1      40.691  -9.153  13.143  1.00  0.00     0.013 A 
HETATM   32  C   UNL     1      41.216  -8.785  14.385  1.00  0.00     0.001 A 
HETATM   33  C   UNL     1      42.443  -8.131  14.455  1.00  0.00     0.000 A 
HETATM   34  C   UNL     1      43.148  -7.846  13.287  1.00  0.00     0.001 A 
HETATM   35  C   UNL     1      42.625  -8.215  12.045  1.00  0.00     0.013 A 
ENDBRANCH  26  30
ENDBRANCH   2  22
TORSDOF 4
ENDMDL
MODEL 4
REMARK VINA RESULT:      -9.1      5.653      8.351
REMARK  4 active torsions:
REMARK  status: ('A' for Active; 'I' for Inactive)
REMARK    1  A    between atoms: C_5  and  N_6 
REMARK       I    between atoms: N_6  and  C_7 
REMARK    2  A    between atoms: C_7  and  C_8 
REMARK    3  A    between atoms: C_12  and  C_13 
REMARK    4  A    between atoms: N_24  and  C_25 
ROOT
HETATM    1  N   UNL     1      41.248 -12.101   1.669  1.00  0.00    -0.348 N 
HETATM    2  C   UNL     1      42.334 -12.491   2.408  1.00  0.00     0.257 C 
HETATM    3  O   UNL     1      43.098 -11.692   2.940  1.00  0.00    -0.267 OA
HETATM    4  H   UNL     1      40.671 -12.821   1.234  1.00  0.00     0.163 HD
ENDROOT
BRANCH   1   5
HETATM    5  C   UNL     1      40.795 -10.728   1.610  1.00  0.00     0.122 C 
HETATM    6  C   UNL     1      41.601  -9.877   0.605  1.00  0.00     0.039 C 
HETATM    7  C   UNL     1      41.143  -9.976  -0.885  1.00  0.00    -0.040 C 
HETATM    8  C   UNL     1      41.475 -11.360  -1.478  1.00  0.00     0.015 C 
HETATM    9  C   UNL     1      41.926  -8.923  -1.700  1.00  0.00     0.015 C 
HETATM   10  C   UNL     1      39.616  -9.685  -1.040  1.00  0.00     0.069 C 
HETATM   11  C   UNL     1      38.816 -10.299   0.060  1.00  0.00     0.047 A 
HETATM   12  C   UNL     1      39.353 -10.761   1.248  1.00  0.00     0.008 A 
HETATM   13  N   UNL     1      37.447 -10.541   0.115  1.00  0.00    -0.238 N 
HETATM   14  C   UNL     1      38.268 -11.284   1.956  1.00  0.00     0.150 A 
HETATM   15  N   UNL     1      37.129 -11.187   1.277  1.00  0.00    -0.179 NA
BRANCH  13  16
HETATM   16  C   UNL     1      36.393 -10.234  -0.804  1.00  0.00     0.058 A 
HETATM   17  C   UNL     1      35.328  -9.429  -0.359  1.00  0.00     0.031 A 
HETATM   18  C   UNL     1      34.267  -9.106  -1.209  1.00  0.00     0.002 A 
HETATM   19  C   UNL     1      34.261  -9.575  -2.518  1.00  0.00     0.000 A 
HETATM   20  C   UNL     1      35.318 -10.358  -2.977  1.00  0.00     0.002 A 
HETATM   21  C   UNL     1      36.382 -10.685  -2.127  1.00  0.00     0.031 A 
ENDBRANCH  13  16
ENDBRANCH   1   5
BRANCH   2  22
HETATM   22  C   UNL     1      42.486 -13.965   2.590  1.00  0.00     0.100 A 
HETATM   23  C   UNL     1      41.954 -14.722   3.762  1.00  0.00     0.261 A 
HETATM   24  O   UNL     1      41.279 -14.184   4.637  1.00  0.00    -0.267 OA
HETATM   25  N   UNL     1      42.269 -16.059   3.828  1.00  0.00    -0.322 N 
HETATM   26  C   UNL     1      43.028 -16.727   2.897  1.00  0.00     0.045 A 
HETATM   27  H   UNL     1      41.899 -16.562   4.626  1.00  0.00     0.169 HD
HETATM   28  C   UNL     1      43.488 -16.057   1.827  1.00  0.00     0.031 A 
HETATM   29  C   UNL     1      43.202 -14.647   1.675  1.00  0.00     0.025 A 
BRANCH  26  30
HETATM   30  C   UNL     1      43.348 -18.146   3.134  1.00  0.00    -0.009 A 
HETATM   31  C   UNL     1      43.100 -19.101   2.135  1.00  0.00     0.013 A 
HETATM   32  C   UNL     1      43.391 -20.451   2.349  1.00  0.00     0.001 A 
HETATM   33  C   UNL     1      43.934 -20.861   3.564  1.00  0.00     0.000 A 
HETATM   34  C   UNL     1      44.189 -19.924   4.564  1.00  0.00     0.001 A 
HETATM   35  C   UNL     1      43.900 -18.574   4.350  1.00  0.00     0.013 A 
ENDBRANCH  26  30
ENDBRANCH   2  22
TORSDOF 4
ENDMDL
MODEL 5
REMARK VINA RESULT:      -9.1      4.326      9.730
REMARK  4 active torsions:
REMARK  status: ('A' for Active; 'I' for Inactive)
REMARK    1  A    between atoms: C_5  and  N_6 
REMARK       I    between atoms: N_6  and  C_7 
REMARK    2  A    between atoms: C_7  and  C_8 
REMARK    3  A    between atoms: C_12  and  C_13 
REMARK    4  A    between atoms: N_24  and  C_25 
ROOT
HETATM    1  N   UNL     1      41.681 -12.728   3.321  1.00  0.00    -0.348 N 
HETATM    2  C   UNL     1      41.447 -11.424   2.974  1.00  0.00     0.257 C 
HETATM    3  O   UNL     1      42.265 -10.528   3.161  1.00  0.00    -0.267 OA
HETATM    4  H   UNL     1      40.945 -13.415   3.159  1.00  0.00     0.163 HD
ENDROOT
BRANCH   1   5
HETATM    5  C   UNL     1      42.977 -13.199   3.760  1.00  0.00     0.122 C 
HETATM    6  C   UNL     1      43.113 -13.227   5.297  1.00  0.00     0.039 C 
HETATM    7  C   UNL     1      42.535 -14.495   6.005  1.00  0.00    -0.040 C 
HETATM    8  C   UNL     1      40.996 -14.518   5.936  1.00  0.00     0.015 C 
HETATM    9  C   UNL     1      42.932 -14.435   7.496  1.00  0.00     0.015 C 
HETATM   10  C   UNL     1      43.114 -15.810   5.392  1.00  0.00     0.069 C 
HETATM   11  C   UNL     1      43.224 -15.733   3.905  1.00  0.00     0.047 A 
HETATM   12  C   UNL     1      43.165 -14.556   3.181  1.00  0.00     0.008 A 
HETATM   13  N   UNL     1      43.379 -16.766   2.985  1.00  0.00    -0.238 N 
HETATM   14  C   UNL     1      43.268 -14.949   1.844  1.00  0.00     0.150 A 
HETATM   15  N   UNL     1      43.364 -16.268   1.712  1.00  0.00    -0.179 NA
BRANCH  13  16
HETATM   16  C   UNL     1      43.541 -18.176   3.164  1.00  0.00     0.058 A 
HETATM   17  C   UNL     1      43.106 -19.037   2.138  1.00  0.00     0.031 A 
HETATM   18  C   UNL     1      43.229 -20.423   2.262  1.00  0.00     0.002 A 
HETATM   19  C   UNL     1      43.797 -20.968   3.408  1.00  0.00     0.000 A 
HETATM   20  C   UNL     1      44.249 -20.127   4.423  1.00  0.00     0.002 A 
HETATM   21  C   UNL     1      44.126 -18.738   4.302  1.00  0.00     0.031 A 
ENDBRANCH  13  16
ENDBRANCH   1   5
BRANCH   2  22
HETATM   22  C   UNL     1      40.151 -11.172   2.276  1.00  0.00     0.100 A 
HETATM   23  C   UNL     1      39.595 -12.050   1.204  1.00  0.00     0.261 A 
HETATM   24  O   UNL     1      40.142 -13.098   0.866  1.00  0.00    -0.267 OA
HETATM   25  N   UNL     1      38.441 -11.622   0.592  1.00  0.00    -0.322 N 
HETATM   26  C   UNL     1      37.780 -10.457   0.903  1.00  0.00     0.045 A 
HETATM   27  H   UNL     1      38.071 -12.228  -0.132  1.00  0.00     0.169 HD
HETATM   28  C   UNL     1      38.261  -9.677   1.886  1.00  0.00     0.031 A 
HETATM   29  C   UNL     1      39.470 -10.052   2.586  1.00  0.00     0.025 A 
BRANCH  26  30
HETATM   30  C   UNL     1      36.591 -10.087   0.115  1.00  0.00    -0.009 A 
HETATM   31  C   UNL     1      36.591 -10.250  -1.279  1.00  0.00     0.013 A 
HETATM   32  C   UNL     1      35.473  -9.896  -2.040  1.00  0.00     0.001 A 
HETATM   33  C   UNL     1      34.343  -9.375  -1.414  1.00  0.00     0.000 A 
HETATM   34  C   UNL     1      34.327  -9.211  -0.031  1.00  0.00     0.001 A 
HETATM   35  C   UNL     1      35.443  -9.567   0.730  1.00  0.00     0.013 A 
ENDBRANCH  26  30
ENDBRANCH   2  22
TORSDOF 4
ENDMDL
MODEL 6
REMARK VINA RESULT:      -8.7      6.562      9.709
REMARK  4 active torsions:
REMARK  status: ('A' for Active; 'I' for Inactive)
REMARK    1  A    between atoms: C_5  and  N_6 
REMARK       I    between atoms: N_6  and  C_7 
REMARK    2  A    between atoms: C_7  and  C_8 
REMARK    3  A    between atoms: C_12  and  C_13 
REMARK    4  A    between atoms: N_24  and  C_25 
ROOT
HETATM    1  N   UNL     1      38.913 -12.973  -0.329  1.00  0.00    -0.348 N 
HETATM    2  C   UNL     1      39.456 -14.229  -0.282  1.00  0.00     0.257 C 
HETATM    3  O   UNL     1      39.334 -15.043  -1.193  1.00  0.00    -0.267 OA
HETATM    4  H   UNL     1      39.033 -12.359   0.477  1.00  0.00     0.163 HD
ENDROOT
BRANCH   1   5
HETATM    5  C   UNL     1      38.314 -12.425  -1.527  1.00  0.00     0.122 C 
HETATM    6  C   UNL     1      37.122 -11.490  -1.224  1.00  0.00     0.039 C 
HETATM    7  C   UNL     1      37.494 -10.015  -0.867  1.00  0.00    -0.040 C 
HETATM    8  C   UNL     1      38.176  -9.931   0.513  1.00  0.00     0.015 C 
HETATM    9  C   UNL     1      36.188  -9.196  -0.790  1.00  0.00     0.015 C 
HETATM   10  C   UNL     1      38.416  -9.374  -1.954  1.00  0.00     0.069 C 
HETATM   11  C   UNL     1      39.443 -10.335  -2.453  1.00  0.00     0.047 A 
HETATM   12  C   UNL     1      39.388 -11.703  -2.259  1.00  0.00     0.008 A 
HETATM   13  N   UNL     1      40.615 -10.074  -3.157  1.00  0.00    -0.238 N 
HETATM   14  C   UNL     1      40.555 -12.199  -2.846  1.00  0.00     0.150 A 
HETATM   15  N   UNL     1      41.311 -11.234  -3.358  1.00  0.00    -0.179 NA
BRANCH  13  16
HETATM   16  C   UNL     1      41.161  -8.854  -3.667  1.00  0.00     0.058 A 
HETATM   17  C   UNL     1      40.699  -8.380  -4.910  1.00  0.00     0.031 A 
HETATM   18  C   UNL     1      41.205  -7.200  -5.462  1.00  0.00     0.002 A 
HETATM   19  C   UNL     1      42.171  -6.472  -4.776  1.00  0.00     0.000 A 
HETATM   20  C   UNL     1      42.623  -6.921  -3.537  1.00  0.00     0.002 A 
HETATM   21  C   UNL     1      42.120  -8.103  -2.981  1.00  0.00     0.031 A 
ENDBRANCH  13  16
ENDBRANCH   1   5
BRANCH   2  22
HETATM   22  C   UNL     1      40.281 -14.524   0.928  1.00  0.00     0.100 A 
HETATM   23  C   UNL     1      41.289 -13.583   1.501  1.00  0.00     0.261 A 
HETATM   24  O   UNL     1      41.460 -12.452   1.050  1.00  0.00    -0.267 OA
HETATM   25  N   UNL     1      42.036 -14.047   2.558  1.00  0.00    -0.322 N 
HETATM   26  C   UNL     1      41.911 -15.301   3.108  1.00  0.00     0.045 A 
HETATM   27  H   UNL     1      42.714 -13.399   2.940  1.00  0.00     0.169 HD
HETATM   28  C   UNL     1      40.988 -16.142   2.613  1.00  0.00     0.031 A 
HETATM   29  C   UNL     1      40.154 -15.736   1.503  1.00  0.00     0.025 A 
BRANCH  26  30
HETATM   30  C   UNL     1      42.830 -15.691   4.192  1.00  0.00    -0.009 A 
HETATM   31  C   UNL     1      43.512 -16.917   4.133  1.00  0.00     0.013 A 
HETATM   32  C   UNL     1      44.380 -17.301   5.158  1.00  0.00     0.001 A 
HETATM   33  C   UNL     1      44.577 -16.465   6.254  1.00  0.00     0.000 A 
HETATM   34  C   UNL     1      43.909 -15.244   6.325  1.00  0.00     0.001 A 
HETATM   35  C   UNL     1      43.043 -14.857   5.300  1.00  0.00     0.013 A 
ENDBRANCH  26  30
ENDBRANCH   2  22
TORSDOF 4
ENDMDL
MODEL 7
REMARK VINA RESULT:      -8.6      2.007      2.691
REMARK  4 active torsions:
REMARK  status: ('A' for Active; 'I' for Inactive)
REMARK    1  A    between atoms: C_5  and  N_6 
REMARK       I    between atoms: N_6  and  C_7 
REMARK    2  A    between atoms: C_7  and  C_8 
REMARK    3  A    between atoms: C_12  and  C_13 
REMARK    4  A    between atoms: N_24  and  C_25 
ROOT
HETATM    1  N   UNL     1      42.007 -11.865   3.881  1.00  0.00    -0.348 N 
HETATM    2  C   UNL     1      42.159 -12.528   2.692  1.00  0.00     0.257 C 
HETATM    3  O   UNL     1      42.194 -11.951   1.609  1.00  0.00    -0.267 OA
HETATM    4  H   UNL     1      41.960 -12.412   4.742  1.00  0.00     0.163 HD
ENDROOT
BRANCH   1   5
HETATM    5  C   UNL     1      42.069 -10.423   3.987  1.00  0.00     0.122 C 
HETATM    6  C   UNL     1      41.003  -9.715   3.123  1.00  0.00     0.039 C 
HETATM    7  C   UNL     1      39.584  -9.591   3.767  1.00  0.00    -0.040 C 
HETATM    8  C   UNL     1      38.892 -10.965   3.859  1.00  0.00     0.015 C 
HETATM    9  C   UNL     1      38.719  -8.696   2.853  1.00  0.00     0.015 C 
HETATM   10  C   UNL     1      39.650  -8.933   5.182  1.00  0.00     0.069 C 
HETATM   11  C   UNL     1      40.821  -9.419   5.971  1.00  0.00     0.047 A 
HETATM   12  C   UNL     1      41.904 -10.085   5.425  1.00  0.00     0.008 A 
HETATM   13  N   UNL     1      41.049  -9.332   7.341  1.00  0.00    -0.238 N 
HETATM   14  C   UNL     1      42.728 -10.385   6.512  1.00  0.00     0.150 A 
HETATM   15  N   UNL     1      42.214  -9.970   7.665  1.00  0.00    -0.179 NA
BRANCH  13  16
HETATM   16  C   UNL     1      40.295  -8.715   8.389  1.00  0.00     0.058 A 
HETATM   17  C   UNL     1      40.409  -9.233   9.693  1.00  0.00     0.031 A 
HETATM   18  C   UNL     1      39.688  -8.678  10.753  1.00  0.00     0.002 A 
HETATM   19  C   UNL     1      38.851  -7.591  10.527  1.00  0.00     0.000 A 
HETATM   20  C   UNL     1      38.743  -7.056   9.245  1.00  0.00     0.002 A 
HETATM   21  C   UNL     1      39.463  -7.611   8.180  1.00  0.00     0.031 A 
ENDBRANCH  13  16
ENDBRANCH   1   5
BRANCH   2  22
HETATM   22  C   UNL     1      42.356 -14.004   2.805  1.00  0.00     0.100 A 
HETATM   23  C   UNL     1      41.750 -14.848   3.877  1.00  0.00     0.261 A 
HETATM   24  O   UNL     1      40.975 -14.389   4.713  1.00  0.00    -0.267 OA
HETATM   25  N   UNL     1      42.113 -16.174   3.897  1.00  0.00    -0.322 N 
HETATM   26  C   UNL     1      42.983 -16.757   3.006  1.00  0.00     0.045 A 
HETATM   27  H   UNL     1      41.694 -16.738   4.627  1.00  0.00     0.169 HD
HETATM   28  C   UNL     1      43.510 -16.007   2.023  1.00  0.00     0.031 A 
HETATM   29  C   UNL     1      43.181 -14.602   1.924  1.00  0.00     0.025 A 
BRANCH  26  30
HETATM   30  C   UNL     1      43.339 -18.175   3.191  1.00  0.00    -0.009 A 
HETATM   31  C   UNL     1      43.161 -19.090   2.142  1.00  0.00     0.013 A 
HETATM   32  C   UNL     1      43.488 -20.439   2.307  1.00  0.00     0.001 A 
HETATM   33  C   UNL     1      43.995 -20.888   3.523  1.00  0.00     0.000 A 
HETATM   34  C   UNL     1      44.180 -19.991   4.574  1.00  0.00     0.001 A 
HETATM   35  C   UNL     1      43.856 -18.642   4.409  1.00  0.00     0.013 A 
ENDBRANCH  26  30
ENDBRANCH   2  22
TORSDOF 4
ENDMDL
MODEL 8
REMARK VINA RESULT:      -8.5     18.158     20.573
REMARK  4 active torsions:
REMARK  status: ('A' for Active; 'I' for Inactive)
REMARK    1  A    between atoms: C_5  and  N_6 
REMARK       I    between atoms: N_6  and  C_7 
REMARK    2  A    between atoms: C_7  and  C_8 
REMARK    3  A    between atoms: C_12  and  C_13 
REMARK    4  A    between atoms: N_24  and  C_25 
ROOT
HETATM    1  N   UNL     1      44.455 -29.545  -2.157  1.00  0.00    -0.348 N 
HETATM    2  C   UNL     1      44.664 -29.062  -3.421  1.00  0.00     0.257 C 
HETATM    3  O   UNL     1      44.743 -27.863  -3.671  1.00  0.00    -0.267 OA
HETATM    4  H   UNL     1      44.375 -30.554  -2.027  1.00  0.00     0.163 HD
ENDROOT
BRANCH   1   5
HETATM    5  C   UNL     1      44.500 -28.703  -0.981  1.00  0.00     0.122 C 
HETATM    6  C   UNL     1      43.498 -29.145   0.108  1.00  0.00     0.039 C 
HETATM    7  C   UNL     1      43.985 -30.294   1.048  1.00  0.00    -0.040 C 
HETATM    8  C   UNL     1      44.069 -31.635   0.291  1.00  0.00     0.015 C 
HETATM    9  C   UNL     1      42.947 -30.464   2.178  1.00  0.00     0.015 C 
HETATM   10  C   UNL     1      45.369 -29.963   1.695  1.00  0.00     0.069 C 
HETATM   11  C   UNL     1      46.295 -29.307   0.726  1.00  0.00     0.047 A 
HETATM   12  C   UNL     1      45.896 -28.741  -0.472  1.00  0.00     0.008 A 
HETATM   13  N   UNL     1      47.676 -29.152   0.804  1.00  0.00    -0.238 N 
HETATM   14  C   UNL     1      47.076 -28.288  -1.068  1.00  0.00     0.150 A 
HETATM   15  N   UNL     1      48.149 -28.556  -0.332  1.00  0.00    -0.179 NA
BRANCH  13  16
HETATM   16  C   UNL     1      48.611 -29.502   1.830  1.00  0.00     0.058 A 
HETATM   17  C   UNL     1      49.719 -30.299   1.484  1.00  0.00     0.031 A 
HETATM   18  C   UNL     1      50.658 -30.681   2.446  1.00  0.00     0.002 A 
HETATM   19  C   UNL     1      50.509 -30.263   3.764  1.00  0.00     0.000 A 
HETATM   20  C   UNL     1      49.427 -29.458   4.116  1.00  0.00     0.002 A 
HETATM   21  C   UNL     1      48.483 -29.075   3.155  1.00  0.00     0.031 A 
ENDBRANCH  13  16
ENDBRANCH   1   5
BRANCH   2  22
HETATM   22  C   UNL     1      44.869 -30.100  -4.475  1.00  0.00     0.100 A 
HETATM   23  C   UNL     1      46.027 -31.043  -4.506  1.00  0.00     0.261 A 
HETATM   24  O   UNL     1      46.868 -31.076  -3.610  1.00  0.00    -0.267 OA
HETATM   25  N   UNL     1      46.121 -31.869  -5.601  1.00  0.00    -0.322 N 
HETATM   26  C   UNL     1      45.229 -31.880  -6.647  1.00  0.00     0.045 A 
HETATM   27  H   UNL     1      46.909 -32.506  -5.609  1.00  0.00     0.169 HD
HETATM   28  C   UNL     1      44.172 -31.052  -6.612  1.00  0.00     0.031 A 
HETATM   29  C   UNL     1      43.991 -30.150  -5.496  1.00  0.00     0.025 A 
BRANCH  26  30
HETATM   30  C   UNL     1      45.495 -32.769  -7.792  1.00  0.00    -0.009 A 
HETATM   31  C   UNL     1      44.978 -32.461  -9.060  1.00  0.00     0.013 A 
HETATM   32  C   UNL     1      45.217 -33.299 -10.152  1.00  0.00     0.001 A 
HETATM   33  C   UNL     1      45.974 -34.457  -9.988  1.00  0.00     0.000 A 
HETATM   34  C   UNL     1      46.496 -34.775  -8.736  1.00  0.00     0.001 A 
HETATM   35  C   UNL     1      46.261 -33.935  -7.645  1.00  0.00     0.013 A 
ENDBRANCH  26  30
ENDBRANCH   2  22
TORSDOF 4
ENDMDL
MODEL 9
REMARK VINA RESULT:      -8.4      5.912     12.431
REMARK  4 active torsions:
REMARK  status: ('A' for Active; 'I' for Inactive)
REMARK    1  A    between atoms: C_5  and  N_6 
REMARK       I    between atoms: N_6  and  C_7 
REMARK    2  A    between atoms: C_7  and  C_8 
REMARK    3  A    between atoms: C_12  and  C_13 
REMARK    4  A    between atoms: N_24  and  C_25 
ROOT
HETATM    1  N   UNL     1      40.845  -6.755  12.638  1.00  0.00    -0.348 N 
HETATM    2  C   UNL     1      40.039  -6.929  13.731  1.00  0.00     0.257 C 
HETATM    3  O   UNL     1      38.886  -7.342  13.650  1.00  0.00    -0.267 OA
HETATM    4  H   UNL     1      41.785  -6.383  12.779  1.00  0.00     0.163 HD
ENDROOT
BRANCH   1   5
HETATM    5  C   UNL     1      40.483  -7.222  11.317  1.00  0.00     0.122 C 
HETATM    6  C   UNL     1      40.411  -6.080  10.280  1.00  0.00     0.039 C 
HETATM    7  C   UNL     1      41.773  -5.663   9.638  1.00  0.00    -0.040 C 
HETATM    8  C   UNL     1      42.677  -4.951  10.664  1.00  0.00     0.015 C 
HETATM    9  C   UNL     1      41.481  -4.660   8.501  1.00  0.00     0.015 C 
HETATM   10  C   UNL     1      42.524  -6.892   9.032  1.00  0.00     0.069 C 
HETATM   11  C   UNL     1      42.413  -8.100   9.902  1.00  0.00     0.047 A 
HETATM   12  C   UNL     1      41.491  -8.241  10.923  1.00  0.00     0.008 A 
HETATM   13  N   UNL     1      43.179  -9.261   9.886  1.00  0.00    -0.238 N 
HETATM   14  C   UNL     1      41.768  -9.487  11.490  1.00  0.00     0.150 A 
HETATM   15  N   UNL     1      42.793 -10.093  10.901  1.00  0.00    -0.179 NA
BRANCH  13  16
HETATM   16  C   UNL     1      44.239  -9.685   9.023  1.00  0.00     0.058 A 
HETATM   17  C   UNL     1      44.087 -10.894   8.317  1.00  0.00     0.031 A 
HETATM   18  C   UNL     1      45.094 -11.362   7.469  1.00  0.00     0.002 A 
HETATM   19  C   UNL     1      46.262 -10.625   7.306  1.00  0.00     0.000 A 
HETATM   20  C   UNL     1      46.417  -9.418   7.984  1.00  0.00     0.002 A 
HETATM   21  C   UNL     1      45.410  -8.946   8.836  1.00  0.00     0.031 A 
ENDBRANCH  13  16
ENDBRANCH   1   5
BRANCH   2  22
HETATM   22  C   UNL     1      40.683  -6.653  15.050  1.00  0.00     0.100 A 
HETATM   23  C   UNL     1      42.140  -6.835  15.322  1.00  0.00     0.261 A 
HETATM   24  O   UNL     1      42.935  -7.161  14.443  1.00  0.00    -0.267 OA
HETATM   25  N   UNL     1      42.556  -6.634  16.618  1.00  0.00    -0.322 N 
HETATM   26  C   UNL     1      41.726  -6.282  17.656  1.00  0.00     0.045 A 
HETATM   27  H   UNL     1      43.546  -6.758  16.789  1.00  0.00     0.169 HD
HETATM   28  C   UNL     1      40.419  -6.091  17.411  1.00  0.00     0.031 A 
HETATM   29  C   UNL     1      39.895  -6.278  16.076  1.00  0.00     0.025 A 
BRANCH  26  30
HETATM   30  C   UNL     1      42.298  -6.171  19.010  1.00  0.00    -0.009 A 
HETATM   31  C   UNL     1      41.939  -5.099  19.842  1.00  0.00     0.013 A 
HETATM   32  C   UNL     1      42.478  -4.979  21.125  1.00  0.00     0.001 A 
HETATM   33  C   UNL     1      43.384  -5.929  21.591  1.00  0.00     0.000 A 
HETATM   34  C   UNL     1      43.748  -7.000  20.778  1.00  0.00     0.001 A 
HETATM   35  C   UNL     1      43.206  -7.123  19.496  1.00  0.00     0.013 A 
ENDBRANCH  26  30
ENDBRANCH   2  22
TORSDOF 4
ENDMDL
MODEL 10
REMARK VINA RESULT:      -8.3      6.174      9.321
REMARK  4 active torsions:
REMARK  status: ('A' for Active; 'I' for Inactive)
REMARK    1  A    between atoms: C_5  and  N_6 
REMARK       I    between atoms: N_6  and  C_7 
REMARK    2  A    between atoms: C_7  and  C_8 
REMARK    3  A    between atoms: C_12  and  C_13 
REMARK    4  A    between atoms: N_24  and  C_25 
ROOT
HETATM    1  N   UNL     1      39.484 -12.547   1.342  1.00  0.00    -0.348 N 
HETATM    2  C   UNL     1      39.637 -13.101   2.585  1.00  0.00     0.257 C 
HETATM    3  O   UNL     1      39.040 -12.690   3.575  1.00  0.00    -0.267 OA
HETATM    4  H   UNL     1      40.033 -12.924   0.569  1.00  0.00     0.163 HD
ENDROOT
BRANCH   1   5
HETATM    5  C   UNL     1      38.469 -11.559   1.045  1.00  0.00     0.122 C 
HETATM    6  C   UNL     1      38.734 -10.204   1.736  1.00  0.00     0.039 C 
HETATM    7  C   UNL     1      39.722  -9.249   0.994  1.00  0.00    -0.040 C 
HETATM    8  C   UNL     1      41.165  -9.790   1.047  1.00  0.00     0.015 C 
HETATM    9  C   UNL     1      39.712  -7.887   1.722  1.00  0.00     0.015 C 
HETATM   10  C   UNL     1      39.296  -9.018  -0.491  1.00  0.00     0.069 C 
HETATM   11  C   UNL     1      38.800 -10.272  -1.131  1.00  0.00     0.047 A 
HETATM   12  C   UNL     1      38.428 -11.407  -0.434  1.00  0.00     0.008 A 
HETATM   13  N   UNL     1      38.637 -10.558  -2.483  1.00  0.00    -0.238 N 
HETATM   14  C   UNL     1      38.076 -12.336  -1.416  1.00  0.00     0.150 A 
HETATM   15  N   UNL     1      38.226 -11.852  -2.644  1.00  0.00    -0.179 NA
BRANCH  13  16
HETATM   16  C   UNL     1      38.824  -9.752  -3.650  1.00  0.00     0.058 A 
HETATM   17  C   UNL     1      40.137  -9.423  -4.037  1.00  0.00     0.031 A 
HETATM   18  C   UNL     1      40.378  -8.630  -5.161  1.00  0.00     0.002 A 
HETATM   19  C   UNL     1      39.312  -8.162  -5.921  1.00  0.00     0.000 A 
HETATM   20  C   UNL     1      38.008  -8.495  -5.561  1.00  0.00     0.002 A 
HETATM   21  C   UNL     1      37.762  -9.289  -4.434  1.00  0.00     0.031 A 
ENDBRANCH  13  16
ENDBRANCH   1   5
BRANCH   2  22
HETATM   22  C   UNL     1      40.527 -14.299   2.645  1.00  0.00     0.100 A 
HETATM   23  C   UNL     1      40.543 -15.380   1.616  1.00  0.00     0.261 A 
HETATM   24  O   UNL     1      39.863 -15.322   0.593  1.00  0.00    -0.267 OA
HETATM   25  N   UNL     1      41.349 -16.465   1.872  1.00  0.00    -0.322 N 
HETATM   26  C   UNL     1      42.126 -16.608   2.997  1.00  0.00     0.045 A 
HETATM   27  H   UNL     1      41.354 -17.190   1.165  1.00  0.00     0.169 HD
HETATM   28  C   UNL     1      42.136 -15.626   3.913  1.00  0.00     0.031 A 
HETATM   29  C   UNL     1      41.320 -14.446   3.724  1.00  0.00     0.025 A 
BRANCH  26  30
HETATM   30  C   UNL     1      42.886 -17.858   3.175  1.00  0.00    -0.009 A 
HETATM   31  C   UNL     1      42.863 -18.846   2.178  1.00  0.00     0.013 A 
HETATM   32  C   UNL     1      43.573 -20.039   2.337  1.00  0.00     0.001 A 
HETATM   33  C   UNL     1      44.314 -20.258   3.496  1.00  0.00     0.000 A 
HETATM   34  C   UNL     1      44.349 -19.286   4.494  1.00  0.00     0.001 A 
HETATM   35  C   UNL     1      43.641 -18.091   4.334  1.00  0.00     0.013 A 
ENDBRANCH  26  30
ENDBRANCH   2  22
TORSDOF 4
ENDMDL
