MODEL 1
REMARK VINA RESULT:      -9.5      0.000      0.000
REMARK  8 active torsions:
REMARK  status: ('A' for Active; 'I' for Inactive)
REMARK       I    between atoms: N_2  and  C_3 
REMARK    1  A    between atoms: N_2  and  C_29 
REMARK    2  A    between atoms: C_3  and  C_4 
REMARK    3  A    between atoms: C_7  and  C_8 
REMARK       I    between atoms: C_8  and  N_9 
REMARK    4  A    between atoms: N_9  and  C_10 
REMARK    5  A    between atoms: N_20  and  C_21 
REMARK    6  A    between atoms: C_21  and  C_22 
REMARK    7  A    between atoms: C_29  and  C_30 
REMARK    8  A    between atoms: C_30  and  C_31 
ROOT
HETATM    1  C   UNL     1      42.742 -14.156   5.960  1.00  0.00     0.098 C 
HETATM    2  C   UNL     1      41.918 -13.620   4.851  1.00  0.00     0.206 C 
HETATM    3  O   UNL     1      40.849 -14.137   4.527  1.00  0.00    -0.286 OA
HETATM    4  C   UNL     1      42.441 -12.435   4.109  1.00  0.00     0.098 C 
HETATM    5  C   UNL     1      43.449 -11.757   4.687  1.00  0.00     0.111 C 
HETATM    6  N   UNL     1      44.074 -12.131   5.872  1.00  0.00    -0.362 N 
HETATM    7  C   UNL     1      43.720 -13.359   6.423  1.00  0.00     0.111 C 
ENDROOT
BRANCH   1   8
HETATM    8  C   UNL     1      42.563 -15.459   6.640  1.00  0.00     0.258 C 
HETATM    9  N   UNL     1      43.460 -16.498   6.392  1.00  0.00    -0.352 N 
HETATM   10  C   UNL     1      43.324 -17.692   7.216  1.00  0.00     0.152 C 
HETATM   11  O   UNL     1      41.697 -15.540   7.515  1.00  0.00    -0.267 OA
BRANCH   9  12
HETATM   12  C   UNL     1      44.313 -16.665   5.201  1.00  0.00     0.131 C 
BRANCH  12  13
HETATM   13  C   UNL     1      43.595 -16.934   3.880  1.00  0.00     0.079 C 
BRANCH  13  14
HETATM   14  C   UNL     1      43.651 -18.381   3.472  1.00  0.00     0.035 A 
HETATM   15  N   UNL     1      44.177 -19.247   4.371  1.00  0.00    -0.266 NA
HETATM   16  C   UNL     1      44.200 -20.553   4.030  1.00  0.00     0.117 A 
HETATM   17  C   UNL     1      43.726 -21.043   2.825  1.00  0.00     0.019 A 
HETATM   18  C   UNL     1      43.201 -20.138   1.910  1.00  0.00     0.003 A 
HETATM   19  C   UNL     1      43.165 -18.786   2.232  1.00  0.00     0.027 A 
ENDBRANCH  13  14
ENDBRANCH  12  13
ENDBRANCH   9  12
ENDBRANCH   1   8
BRANCH   4  20
HETATM   20  C   UNL     1      41.968 -12.025   2.758  1.00  0.00     0.257 C 
HETATM   21  N   UNL     1      40.964 -12.810   2.248  1.00  0.00    -0.352 N 
HETATM   22  H   UNL     1      40.496 -13.459   2.881  1.00  0.00     0.163 HD
HETATM   23  O   UNL     1      42.495 -11.106   2.138  1.00  0.00    -0.267 OA
BRANCH  21  24
HETATM   24  C   UNL     1      40.445 -12.709   0.882  1.00  0.00     0.084 C 
HETATM   25  C   UNL     1      40.126 -14.135   0.411  1.00  0.00     0.025 C 
HETATM   26  C   UNL     1      39.660 -14.340  -1.029  1.00  0.00     0.002 C 
HETATM   27  C   UNL     1      40.428 -13.545  -2.085  1.00  0.00     0.000 C 
HETATM   28  C   UNL     1      39.695 -12.304  -2.596  1.00  0.00     0.000 C 
HETATM   29  C   UNL     1      39.537 -11.145  -1.609  1.00  0.00     0.000 C 
HETATM   30  C   UNL     1      38.585 -11.427  -0.448  1.00  0.00     0.002 C 
HETATM   31  C   UNL     1      39.261 -11.737   0.889  1.00  0.00     0.025 C 
ENDBRANCH  21  24
ENDBRANCH   4  20
BRANCH   6  32
HETATM   32  C   UNL     1      45.060 -11.252   6.545  1.00  0.00     0.159 C 
BRANCH  32  33
HETATM   33  C   UNL     1      44.493 -10.429   7.712  1.00  0.00     0.139 C 
HETATM   34  O   UNL     1      44.173 -11.247   8.855  1.00  0.00    -0.384 OA
HETATM   35  C   UNL     1      44.290 -10.409  10.007  1.00  0.00     0.168 C 
HETATM   36  C   UNL     1      45.454  -9.497   9.708  1.00  0.00     0.029 C 
HETATM   37  C   UNL     1      45.359  -9.277   8.214  1.00  0.00     0.035 C 
ENDBRANCH  32  33
ENDBRANCH   6  32
TORSDOF 8
ENDMDL
MODEL 2
REMARK VINA RESULT:      -9.3      1.592      2.594
REMARK  8 active torsions:
REMARK  status: ('A' for Active; 'I' for Inactive)
REMARK       I    between atoms: N_2  and  C_3 
REMARK    1  A    between atoms: N_2  and  C_29 
REMARK    2  A    between atoms: C_3  and  C_4 
REMARK    3  A    between atoms: C_7  and  C_8 
REMARK       I    between atoms: C_8  and  N_9 
REMARK    4  A    between atoms: N_9  and  C_10 
REMARK    5  A    between atoms: N_20  and  C_21 
REMARK    6  A    between atoms: C_21  and  C_22 
REMARK    7  A    between atoms: C_29  and  C_30 
REMARK    8  A    between atoms: C_30  and  C_31 
ROOT
HETATM    1  C   UNL     1      42.815 -14.263   6.093  1.00  0.00     0.098 C 
HETATM    2  C   UNL     1      41.988 -13.515   5.117  1.00  0.00     0.206 C 
HETATM    3  O   UNL     1      40.899 -13.936   4.730  1.00  0.00    -0.286 OA
HETATM    4  C   UNL     1      42.535 -12.231   4.587  1.00  0.00     0.098 C 
HETATM    5  C   UNL     1      43.574 -11.695   5.253  1.00  0.00     0.111 C 
HETATM    6  N   UNL     1      44.208 -12.293   6.338  1.00  0.00    -0.362 N 
HETATM    7  C   UNL     1      43.826 -13.590   6.668  1.00  0.00     0.111 C 
ENDROOT
BRANCH   1   8
HETATM    8  C   UNL     1      42.608 -15.662   6.532  1.00  0.00     0.258 C 
HETATM    9  N   UNL     1      43.330 -16.691   5.929  1.00  0.00    -0.352 N 
HETATM   10  C   UNL     1      43.200 -18.017   6.521  1.00  0.00     0.152 C 
HETATM   11  O   UNL     1      41.896 -15.857   7.522  1.00  0.00    -0.267 OA
BRANCH   9  12
HETATM   12  C   UNL     1      43.949 -16.671   4.591  1.00  0.00     0.131 C 
BRANCH  12  13
HETATM   13  C   UNL     1      43.180 -17.376   3.473  1.00  0.00     0.079 C 
BRANCH  13  14
HETATM   14  C   UNL     1      42.351 -16.429   2.652  1.00  0.00     0.035 A 
HETATM   15  N   UNL     1      41.012 -16.640   2.645  1.00  0.00    -0.266 NA
HETATM   16  C   UNL     1      40.254 -15.774   1.939  1.00  0.00     0.117 A 
HETATM   17  C   UNL     1      40.767 -14.702   1.229  1.00  0.00     0.019 A 
HETATM   18  C   UNL     1      42.143 -14.508   1.238  1.00  0.00     0.003 A 
HETATM   19  C   UNL     1      42.950 -15.384   1.954  1.00  0.00     0.027 A 
ENDBRANCH  13  14
ENDBRANCH  12  13
ENDBRANCH   9  12
ENDBRANCH   1   8
BRANCH   4  20
HETATM   20  C   UNL     1      42.052 -11.572   3.342  1.00  0.00     0.257 C 
HETATM   21  N   UNL     1      40.685 -11.492   3.239  1.00  0.00    -0.352 N 
HETATM   22  H   UNL     1      40.130 -11.694   4.070  1.00  0.00     0.163 HD
HETATM   23  O   UNL     1      42.823 -11.206   2.460  1.00  0.00    -0.267 OA
BRANCH  21  24
HETATM   24  C   UNL     1      39.969 -11.036   2.045  1.00  0.00     0.084 C 
HETATM   25  C   UNL     1      38.631 -11.787   2.005  1.00  0.00     0.025 C 
HETATM   26  C   UNL     1      37.715 -11.580   0.800  1.00  0.00     0.002 C 
HETATM   27  C   UNL     1      38.413 -11.577  -0.560  1.00  0.00     0.000 C 
HETATM   28  C   UNL     1      38.618 -10.185  -1.160  1.00  0.00     0.000 C 
HETATM   29  C   UNL     1      39.632  -9.279  -0.460  1.00  0.00     0.000 C 
HETATM   30  C   UNL     1      39.200  -8.795   0.924  1.00  0.00     0.002 C 
HETATM   31  C   UNL     1      39.866  -9.508   2.102  1.00  0.00     0.025 C 
ENDBRANCH  21  24
ENDBRANCH   4  20
BRANCH   6  32
HETATM   32  C   UNL     1      45.233 -11.576   7.134  1.00  0.00     0.159 C 
BRANCH  32  33
HETATM   33  C   UNL     1      44.667 -10.565   8.144  1.00  0.00     0.139 C 
HETATM   34  O   UNL     1      43.982 -11.208   9.237  1.00  0.00    -0.384 OA
HETATM   35  C   UNL     1      44.079 -10.327  10.359  1.00  0.00     0.168 C 
HETATM   36  C   UNL     1      45.449  -9.705  10.248  1.00  0.00     0.029 C 
HETATM   37  C   UNL     1      45.666  -9.586   8.755  1.00  0.00     0.035 C 
ENDBRANCH  32  33
ENDBRANCH   6  32
TORSDOF 8
ENDMDL
MODEL 3
REMARK VINA RESULT:      -9.2      2.342      8.467
REMARK  8 active torsions:
REMARK  status: ('A' for Active; 'I' for Inactive)
REMARK       I    between atoms: N_2  and  C_3 
REMARK    1  A    between atoms: N_2  and  C_29 
REMARK    2  A    between atoms: C_3  and  C_4 
REMARK    3  A    between atoms: C_7  and  C_8 
REMARK       I    between atoms: C_8  and  N_9 
REMARK    4  A    between atoms: N_9  and  C_10 
REMARK    5  A    between atoms: N_20  and  C_21 
REMARK    6  A    between atoms: C_21  and  C_22 
REMARK    7  A    between atoms: C_29  and  C_30 
REMARK    8  A    between atoms: C_30  and  C_31 
ROOT
HETATM    1  C   UNL     1      39.658 -11.925   4.769  1.00  0.00     0.098 C 
HETATM    2  C   UNL     1      39.877 -13.327   5.197  1.00  0.00     0.206 C 
HETATM    3  O   UNL     1      39.787 -13.667   6.376  1.00  0.00    -0.286 OA
HETATM    4  C   UNL     1      40.242 -14.323   4.148  1.00  0.00     0.098 C 
HETATM    5  C   UNL     1      40.044 -13.955   2.869  1.00  0.00     0.111 C 
HETATM    6  N   UNL     1      39.601 -12.697   2.470  1.00  0.00    -0.362 N 
HETATM    7  C   UNL     1      39.485 -11.718   3.452  1.00  0.00     0.111 C 
ENDROOT
BRANCH   1   8
HETATM    8  C   UNL     1      39.561 -10.739   5.651  1.00  0.00     0.258 C 
HETATM    9  N   UNL     1      40.663  -9.898   5.801  1.00  0.00    -0.352 N 
HETATM   10  C   UNL     1      40.448  -8.665   6.548  1.00  0.00     0.152 C 
HETATM   11  O   UNL     1      38.456 -10.457   6.121  1.00  0.00    -0.267 OA
BRANCH   9  12
HETATM   12  C   UNL     1      42.079 -10.245   5.578  1.00  0.00     0.131 C 
BRANCH  12  13
HETATM   13  C   UNL     1      42.703 -11.231   6.565  1.00  0.00     0.079 C 
BRANCH  13  14
HETATM   14  C   UNL     1      43.790 -10.609   7.399  1.00  0.00     0.035 A 
HETATM   15  N   UNL     1      43.394  -9.899   8.483  1.00  0.00    -0.266 NA
HETATM   16  C   UNL     1      44.363  -9.366   9.258  1.00  0.00     0.117 A 
HETATM   17  C   UNL     1      45.717  -9.503   9.003  1.00  0.00     0.019 A 
HETATM   18  C   UNL     1      46.102 -10.224   7.879  1.00  0.00     0.003 A 
HETATM   19  C   UNL     1      45.128 -10.783   7.061  1.00  0.00     0.027 A 
ENDBRANCH  13  14
ENDBRANCH  12  13
ENDBRANCH   9  12
ENDBRANCH   1   8
BRANCH   4  20
HETATM   20  C   UNL     1      40.875 -15.640   4.435  1.00  0.00     0.257 C 
HETATM   21  N   UNL     1      41.979 -15.917   3.668  1.00  0.00    -0.352 N 
HETATM   22  H   UNL     1      42.388 -15.155   3.126  1.00  0.00     0.163 HD
HETATM   23  O   UNL     1      40.392 -16.429   5.242  1.00  0.00    -0.267 OA
BRANCH  21  24
HETATM   24  C   UNL     1      42.675 -17.205   3.651  1.00  0.00     0.084 C 
HETATM   25  C   UNL     1      43.036 -17.506   2.189  1.00  0.00     0.025 C 
HETATM   26  C   UNL     1      43.686 -18.848   1.861  1.00  0.00     0.002 C 
HETATM   27  C   UNL     1      43.075 -20.061   2.563  1.00  0.00     0.000 C 
HETATM   28  C   UNL     1      43.884 -20.574   3.755  1.00  0.00     0.000 C 
HETATM   29  C   UNL     1      43.924 -19.677   4.994  1.00  0.00     0.000 C 
HETATM   30  C   UNL     1      44.711 -18.379   4.812  1.00  0.00     0.002 C 
HETATM   31  C   UNL     1      43.860 -17.123   4.618  1.00  0.00     0.025 C 
ENDBRANCH  21  24
ENDBRANCH   4  20
BRANCH   6  32
HETATM   32  C   UNL     1      39.239 -12.408   1.062  1.00  0.00     0.159 C 
BRANCH  32  33
HETATM   33  C   UNL     1      40.127 -13.102   0.017  1.00  0.00     0.139 C 
HETATM   34  O   UNL     1      39.384 -14.016  -0.813  1.00  0.00    -0.384 OA
HETATM   35  C   UNL     1      40.073 -14.088  -2.064  1.00  0.00     0.168 C 
HETATM   36  C   UNL     1      40.589 -12.691  -2.306  1.00  0.00     0.029 C 
HETATM   37  C   UNL     1      40.916 -12.188  -0.917  1.00  0.00     0.035 C 
ENDBRANCH  32  33
ENDBRANCH   6  32
TORSDOF 8
ENDMDL
MODEL 4
REMARK VINA RESULT:      -8.8      3.488      8.513
REMARK  8 active torsions:
REMARK  status: ('A' for Active; 'I' for Inactive)
REMARK       I    between atoms: N_2  and  C_3 
REMARK    1  A    between atoms: N_2  and  C_29 
REMARK    2  A    between atoms: C_3  and  C_4 
REMARK    3  A    between atoms: C_7  and  C_8 
REMARK       I    between atoms: C_8  and  N_9 
REMARK    4  A    between atoms: N_9  and  C_10 
REMARK    5  A    between atoms: N_20  and  C_21 
REMARK    6  A    between atoms: C_21  and  C_22 
REMARK    7  A    between atoms: C_29  and  C_30 
REMARK    8  A    between atoms: C_30  and  C_31 
ROOT
HETATM    1  C   UNL     1      43.650 -10.438   7.397  1.00  0.00     0.098 C 
HETATM    2  C   UNL     1      43.625 -11.804   6.824  1.00  0.00     0.206 C 
HETATM    3  O   UNL     1      44.354 -12.700   7.248  1.00  0.00    -0.286 OA
HETATM    4  C   UNL     1      42.697 -12.060   5.683  1.00  0.00     0.098 C 
HETATM    5  C   UNL     1      41.741 -11.139   5.463  1.00  0.00     0.111 C 
HETATM    6  N   UNL     1      41.615  -9.947   6.171  1.00  0.00    -0.362 N 
HETATM    7  C   UNL     1      42.625  -9.630   7.075  1.00  0.00     0.111 C 
ENDROOT
BRANCH   1   8
HETATM    8  C   UNL     1      44.665  -9.891   8.326  1.00  0.00     0.258 C 
HETATM    9  N   UNL     1      44.450  -9.957   9.703  1.00  0.00    -0.352 N 
HETATM   10  C   UNL     1      45.558  -9.553  10.558  1.00  0.00     0.152 C 
HETATM   11  O   UNL     1      45.740  -9.513   7.851  1.00  0.00    -0.267 OA
BRANCH   9  12
HETATM   12  C   UNL     1      43.152 -10.079  10.391  1.00  0.00     0.131 C 
BRANCH  12  13
HETATM   13  C   UNL     1      43.198 -10.440  11.875  1.00  0.00     0.079 C 
BRANCH  13  14
HETATM   14  C   UNL     1      42.525  -9.414  12.744  1.00  0.00     0.035 A 
HETATM   15  N   UNL     1      41.256  -9.686  13.136  1.00  0.00    -0.266 NA
HETATM   16  C   UNL     1      40.655  -8.788  13.946  1.00  0.00     0.117 A 
HETATM   17  C   UNL     1      41.257  -7.621  14.384  1.00  0.00     0.019 A 
HETATM   18  C   UNL     1      42.553  -7.353  13.961  1.00  0.00     0.003 A 
HETATM   19  C   UNL     1      43.198  -8.258  13.126  1.00  0.00     0.027 A 
ENDBRANCH  13  14
ENDBRANCH  12  13
ENDBRANCH   9  12
ENDBRANCH   1   8
BRANCH   4  20
HETATM   20  C   UNL     1      42.824 -13.213   4.750  1.00  0.00     0.257 C 
HETATM   21  N   UNL     1      42.659 -14.440   5.343  1.00  0.00    -0.352 N 
HETATM   22  H   UNL     1      42.278 -14.467   6.289  1.00  0.00     0.163 HD
HETATM   23  O   UNL     1      43.126 -13.063   3.570  1.00  0.00    -0.267 OA
BRANCH  21  24
HETATM   24  C   UNL     1      42.893 -15.722   4.674  1.00  0.00     0.084 C 
HETATM   25  C   UNL     1      43.011 -16.791   5.771  1.00  0.00     0.025 C 
HETATM   26  C   UNL     1      43.361 -18.219   5.361  1.00  0.00     0.002 C 
HETATM   27  C   UNL     1      44.466 -18.348   4.312  1.00  0.00     0.000 C 
HETATM   28  C   UNL     1      43.962 -18.643   2.899  1.00  0.00     0.000 C 
HETATM   29  C   UNL     1      43.203 -17.517   2.193  1.00  0.00     0.000 C 
HETATM   30  C   UNL     1      41.832 -17.205   2.791  1.00  0.00     0.002 C 
HETATM   31  C   UNL     1      41.769 -15.946   3.657  1.00  0.00     0.025 C 
ENDBRANCH  21  24
ENDBRANCH   4  20
BRANCH   6  32
HETATM   32  C   UNL     1      40.443  -9.057   5.998  1.00  0.00     0.159 C 
BRANCH  32  33
HETATM   33  C   UNL     1      39.450  -9.070   7.170  1.00  0.00     0.139 C 
HETATM   34  O   UNL     1      39.481 -10.313   7.900  1.00  0.00    -0.384 OA
HETATM   35  C   UNL     1      39.073 -10.015   9.237  1.00  0.00     0.168 C 
HETATM   36  C   UNL     1      39.657  -8.654   9.528  1.00  0.00     0.029 C 
HETATM   37  C   UNL     1      39.591  -7.946   8.193  1.00  0.00     0.035 C 
ENDBRANCH  32  33
ENDBRANCH   6  32
TORSDOF 8
ENDMDL
MODEL 5
REMARK VINA RESULT:      -8.7      2.144      7.144
REMARK  8 active torsions:
REMARK  status: ('A' for Active; 'I' for Inactive)
REMARK       I    between atoms: N_2  and  C_3 
REMARK    1  A    between atoms: N_2  and  C_29 
REMARK    2  A    between atoms: C_3  and  C_4 
REMARK    3  A    between atoms: C_7  and  C_8 
REMARK       I    between atoms: C_8  and  N_9 
REMARK    4  A    between atoms: N_9  and  C_10 
REMARK    5  A    between atoms: N_20  and  C_21 
REMARK    6  A    between atoms: C_21  and  C_22 
REMARK    7  A    between atoms: C_29  and  C_30 
REMARK    8  A    between atoms: C_30  and  C_31 
ROOT
HETATM    1  C   UNL     1      44.204 -12.112   6.108  1.00  0.00     0.098 C 
HETATM    2  C   UNL     1      43.644 -12.136   4.737  1.00  0.00     0.206 C 
HETATM    3  O   UNL     1      44.111 -11.445   3.833  1.00  0.00    -0.286 OA
HETATM    4  C   UNL     1      42.462 -13.012   4.487  1.00  0.00     0.098 C 
HETATM    5  C   UNL     1      42.187 -13.939   5.423  1.00  0.00     0.111 C 
HETATM    6  N   UNL     1      42.877 -14.077   6.623  1.00  0.00    -0.362 N 
HETATM    7  C   UNL     1      43.826 -13.105   6.931  1.00  0.00     0.111 C 
ENDROOT
BRANCH   1   8
HETATM    8  C   UNL     1      45.177 -11.134   6.646  1.00  0.00     0.258 C 
HETATM    9  N   UNL     1      44.765 -10.197   7.593  1.00  0.00    -0.352 N 
HETATM   10  C   UNL     1      45.806  -9.377   8.199  1.00  0.00     0.152 C 
HETATM   11  O   UNL     1      46.364 -11.268   6.335  1.00  0.00    -0.267 OA
BRANCH   9  12
HETATM   12  C   UNL     1      43.390  -9.717   7.823  1.00  0.00     0.131 C 
BRANCH  12  13
HETATM   13  C   UNL     1      43.238  -8.483   8.712  1.00  0.00     0.079 C 
BRANCH  13  14
HETATM   14  C   UNL     1      42.789  -8.823  10.106  1.00  0.00     0.035 A 
HETATM   15  N   UNL     1      41.545  -9.345  10.235  1.00  0.00    -0.266 NA
HETATM   16  C   UNL     1      41.145  -9.686  11.479  1.00  0.00     0.117 A 
HETATM   17  C   UNL     1      41.927  -9.528  12.610  1.00  0.00     0.019 A 
HETATM   18  C   UNL     1      43.194  -8.979  12.460  1.00  0.00     0.003 A 
HETATM   19  C   UNL     1      43.634  -8.616  11.192  1.00  0.00     0.027 A 
ENDBRANCH  13  14
ENDBRANCH  12  13
ENDBRANCH   9  12
ENDBRANCH   1   8
BRANCH   4  20
HETATM   20  C   UNL     1      41.547 -12.861   3.322  1.00  0.00     0.257 C 
HETATM   21  N   UNL     1      42.118 -13.165   2.112  1.00  0.00    -0.352 N 
HETATM   22  H   UNL     1      43.019 -13.643   2.114  1.00  0.00     0.163 HD
HETATM   23  O   UNL     1      40.404 -12.430   3.446  1.00  0.00    -0.267 OA
BRANCH  21  24
HETATM   24  C   UNL     1      41.477 -12.944   0.814  1.00  0.00     0.084 C 
HETATM   25  C   UNL     1      40.263 -13.881   0.742  1.00  0.00     0.025 C 
HETATM   26  C   UNL     1      39.460 -13.936  -0.557  1.00  0.00     0.002 C 
HETATM   27  C   UNL     1      40.291 -13.973  -1.839  1.00  0.00     0.000 C 
HETATM   28  C   UNL     1      40.369 -12.637  -2.578  1.00  0.00     0.000 C 
HETATM   29  C   UNL     1      41.173 -11.525  -1.901  1.00  0.00     0.000 C 
HETATM   30  C   UNL     1      40.536 -10.967  -0.629  1.00  0.00     0.002 C 
HETATM   31  C   UNL     1      41.164 -11.450   0.680  1.00  0.00     0.025 C 
ENDBRANCH  21  24
ENDBRANCH   4  20
BRANCH   6  32
HETATM   32  C   UNL     1      42.639 -15.222   7.533  1.00  0.00     0.159 C 
BRANCH  32  33
HETATM   33  C   UNL     1      43.460 -16.480   7.208  1.00  0.00     0.139 C 
HETATM   34  O   UNL     1      42.656 -17.520   6.617  1.00  0.00    -0.384 OA
HETATM   35  C   UNL     1      43.531 -18.304   5.802  1.00  0.00     0.168 C 
HETATM   36  C   UNL     1      44.501 -17.312   5.208  1.00  0.00     0.029 C 
HETATM   37  C   UNL     1      44.674 -16.283   6.304  1.00  0.00     0.035 C 
ENDBRANCH  32  33
ENDBRANCH   6  32
TORSDOF 8
ENDMDL
MODEL 6
REMARK VINA RESULT:      -8.6      1.941      6.083
REMARK  8 active torsions:
REMARK  status: ('A' for Active; 'I' for Inactive)
REMARK       I    between atoms: N_2  and  C_3 
REMARK    1  A    between atoms: N_2  and  C_29 
REMARK    2  A    between atoms: C_3  and  C_4 
REMARK    3  A    between atoms: C_7  and  C_8 
REMARK       I    between atoms: C_8  and  N_9 
REMARK    4  A    between atoms: N_9  and  C_10 
REMARK    5  A    between atoms: N_20  and  C_21 
REMARK    6  A    between atoms: C_21  and  C_22 
REMARK    7  A    between atoms: C_29  and  C_30 
REMARK    8  A    between atoms: C_30  and  C_31 
ROOT
HETATM    1  C   UNL     1      43.874 -12.148   5.959  1.00  0.00     0.098 C 
HETATM    2  C   UNL     1      43.670 -11.962   4.504  1.00  0.00     0.206 C 
HETATM    3  O   UNL     1      44.420 -11.260   3.827  1.00  0.00    -0.286 OA
HETATM    4  C   UNL     1      42.495 -12.636   3.878  1.00  0.00     0.098 C 
HETATM    5  C   UNL     1      41.895 -13.600   4.599  1.00  0.00     0.111 C 
HETATM    6  N   UNL     1      42.248 -13.947   5.900  1.00  0.00    -0.362 N 
HETATM    7  C   UNL     1      43.195 -13.152   6.540  1.00  0.00     0.111 C 
ENDROOT
BRANCH   1   8
HETATM    8  C   UNL     1      44.789 -11.371   6.827  1.00  0.00     0.258 C 
HETATM    9  N   UNL     1      44.270 -10.609   7.873  1.00  0.00    -0.352 N 
HETATM   10  C   UNL     1      45.233 -10.006   8.785  1.00  0.00     0.152 C 
HETATM   11  O   UNL     1      46.003 -11.532   6.677  1.00  0.00    -0.267 OA
BRANCH   9  12
HETATM   12  C   UNL     1      42.898 -10.080   7.987  1.00  0.00     0.131 C 
BRANCH  12  13
HETATM   13  C   UNL     1      42.461  -9.081   6.916  1.00  0.00     0.079 C 
BRANCH  13  14
HETATM   14  C   UNL     1      41.342  -9.603   6.057  1.00  0.00     0.035 A 
HETATM   15  N   UNL     1      40.590 -10.603   6.578  1.00  0.00    -0.266 NA
HETATM   16  C   UNL     1      39.561 -11.054   5.830  1.00  0.00     0.117 A 
HETATM   17  C   UNL     1      39.243 -10.558   4.577  1.00  0.00     0.019 A 
HETATM   18  C   UNL     1      40.032  -9.541   4.055  1.00  0.00     0.003 A 
HETATM   19  C   UNL     1      41.101  -9.057   4.800  1.00  0.00     0.027 A 
ENDBRANCH  13  14
ENDBRANCH  12  13
ENDBRANCH   9  12
ENDBRANCH   1   8
BRANCH   4  20
HETATM   20  C   UNL     1      41.918 -12.248   2.561  1.00  0.00     0.257 C 
HETATM   21  N   UNL     1      40.938 -13.093   2.102  1.00  0.00    -0.352 N 
HETATM   22  H   UNL     1      40.551 -13.775   2.754  1.00  0.00     0.163 HD
HETATM   23  O   UNL     1      42.347 -11.293   1.920  1.00  0.00    -0.267 OA
BRANCH  21  24
HETATM   24  C   UNL     1      40.334 -13.016   0.770  1.00  0.00     0.084 C 
HETATM   25  C   UNL     1      40.073 -14.457   0.307  1.00  0.00     0.025 C 
HETATM   26  C   UNL     1      39.536 -14.682  -1.105  1.00  0.00     0.002 C 
HETATM   27  C   UNL     1      40.191 -13.838  -2.198  1.00  0.00     0.000 C 
HETATM   28  C   UNL     1      39.357 -12.641  -2.655  1.00  0.00     0.000 C 
HETATM   29  C   UNL     1      39.190 -11.498  -1.651  1.00  0.00     0.000 C 
HETATM   30  C   UNL     1      38.326 -11.842  -0.438  1.00  0.00     0.002 C 
HETATM   31  C   UNL     1      39.097 -12.117   0.854  1.00  0.00     0.025 C 
ENDBRANCH  21  24
ENDBRANCH   4  20
BRANCH   6  32
HETATM   32  C   UNL     1      41.666 -15.129   6.578  1.00  0.00     0.159 C 
BRANCH  32  33
HETATM   33  C   UNL     1      42.350 -16.463   6.240  1.00  0.00     0.139 C 
HETATM   34  O   UNL     1      42.268 -16.780   4.836  1.00  0.00    -0.384 OA
HETATM   35  C   UNL     1      43.400 -17.599   4.532  1.00  0.00     0.168 C 
HETATM   36  C   UNL     1      44.518 -17.047   5.383  1.00  0.00     0.029 C 
HETATM   37  C   UNL     1      43.815 -16.596   6.644  1.00  0.00     0.035 C 
ENDBRANCH  32  33
ENDBRANCH   6  32
TORSDOF 8
ENDMDL
MODEL 7
REMARK VINA RESULT:      -8.5      2.554      6.550
REMARK  8 active torsions:
REMARK  status: ('A' for Active; 'I' for Inactive)
REMARK       I    between atoms: N_2  and  C_3 
REMARK    1  A    between atoms: N_2  and  C_29 
REMARK    2  A    between atoms: C_3  and  C_4 
REMARK    3  A    between atoms: C_7  and  C_8 
REMARK       I    between atoms: C_8  and  N_9 
REMARK    4  A    between atoms: N_9  and  C_10 
REMARK    5  A    between atoms: N_20  and  C_21 
REMARK    6  A    between atoms: C_21  and  C_22 
REMARK    7  A    between atoms: C_29  and  C_30 
REMARK    8  A    between atoms: C_30  and  C_31 
ROOT
HETATM    1  C   UNL     1      42.026  -9.524   5.488  1.00  0.00     0.098 C 
HETATM    2  C   UNL     1      42.388 -10.537   4.470  1.00  0.00     0.206 C 
HETATM    3  O   UNL     1      42.084 -10.404   3.285  1.00  0.00    -0.286 OA
HETATM    4  C   UNL     1      43.118 -11.754   4.932  1.00  0.00     0.098 C 
HETATM    5  C   UNL     1      43.662 -11.702   6.162  1.00  0.00     0.111 C 
HETATM    6  N   UNL     1      43.522 -10.633   7.042  1.00  0.00    -0.362 N 
HETATM    7  C   UNL     1      42.652  -9.611   6.674  1.00  0.00     0.111 C 
ENDROOT
BRANCH   1   8
HETATM    8  C   UNL     1      41.081  -8.397   5.312  1.00  0.00     0.258 C 
HETATM    9  N   UNL     1      39.708  -8.637   5.326  1.00  0.00    -0.352 N 
HETATM   10  C   UNL     1      38.839  -7.467   5.315  1.00  0.00     0.152 C 
HETATM   11  O   UNL     1      41.544  -7.253   5.296  1.00  0.00    -0.267 OA
BRANCH   9  12
HETATM   12  C   UNL     1      39.029  -9.912   5.031  1.00  0.00     0.131 C 
BRANCH  12  13
HETATM   13  C   UNL     1      38.356 -10.026   3.663  1.00  0.00     0.079 C 
BRANCH  13  14
HETATM   14  C   UNL     1      38.855 -11.198   2.866  1.00  0.00     0.035 A 
HETATM   15  N   UNL     1      39.010 -11.007   1.533  1.00  0.00    -0.266 NA
HETATM   16  C   UNL     1      39.491 -12.043   0.812  1.00  0.00     0.117 A 
HETATM   17  C   UNL     1      39.825 -13.271   1.357  1.00  0.00     0.019 A 
HETATM   18  C   UNL     1      39.648 -13.452   2.723  1.00  0.00     0.003 A 
HETATM   19  C   UNL     1      39.153 -12.405   3.491  1.00  0.00     0.027 A 
ENDBRANCH  13  14
ENDBRANCH  12  13
ENDBRANCH   9  12
ENDBRANCH   1   8
BRANCH   4  20
HETATM   20  C   UNL     1      43.202 -13.020   4.153  1.00  0.00     0.257 C 
HETATM   21  N   UNL     1      42.907 -14.149   4.875  1.00  0.00    -0.352 N 
HETATM   22  H   UNL     1      42.475 -14.032   5.791  1.00  0.00     0.163 HD
HETATM   23  O   UNL     1      43.577 -13.038   2.984  1.00  0.00    -0.267 OA
BRANCH  21  24
HETATM   24  C   UNL     1      43.073 -15.517   4.379  1.00  0.00     0.084 C 
HETATM   25  C   UNL     1      43.157 -16.437   5.605  1.00  0.00     0.025 C 
HETATM   26  C   UNL     1      43.436 -17.922   5.384  1.00  0.00     0.002 C 
HETATM   27  C   UNL     1      44.519 -18.239   4.353  1.00  0.00     0.000 C 
HETATM   28  C   UNL     1      43.983 -18.692   2.994  1.00  0.00     0.000 C 
HETATM   29  C   UNL     1      43.267 -17.634   2.152  1.00  0.00     0.000 C 
HETATM   30  C   UNL     1      41.920 -17.182   2.714  1.00  0.00     0.002 C 
HETATM   31  C   UNL     1      41.927 -15.819   3.407  1.00  0.00     0.025 C 
ENDBRANCH  21  24
ENDBRANCH   4  20
BRANCH   6  32
HETATM   32  C   UNL     1      44.285 -10.562   8.310  1.00  0.00     0.159 C 
BRANCH  32  33
HETATM   33  C   UNL     1      43.438 -10.237   9.550  1.00  0.00     0.139 C 
HETATM   34  O   UNL     1      43.708 -11.131  10.648  1.00  0.00    -0.384 OA
HETATM   35  C   UNL     1      43.416 -10.409  11.848  1.00  0.00     0.168 C 
HETATM   36  C   UNL     1      43.850  -8.992  11.564  1.00  0.00     0.029 C 
HETATM   37  C   UNL     1      43.546  -8.815  10.093  1.00  0.00     0.035 C 
ENDBRANCH  32  33
ENDBRANCH   6  32
TORSDOF 8
ENDMDL
MODEL 8
REMARK VINA RESULT:      -8.5      2.911      8.466
REMARK  8 active torsions:
REMARK  status: ('A' for Active; 'I' for Inactive)
REMARK       I    between atoms: N_2  and  C_3 
REMARK    1  A    between atoms: N_2  and  C_29 
REMARK    2  A    between atoms: C_3  and  C_4 
REMARK    3  A    between atoms: C_7  and  C_8 
REMARK       I    between atoms: C_8  and  N_9 
REMARK    4  A    between atoms: N_9  and  C_10 
REMARK    5  A    between atoms: N_20  and  C_21 
REMARK    6  A    between atoms: C_21  and  C_22 
REMARK    7  A    between atoms: C_29  and  C_30 
REMARK    8  A    between atoms: C_30  and  C_31 
ROOT
HETATM    1  C   UNL     1      43.065 -11.954   6.394  1.00  0.00     0.098 C 
HETATM    2  C   UNL     1      43.094 -13.435   6.371  1.00  0.00     0.206 C 
HETATM    3  O   UNL     1      44.084 -14.071   6.733  1.00  0.00    -0.286 OA
HETATM    4  C   UNL     1      41.884 -14.144   5.861  1.00  0.00     0.098 C 
HETATM    5  C   UNL     1      40.756 -13.417   5.756  1.00  0.00     0.111 C 
HETATM    6  N   UNL     1      40.671 -12.052   6.014  1.00  0.00    -0.362 N 
HETATM    7  C   UNL     1      41.860 -11.373   6.267  1.00  0.00     0.111 C 
ENDROOT
BRANCH   1   8
HETATM    8  C   UNL     1      44.224 -11.053   6.591  1.00  0.00     0.258 C 
HETATM    9  N   UNL     1      44.574 -10.649   7.879  1.00  0.00    -0.352 N 
HETATM   10  C   UNL     1      45.818  -9.901   8.015  1.00  0.00     0.152 C 
HETATM   11  O   UNL     1      44.930 -10.797   5.612  1.00  0.00    -0.267 OA
BRANCH   9  12
HETATM   12  C   UNL     1      43.696 -10.606   9.063  1.00  0.00     0.131 C 
BRANCH  12  13
HETATM   13  C   UNL     1      43.152  -9.233   9.459  1.00  0.00     0.079 C 
BRANCH  13  14
HETATM   14  C   UNL     1      42.825  -9.138  10.923  1.00  0.00     0.035 A 
HETATM   15  N   UNL     1      41.890  -9.999  11.396  1.00  0.00    -0.266 NA
HETATM   16  C   UNL     1      41.614  -9.946  12.716  1.00  0.00     0.117 A 
HETATM   17  C   UNL     1      42.224  -9.069  13.596  1.00  0.00     0.019 A 
HETATM   18  C   UNL     1      43.170  -8.185  13.091  1.00  0.00     0.003 A 
HETATM   19  C   UNL     1      43.475  -8.214  11.735  1.00  0.00     0.027 A 
ENDBRANCH  13  14
ENDBRANCH  12  13
ENDBRANCH   9  12
ENDBRANCH   1   8
BRANCH   4  20
HETATM   20  C   UNL     1      41.882 -15.560   5.399  1.00  0.00     0.257 C 
HETATM   21  N   UNL     1      43.106 -16.020   4.980  1.00  0.00    -0.352 N 
HETATM   22  H   UNL     1      43.928 -15.455   5.196  1.00  0.00     0.163 HD
HETATM   23  O   UNL     1      40.849 -16.220   5.335  1.00  0.00    -0.267 OA
BRANCH  21  24
HETATM   24  C   UNL     1      43.328 -17.316   4.336  1.00  0.00     0.084 C 
HETATM   25  C   UNL     1      43.403 -17.064   2.823  1.00  0.00     0.025 C 
HETATM   26  C   UNL     1      43.529 -18.266   1.890  1.00  0.00     0.002 C 
HETATM   27  C   UNL     1      42.633 -19.456   2.230  1.00  0.00     0.000 C 
HETATM   28  C   UNL     1      43.354 -20.609   2.930  1.00  0.00     0.000 C 
HETATM   29  C   UNL     1      43.828 -20.353   4.362  1.00  0.00     0.000 C 
HETATM   30  C   UNL     1      44.975 -19.350   4.480  1.00  0.00     0.002 C 
HETATM   31  C   UNL     1      44.574 -17.954   4.959  1.00  0.00     0.025 C 
ENDBRANCH  21  24
ENDBRANCH   4  20
BRANCH   6  32
HETATM   32  C   UNL     1      39.370 -11.344   6.046  1.00  0.00     0.159 C 
BRANCH  32  33
HETATM   33  C   UNL     1      39.146 -10.362   4.886  1.00  0.00     0.139 C 
HETATM   34  O   UNL     1      39.845  -9.117   5.080  1.00  0.00    -0.384 OA
HETATM   35  C   UNL     1      40.113  -8.588   3.778  1.00  0.00     0.168 C 
HETATM   36  C   UNL     1      40.411  -9.795   2.922  1.00  0.00     0.029 C 
HETATM   37  C   UNL     1      39.506 -10.866   3.491  1.00  0.00     0.035 C 
ENDBRANCH  32  33
ENDBRANCH   6  32
TORSDOF 8
ENDMDL
MODEL 9
REMARK VINA RESULT:      -8.5      2.353      6.497
REMARK  8 active torsions:
REMARK  status: ('A' for Active; 'I' for Inactive)
REMARK       I    between atoms: N_2  and  C_3 
REMARK    1  A    between atoms: N_2  and  C_29 
REMARK    2  A    between atoms: C_3  and  C_4 
REMARK    3  A    between atoms: C_7  and  C_8 
REMARK       I    between atoms: C_8  and  N_9 
REMARK    4  A    between atoms: N_9  and  C_10 
REMARK    5  A    between atoms: N_20  and  C_21 
REMARK    6  A    between atoms: C_21  and  C_22 
REMARK    7  A    between atoms: C_29  and  C_30 
REMARK    8  A    between atoms: C_30  and  C_31 
ROOT
HETATM    1  C   UNL     1      44.141 -12.019   6.354  1.00  0.00     0.098 C 
HETATM    2  C   UNL     1      43.666 -12.128   4.955  1.00  0.00     0.206 C 
HETATM    3  O   UNL     1      44.094 -11.395   4.064  1.00  0.00    -0.286 OA
HETATM    4  C   UNL     1      42.616 -13.146   4.657  1.00  0.00     0.098 C 
HETATM    5  C   UNL     1      42.406 -14.090   5.594  1.00  0.00     0.111 C 
HETATM    6  N   UNL     1      43.039 -14.126   6.832  1.00  0.00    -0.362 N 
HETATM    7  C   UNL     1      43.842 -13.041   7.173  1.00  0.00     0.111 C 
ENDROOT
BRANCH   1   8
HETATM    8  C   UNL     1      44.954 -10.921   6.925  1.00  0.00     0.258 C 
HETATM    9  N   UNL     1      44.357  -9.983   7.767  1.00  0.00    -0.352 N 
HETATM   10  C   UNL     1      45.246  -9.032   8.423  1.00  0.00     0.152 C 
HETATM   11  O   UNL     1      46.175 -10.951   6.744  1.00  0.00    -0.267 OA
BRANCH   9  12
HETATM   12  C   UNL     1      42.926  -9.633   7.828  1.00  0.00     0.131 C 
BRANCH  12  13
HETATM   13  C   UNL     1      42.309  -9.064   6.551  1.00  0.00     0.079 C 
BRANCH  13  14
HETATM   14  C   UNL     1      40.912  -9.566   6.307  1.00  0.00     0.035 A 
HETATM   15  N   UNL     1      40.721 -10.905   6.401  1.00  0.00    -0.266 NA
HETATM   16  C   UNL     1      39.465 -11.363   6.218  1.00  0.00     0.117 A 
HETATM   17  C   UNL     1      38.380 -10.549   5.940  1.00  0.00     0.019 A 
HETATM   18  C   UNL     1      38.598  -9.180   5.835  1.00  0.00     0.003 A 
HETATM   19  C   UNL     1      39.881  -8.678   6.016  1.00  0.00     0.027 A 
ENDBRANCH  13  14
ENDBRANCH  12  13
ENDBRANCH   9  12
ENDBRANCH   1   8
BRANCH   4  20
HETATM   20  C   UNL     1      41.757 -13.124   3.442  1.00  0.00     0.257 C 
HETATM   21  N   UNL     1      41.265 -11.884   3.119  1.00  0.00    -0.352 N 
HETATM   22  H   UNL     1      41.667 -11.073   3.590  1.00  0.00     0.163 HD
HETATM   23  O   UNL     1      41.464 -14.151   2.836  1.00  0.00    -0.267 OA
BRANCH  21  24
HETATM   24  C   UNL     1      40.275 -11.632   2.070  1.00  0.00     0.084 C 
HETATM   25  C   UNL     1      39.414 -10.447   2.534  1.00  0.00     0.025 C 
HETATM   26  C   UNL     1      38.226 -10.029   1.671  1.00  0.00     0.002 C 
HETATM   27  C   UNL     1      37.377 -11.176   1.124  1.00  0.00     0.000 C 
HETATM   28  C   UNL     1      37.635 -11.506  -0.346  1.00  0.00     0.000 C 
HETATM   29  C   UNL     1      38.988 -12.138  -0.680  1.00  0.00     0.000 C 
HETATM   30  C   UNL     1      40.183 -11.200  -0.514  1.00  0.00     0.002 C 
HETATM   31  C   UNL     1      41.019 -11.426   0.747  1.00  0.00     0.025 C 
ENDBRANCH  21  24
ENDBRANCH   4  20
BRANCH   6  32
HETATM   32  C   UNL     1      42.893 -15.281   7.749  1.00  0.00     0.159 C 
BRANCH  32  33
HETATM   33  C   UNL     1      43.619 -16.557   7.293  1.00  0.00     0.139 C 
HETATM   34  O   UNL     1      42.731 -17.490   6.647  1.00  0.00    -0.384 OA
HETATM   35  C   UNL     1      43.528 -18.257   5.740  1.00  0.00     0.168 C 
HETATM   36  C   UNL     1      44.543 -17.282   5.196  1.00  0.00     0.029 C 
HETATM   37  C   UNL     1      44.816 -16.362   6.366  1.00  0.00     0.035 C 
ENDBRANCH  32  33
ENDBRANCH   6  32
TORSDOF 8
ENDMDL
MODEL 10
REMARK VINA RESULT:      -8.4      3.281      8.757
REMARK  8 active torsions:
REMARK  status: ('A' for Active; 'I' for Inactive)
REMARK       I    between atoms: N_2  and  C_3 
REMARK    1  A    between atoms: N_2  and  C_29 
REMARK    2  A    between atoms: C_3  and  C_4 
REMARK    3  A    between atoms: C_7  and  C_8 
REMARK       I    between atoms: C_8  and  N_9 
REMARK    4  A    between atoms: N_9  and  C_10 
REMARK    5  A    between atoms: N_20  and  C_21 
REMARK    6  A    between atoms: C_21  and  C_22 
REMARK    7  A    between atoms: C_29  and  C_30 
REMARK    8  A    between atoms: C_30  and  C_31 
ROOT
HETATM    1  C   UNL     1      43.704 -10.348   7.358  1.00  0.00     0.098 C 
HETATM    2  C   UNL     1      43.659 -11.720   6.801  1.00  0.00     0.206 C 
HETATM    3  O   UNL     1      44.308 -12.642   7.292  1.00  0.00    -0.286 OA
HETATM    4  C   UNL     1      42.812 -11.950   5.593  1.00  0.00     0.098 C 
HETATM    5  C   UNL     1      41.921 -10.989   5.287  1.00  0.00     0.111 C 
HETATM    6  N   UNL     1      41.798  -9.782   5.969  1.00  0.00    -0.362 N 
HETATM    7  C   UNL     1      42.748  -9.498   6.946  1.00  0.00     0.111 C 
ENDROOT
BRANCH   1   8
HETATM    8  C   UNL     1      44.668  -9.835   8.359  1.00  0.00     0.258 C 
HETATM    9  N   UNL     1      44.431 -10.043   9.717  1.00  0.00    -0.352 N 
HETATM   10  C   UNL     1      45.498  -9.660  10.634  1.00  0.00     0.152 C 
HETATM   11  O   UNL     1      45.727  -9.354   7.947  1.00  0.00    -0.267 OA
BRANCH   9  12
HETATM   12  C   UNL     1      43.130 -10.302  10.360  1.00  0.00     0.131 C 
BRANCH  12  13
HETATM   13  C   UNL     1      42.245  -9.084  10.622  1.00  0.00     0.079 C 
BRANCH  13  14
HETATM   14  C   UNL     1      42.125  -8.757  12.085  1.00  0.00     0.035 A 
HETATM   15  N   UNL     1      41.120  -9.362  12.765  1.00  0.00    -0.266 NA
HETATM   16  C   UNL     1      41.025  -9.103  14.086  1.00  0.00     0.117 A 
HETATM   17  C   UNL     1      41.886  -8.261  14.770  1.00  0.00     0.019 A 
HETATM   18  C   UNL     1      42.902  -7.640  14.055  1.00  0.00     0.003 A 
HETATM   19  C   UNL     1      43.025  -7.886  12.692  1.00  0.00     0.027 A 
ENDBRANCH  13  14
ENDBRANCH  12  13
ENDBRANCH   9  12
ENDBRANCH   1   8
BRANCH   4  20
HETATM   20  C   UNL     1      42.957 -13.122   4.687  1.00  0.00     0.257 C 
HETATM   21  N   UNL     1      42.711 -14.333   5.285  1.00  0.00    -0.352 N 
HETATM   22  H   UNL     1      42.271 -14.331   6.206  1.00  0.00     0.163 HD
HETATM   23  O   UNL     1      43.337 -13.002   3.526  1.00  0.00    -0.267 OA
BRANCH  21  24
HETATM   24  C   UNL     1      42.942 -15.633   4.652  1.00  0.00     0.084 C 
HETATM   25  C   UNL     1      43.023 -16.677   5.775  1.00  0.00     0.025 C 
HETATM   26  C   UNL     1      43.362 -18.120   5.405  1.00  0.00     0.002 C 
HETATM   27  C   UNL     1      44.486 -18.287   4.383  1.00  0.00     0.000 C 
HETATM   28  C   UNL     1      44.007 -18.608   2.966  1.00  0.00     0.000 C 
HETATM   29  C   UNL     1      43.278 -17.489   2.219  1.00  0.00     0.000 C 
HETATM   30  C   UNL     1      41.899 -17.145   2.781  1.00  0.00     0.002 C 
HETATM   31  C   UNL     1      41.836 -15.865   3.616  1.00  0.00     0.025 C 
ENDBRANCH  21  24
ENDBRANCH   4  20
BRANCH   6  32
HETATM   32  C   UNL     1      40.687  -8.840   5.693  1.00  0.00     0.159 C 
BRANCH  32  33
HETATM   33  C   UNL     1      39.952  -9.088   4.366  1.00  0.00     0.139 C 
HETATM   34  O   UNL     1      38.525  -8.940   4.495  1.00  0.00    -0.384 OA
HETATM   35  C   UNL     1      38.034  -8.550   3.210  1.00  0.00     0.168 C 
HETATM   36  C   UNL     1      39.100  -7.644   2.645  1.00  0.00     0.029 C 
HETATM   37  C   UNL     1      40.387  -8.232   3.179  1.00  0.00     0.035 C 
ENDBRANCH  32  33
ENDBRANCH   6  32
TORSDOF 8
ENDMDL
