MODEL 1
REMARK VINA RESULT:      -8.6      0.000      0.000
REMARK  5 active torsions:
REMARK  status: ('A' for Active; 'I' for Inactive)
REMARK    1  A    between atoms: C_3  and  O_4 
REMARK    2  A    between atoms: O_4  and  C_5 
REMARK    3  A    between atoms: C_5  and  C_6 
REMARK       I    between atoms: C_6  and  N_7 
REMARK    4  A    between atoms: N_7  and  N_8 
REMARK    5  A    between atoms: C_9  and  C_10 
ROOT
HETATM    1  C   UNL     1      40.568 -14.467   1.009  1.00  0.00     0.261 C 
HETATM    2  N   UNL     1      41.564 -14.397   1.984  1.00  0.00    -0.246 N 
HETATM    3  O   UNL     1      39.856 -15.443   0.794  1.00  0.00    -0.269 OA
HETATM    4  H   UNL     1      42.100 -13.547   2.115  1.00  0.00     0.192 HD
ENDROOT
BRANCH   2   5
HETATM    5  N   UNL     1      41.812 -15.474   2.785  1.00  0.00    -0.184 NA
HETATM    6  C   UNL     1      43.057 -15.700   3.054  1.00  0.00     0.153 C 
BRANCH   6   7
HETATM    7  C   UNL     1      43.445 -16.816   3.896  1.00  0.00     0.018 A 
HETATM    8  C   UNL     1      43.521 -18.189   3.488  1.00  0.00     0.004 A 
HETATM    9  C   UNL     1      43.939 -18.932   4.591  1.00  0.00     0.043 A 
HETATM   10  C   UNL     1      43.281 -18.873   2.276  1.00  0.00     0.014 A 
HETATM   11  C   UNL     1      44.128 -20.318   4.548  1.00  0.00     0.030 A 
HETATM   12  N   UNL     1      44.105 -18.049   5.632  1.00  0.00    -0.358 N 
HETATM   13  C   UNL     1      43.884 -20.969   3.336  1.00  0.00     0.002 A 
HETATM   14  C   UNL     1      43.466 -20.259   2.214  1.00  0.00     0.001 A 
HETATM   15  H   UNL     1      44.405 -18.315   6.561  1.00  0.00     0.166 HD
HETATM   16  C   UNL     1      43.809 -16.770   5.235  1.00  0.00     0.018 A 
HETATM   17  C   UNL     1      43.909 -15.629   6.186  1.00  0.00     0.069 C 
ENDBRANCH   6   7
ENDBRANCH   2   5
BRANCH   1  18
HETATM   18  C   UNL     1      40.462 -13.151   0.233  1.00  0.00     0.280 C 
BRANCH  18  19
HETATM   19  O   UNL     1      40.442 -13.342  -1.179  1.00  0.00    -0.341 OA
BRANCH  19  20
HETATM   20  C   UNL     1      39.289 -12.828  -1.717  1.00  0.00     0.081 A 
HETATM   21  C   UNL     1      39.054 -11.443  -1.693  1.00  0.00    -0.027 A 
HETATM   22  C   UNL     1      40.035 -10.480  -1.092  1.00  0.00     0.051 C 
HETATM   23  C   UNL     1      37.846 -10.959  -2.215  1.00  0.00     0.028 A 
HETATM   24  C   UNL     1      36.925 -11.836  -2.787  1.00  0.00     0.012 A 
HETATM   25  C   UNL     1      37.192 -13.204  -2.856  1.00  0.00     0.028 A 
HETATM   26 BR   UNL     1      35.302 -11.163  -3.486  1.00  0.00    -0.051 Br
HETATM   27  C   UNL     1      38.388 -13.713  -2.334  1.00  0.00    -0.027 A 
HETATM   28  C   UNL     1      38.675 -15.186  -2.408  1.00  0.00     0.051 C 
ENDBRANCH  19  20
ENDBRANCH  18  19
ENDBRANCH   1  18
TORSDOF 5
ENDMDL
MODEL 2
REMARK VINA RESULT:      -8.5      1.696      2.512
REMARK  5 active torsions:
REMARK  status: ('A' for Active; 'I' for Inactive)
REMARK    1  A    between atoms: C_3  and  O_4 
REMARK    2  A    between atoms: O_4  and  C_5 
REMARK    3  A    between atoms: C_5  and  C_6 
REMARK       I    between atoms: C_6  and  N_7 
REMARK    4  A    between atoms: N_7  and  N_8 
REMARK    5  A    between atoms: C_9  and  C_10 
ROOT
HETATM    1  C   UNL     1      40.338 -14.583   1.277  1.00  0.00     0.261 C 
HETATM    2  N   UNL     1      41.218 -14.332   2.331  1.00  0.00    -0.246 N 
HETATM    3  O   UNL     1      39.830 -15.671   1.026  1.00  0.00    -0.269 OA
HETATM    4  H   UNL     1      41.584 -13.400   2.489  1.00  0.00     0.192 HD
ENDROOT
BRANCH   2   5
HETATM    5  N   UNL     1      41.580 -15.343   3.174  1.00  0.00    -0.184 NA
HETATM    6  C   UNL     1      42.801 -15.756   3.066  1.00  0.00     0.153 C 
BRANCH   6   7
HETATM    7  C   UNL     1      43.302 -16.825   3.909  1.00  0.00     0.018 A 
HETATM    8  C   UNL     1      43.432 -18.203   3.530  1.00  0.00     0.004 A 
HETATM    9  C   UNL     1      43.957 -18.891   4.623  1.00  0.00     0.043 A 
HETATM   10  C   UNL     1      43.160 -18.932   2.351  1.00  0.00     0.014 A 
HETATM   11  C   UNL     1      44.222 -20.265   4.601  1.00  0.00     0.030 A 
HETATM   12  N   UNL     1      44.134 -17.972   5.630  1.00  0.00    -0.358 N 
HETATM   13  C   UNL     1      43.944 -20.961   3.422  1.00  0.00     0.002 A 
HETATM   14  C   UNL     1      43.419 -20.307   2.312  1.00  0.00     0.001 A 
HETATM   15  H   UNL     1      44.503 -18.195   6.545  1.00  0.00     0.166 HD
HETATM   16  C   UNL     1      43.743 -16.723   5.222  1.00  0.00     0.018 A 
HETATM   17  C   UNL     1      43.833 -15.552   6.137  1.00  0.00     0.069 C 
ENDBRANCH   6   7
ENDBRANCH   2   5
BRANCH   1  18
HETATM   18  C   UNL     1      40.072 -13.312   0.467  1.00  0.00     0.280 C 
BRANCH  18  19
HETATM   19  O   UNL     1      41.256 -12.767  -0.111  1.00  0.00    -0.341 OA
BRANCH  19  20
HETATM   20  C   UNL     1      40.939 -11.877  -1.106  1.00  0.00     0.081 A 
HETATM   21  C   UNL     1      40.475 -12.340  -2.348  1.00  0.00    -0.027 A 
HETATM   22  C   UNL     1      40.303 -13.802  -2.638  1.00  0.00     0.051 C 
HETATM   23  C   UNL     1      40.201 -11.402  -3.354  1.00  0.00     0.028 A 
HETATM   24  C   UNL     1      40.344 -10.038  -3.101  1.00  0.00     0.012 A 
HETATM   25  C   UNL     1      40.754  -9.585  -1.848  1.00  0.00     0.028 A 
HETATM   26 BR   UNL     1      39.970  -8.789  -4.471  1.00  0.00    -0.051 Br
HETATM   27  C   UNL     1      41.041 -10.502  -0.829  1.00  0.00    -0.027 A 
HETATM   28  C   UNL     1      41.482 -10.014   0.522  1.00  0.00     0.051 C 
ENDBRANCH  19  20
ENDBRANCH  18  19
ENDBRANCH   1  18
TORSDOF 5
ENDMDL
MODEL 3
REMARK VINA RESULT:      -8.5      3.611      8.843
REMARK  5 active torsions:
REMARK  status: ('A' for Active; 'I' for Inactive)
REMARK    1  A    between atoms: C_3  and  O_4 
REMARK    2  A    between atoms: O_4  and  C_5 
REMARK    3  A    between atoms: C_5  and  C_6 
REMARK       I    between atoms: C_6  and  N_7 
REMARK    4  A    between atoms: N_7  and  N_8 
REMARK    5  A    between atoms: C_9  and  C_10 
ROOT
HETATM    1  C   UNL     1      40.962 -14.704   3.950  1.00  0.00     0.261 C 
HETATM    2  N   UNL     1      40.857 -13.490   3.271  1.00  0.00    -0.246 N 
HETATM    3  O   UNL     1      40.193 -15.653   3.824  1.00  0.00    -0.269 OA
HETATM    4  H   UNL     1      41.543 -12.757   3.413  1.00  0.00     0.192 HD
ENDROOT
BRANCH   2   5
HETATM    5  N   UNL     1      39.835 -13.286   2.390  1.00  0.00    -0.184 NA
HETATM    6  C   UNL     1      40.162 -12.733   1.267  1.00  0.00     0.153 C 
BRANCH   6   7
HETATM    7  C   UNL     1      39.162 -12.466   0.250  1.00  0.00     0.018 A 
HETATM    8  C   UNL     1      38.918 -13.263  -0.918  1.00  0.00     0.004 A 
HETATM    9  C   UNL     1      37.874 -12.665  -1.622  1.00  0.00     0.043 A 
HETATM   10  C   UNL     1      39.483 -14.447  -1.441  1.00  0.00     0.014 A 
HETATM   11  C   UNL     1      37.367 -13.186  -2.819  1.00  0.00     0.030 A 
HETATM   12  N   UNL     1      37.500 -11.546  -0.917  1.00  0.00    -0.358 N 
HETATM   13  C   UNL     1      37.944 -14.359  -3.313  1.00  0.00     0.002 A 
HETATM   14  C   UNL     1      38.988 -14.982  -2.636  1.00  0.00     0.001 A 
HETATM   15  H   UNL     1      36.761 -10.917  -1.199  1.00  0.00     0.166 HD
HETATM   16  C   UNL     1      38.266 -11.406   0.212  1.00  0.00     0.018 A 
HETATM   17  C   UNL     1      38.058 -10.264   1.144  1.00  0.00     0.069 C 
ENDBRANCH   6   7
ENDBRANCH   2   5
BRANCH   1  18
HETATM   18  C   UNL     1      42.178 -14.713   4.880  1.00  0.00     0.280 C 
BRANCH  18  19
HETATM   19  O   UNL     1      43.396 -14.990   4.193  1.00  0.00    -0.341 OA
BRANCH  19  20
HETATM   20  C   UNL     1      43.543 -16.341   4.000  1.00  0.00     0.081 A 
HETATM   21  C   UNL     1      43.358 -16.896   2.723  1.00  0.00    -0.027 A 
HETATM   22  C   UNL     1      43.002 -16.054   1.533  1.00  0.00     0.051 C 
HETATM   23  C   UNL     1      43.475 -18.286   2.572  1.00  0.00     0.028 A 
HETATM   24  C   UNL     1      43.815 -19.085   3.664  1.00  0.00     0.012 A 
HETATM   25  C   UNL     1      44.050 -18.518   4.916  1.00  0.00     0.028 A 
HETATM   26 BR   UNL     1      43.967 -20.957   3.440  1.00  0.00    -0.051 Br
HETATM   27  C   UNL     1      43.931 -17.134   5.094  1.00  0.00    -0.027 A 
HETATM   28  C   UNL     1      44.184 -16.523   6.443  1.00  0.00     0.051 C 
ENDBRANCH  19  20
ENDBRANCH  18  19
ENDBRANCH   1  18
TORSDOF 5
ENDMDL
MODEL 4
REMARK VINA RESULT:      -8.5      0.164      1.708
REMARK  5 active torsions:
REMARK  status: ('A' for Active; 'I' for Inactive)
REMARK    1  A    between atoms: C_3  and  O_4 
REMARK    2  A    between atoms: O_4  and  C_5 
REMARK    3  A    between atoms: C_5  and  C_6 
REMARK       I    between atoms: C_6  and  N_7 
REMARK    4  A    between atoms: N_7  and  N_8 
REMARK    5  A    between atoms: C_9  and  C_10 
ROOT
HETATM    1  C   UNL     1      40.714 -14.376   0.984  1.00  0.00     0.261 C 
HETATM    2  N   UNL     1      41.713 -14.366   1.959  1.00  0.00    -0.246 N 
HETATM    3  O   UNL     1      39.980 -15.327   0.734  1.00  0.00    -0.269 OA
HETATM    4  H   UNL     1      42.268 -13.533   2.121  1.00  0.00     0.192 HD
ENDROOT
BRANCH   2   5
HETATM    5  N   UNL     1      41.937 -15.477   2.719  1.00  0.00    -0.184 NA
HETATM    6  C   UNL     1      43.153 -15.642   3.128  1.00  0.00     0.153 C 
BRANCH   6   7
HETATM    7  C   UNL     1      43.514 -16.787   3.944  1.00  0.00     0.018 A 
HETATM    8  C   UNL     1      43.550 -18.152   3.506  1.00  0.00     0.004 A 
HETATM    9  C   UNL     1      43.951 -18.930   4.591  1.00  0.00     0.043 A 
HETATM   10  C   UNL     1      43.285 -18.804   2.280  1.00  0.00     0.014 A 
HETATM   11  C   UNL     1      44.102 -20.320   4.517  1.00  0.00     0.030 A 
HETATM   12  N   UNL     1      44.147 -18.076   5.649  1.00  0.00    -0.358 N 
HETATM   13  C   UNL     1      43.834 -20.938   3.292  1.00  0.00     0.002 A 
HETATM   14  C   UNL     1      43.431 -20.193   2.188  1.00  0.00     0.001 A 
HETATM   15  H   UNL     1      44.443 -18.369   6.570  1.00  0.00     0.166 HD
HETATM   16  C   UNL     1      43.885 -16.780   5.282  1.00  0.00     0.018 A 
HETATM   17  C   UNL     1      44.020 -15.663   6.256  1.00  0.00     0.069 C 
ENDBRANCH   6   7
ENDBRANCH   2   5
BRANCH   1  18
HETATM   18  C   UNL     1      40.638 -13.030   0.258  1.00  0.00     0.280 C 
BRANCH  18  19
HETATM   19  O   UNL     1      40.601 -13.169  -1.160  1.00  0.00    -0.341 OA
BRANCH  19  20
HETATM   20  C   UNL     1      39.414 -12.694  -1.659  1.00  0.00     0.081 A 
HETATM   21  C   UNL     1      38.487 -13.577  -2.239  1.00  0.00    -0.027 A 
HETATM   22  C   UNL     1      38.746 -15.052  -2.335  1.00  0.00     0.051 C 
HETATM   23  C   UNL     1      37.304 -13.049  -2.775  1.00  0.00     0.028 A 
HETATM   24  C   UNL     1      37.040 -11.683  -2.687  1.00  0.00     0.012 A 
HETATM   25  C   UNL     1      37.941 -10.822  -2.062  1.00  0.00     0.028 A 
HETATM   26 BR   UNL     1      35.438 -10.991  -3.417  1.00  0.00    -0.051 Br
HETATM   27  C   UNL     1      39.134 -11.323  -1.525  1.00  0.00    -0.027 A 
HETATM   28  C   UNL     1      40.105 -10.395  -0.850  1.00  0.00     0.051 C 
ENDBRANCH  19  20
ENDBRANCH  18  19
ENDBRANCH   1  18
TORSDOF 5
ENDMDL
MODEL 5
REMARK VINA RESULT:      -8.4      7.100      9.883
REMARK  5 active torsions:
REMARK  status: ('A' for Active; 'I' for Inactive)
REMARK    1  A    between atoms: C_3  and  O_4 
REMARK    2  A    between atoms: O_4  and  C_5 
REMARK    3  A    between atoms: C_5  and  C_6 
REMARK       I    between atoms: C_6  and  N_7 
REMARK    4  A    between atoms: N_7  and  N_8 
REMARK    5  A    between atoms: C_9  and  C_10 
ROOT
HETATM    1  C   UNL     1      43.959 -10.981   7.034  1.00  0.00     0.261 C 
HETATM    2  N   UNL     1      43.242 -12.156   7.263  1.00  0.00    -0.246 N 
HETATM    3  O   UNL     1      45.010 -10.906   6.404  1.00  0.00    -0.269 OA
HETATM    4  H   UNL     1      42.370 -12.136   7.778  1.00  0.00     0.192 HD
ENDROOT
BRANCH   2   5
HETATM    5  N   UNL     1      43.704 -13.344   6.775  1.00  0.00    -0.184 NA
HETATM    6  C   UNL     1      42.810 -14.128   6.264  1.00  0.00     0.153 C 
BRANCH   6   7
HETATM    7  C   UNL     1      43.180 -15.418   5.713  1.00  0.00     0.018 A 
HETATM    8  C   UNL     1      43.131 -15.784   4.327  1.00  0.00     0.004 A 
HETATM    9  C   UNL     1      43.575 -17.102   4.226  1.00  0.00     0.043 A 
HETATM   10  C   UNL     1      42.756 -15.115   3.141  1.00  0.00     0.014 A 
HETATM   11  C   UNL     1      43.664 -17.784   3.007  1.00  0.00     0.030 A 
HETATM   12  N   UNL     1      43.878 -17.524   5.498  1.00  0.00    -0.358 N 
HETATM   13  C   UNL     1      43.288 -17.096   1.850  1.00  0.00     0.002 A 
HETATM   14  C   UNL     1      42.839 -15.781   1.913  1.00  0.00     0.001 A 
HETATM   15  H   UNL     1      44.225 -18.447   5.724  1.00  0.00     0.166 HD
HETATM   16  C   UNL     1      43.643 -16.526   6.410  1.00  0.00     0.018 A 
HETATM   17  C   UNL     1      43.890 -16.739   7.862  1.00  0.00     0.069 C 
ENDBRANCH   6   7
ENDBRANCH   2   5
BRANCH   1  18
HETATM   18  C   UNL     1      43.259  -9.775   7.666  1.00  0.00     0.280 C 
BRANCH  18  19
HETATM   19  O   UNL     1      44.175  -8.823   8.202  1.00  0.00    -0.341 OA
BRANCH  19  20
HETATM   20  C   UNL     1      43.792  -8.445   9.464  1.00  0.00     0.081 A 
HETATM   21  C   UNL     1      44.275  -9.138  10.587  1.00  0.00    -0.027 A 
HETATM   22  C   UNL     1      45.217 -10.299  10.460  1.00  0.00     0.051 C 
HETATM   23  C   UNL     1      43.829  -8.749  11.858  1.00  0.00     0.028 A 
HETATM   24  C   UNL     1      42.961  -7.666  11.998  1.00  0.00     0.012 A 
HETATM   25  C   UNL     1      42.529  -6.950  10.881  1.00  0.00     0.028 A 
HETATM   26 BR   UNL     1      42.370  -7.158  13.721  1.00  0.00    -0.051 Br
HETATM   27  C   UNL     1      42.955  -7.323   9.600  1.00  0.00    -0.027 A 
HETATM   28  C   UNL     1      42.490  -6.552   8.397  1.00  0.00     0.051 C 
ENDBRANCH  19  20
ENDBRANCH  18  19
ENDBRANCH   1  18
TORSDOF 5
ENDMDL
MODEL 6
REMARK VINA RESULT:      -8.2      6.534      9.464
REMARK  5 active torsions:
REMARK  status: ('A' for Active; 'I' for Inactive)
REMARK    1  A    between atoms: C_3  and  O_4 
REMARK    2  A    between atoms: O_4  and  C_5 
REMARK    3  A    between atoms: C_5  and  C_6 
REMARK       I    between atoms: C_6  and  N_7 
REMARK    4  A    between atoms: N_7  and  N_8 
REMARK    5  A    between atoms: C_9  and  C_10 
ROOT
HETATM    1  C   UNL     1      43.799 -12.039   6.832  1.00  0.00     0.261 C 
HETATM    2  N   UNL     1      43.340 -13.357   6.865  1.00  0.00    -0.246 N 
HETATM    3  O   UNL     1      44.206 -11.458   5.830  1.00  0.00    -0.269 OA
HETATM    4  H   UNL     1      43.001 -13.764   7.729  1.00  0.00     0.192 HD
ENDROOT
BRANCH   2   5
HETATM    5  N   UNL     1      43.328 -14.104   5.723  1.00  0.00    -0.184 NA
HETATM    6  C   UNL     1      42.273 -14.832   5.540  1.00  0.00     0.153 C 
BRANCH   6   7
HETATM    7  C   UNL     1      42.144 -15.670   4.362  1.00  0.00     0.018 A 
HETATM    8  C   UNL     1      42.910 -16.851   4.084  1.00  0.00     0.004 A 
HETATM    9  C   UNL     1      42.470 -17.357   2.861  1.00  0.00     0.043 A 
HETATM   10  C   UNL     1      43.937 -17.545   4.762  1.00  0.00     0.014 A 
HETATM   11  C   UNL     1      43.000 -18.517   2.283  1.00  0.00     0.030 A 
HETATM   12  N   UNL     1      41.481 -16.517   2.410  1.00  0.00    -0.358 N 
HETATM   13  C   UNL     1      44.013 -19.183   2.977  1.00  0.00     0.002 A 
HETATM   14  C   UNL     1      44.477 -18.706   4.199  1.00  0.00     0.001 A 
HETATM   15  H   UNL     1      40.980 -16.644   1.540  1.00  0.00     0.166 HD
HETATM   16  C   UNL     1      41.271 -15.492   3.297  1.00  0.00     0.018 A 
HETATM   17  C   UNL     1      40.249 -14.443   3.032  1.00  0.00     0.069 C 
ENDBRANCH   6   7
ENDBRANCH   2   5
BRANCH   1  18
HETATM   18  C   UNL     1      43.722 -11.393   8.217  1.00  0.00     0.280 C 
BRANCH  18  19
HETATM   19  O   UNL     1      43.613  -9.973   8.159  1.00  0.00    -0.341 OA
BRANCH  19  20
HETATM   20  C   UNL     1      43.260  -9.467   9.385  1.00  0.00     0.081 A 
HETATM   21  C   UNL     1      44.232  -9.288  10.383  1.00  0.00    -0.027 A 
HETATM   22  C   UNL     1      45.676  -9.632  10.158  1.00  0.00     0.051 C 
HETATM   23  C   UNL     1      43.826  -8.808  11.637  1.00  0.00     0.028 A 
HETATM   24  C   UNL     1      42.491  -8.474  11.863  1.00  0.00     0.012 A 
HETATM   25  C   UNL     1      41.543  -8.603  10.849  1.00  0.00     0.028 A 
HETATM   26 BR   UNL     1      41.964  -7.829  13.561  1.00  0.00    -0.051 Br
HETATM   27  C   UNL     1      41.921  -9.088   9.590  1.00  0.00    -0.027 A 
HETATM   28  C   UNL     1      40.900  -9.227   8.497  1.00  0.00     0.051 C 
ENDBRANCH  19  20
ENDBRANCH  18  19
ENDBRANCH   1  18
TORSDOF 5
ENDMDL
MODEL 7
REMARK VINA RESULT:      -8.2      6.598      9.545
REMARK  5 active torsions:
REMARK  status: ('A' for Active; 'I' for Inactive)
REMARK    1  A    between atoms: C_3  and  O_4 
REMARK    2  A    between atoms: O_4  and  C_5 
REMARK    3  A    between atoms: C_5  and  C_6 
REMARK       I    between atoms: C_6  and  N_7 
REMARK    4  A    between atoms: N_7  and  N_8 
REMARK    5  A    between atoms: C_9  and  C_10 
ROOT
HETATM    1  C   UNL     1      43.638 -11.735   6.702  1.00  0.00     0.261 C 
HETATM    2  N   UNL     1      42.910 -12.925   6.661  1.00  0.00    -0.246 N 
HETATM    3  O   UNL     1      44.171 -11.200   5.735  1.00  0.00    -0.269 OA
HETATM    4  H   UNL     1      42.481 -13.298   7.500  1.00  0.00     0.192 HD
ENDROOT
BRANCH   2   5
HETATM    5  N   UNL     1      42.753 -13.589   5.479  1.00  0.00    -0.184 NA
HETATM    6  C   UNL     1      42.415 -14.835   5.574  1.00  0.00     0.153 C 
BRANCH   6   7
HETATM    7  C   UNL     1      42.219 -15.645   4.387  1.00  0.00     0.018 A 
HETATM    8  C   UNL     1      42.944 -16.838   4.055  1.00  0.00     0.004 A 
HETATM    9  C   UNL     1      42.443 -17.308   2.841  1.00  0.00     0.043 A 
HETATM   10  C   UNL     1      43.978 -17.570   4.678  1.00  0.00     0.014 A 
HETATM   11  C   UNL     1      42.920 -18.468   2.220  1.00  0.00     0.030 A 
HETATM   12  N   UNL     1      41.457 -16.436   2.446  1.00  0.00    -0.358 N 
HETATM   13  C   UNL     1      43.943 -19.173   2.859  1.00  0.00     0.002 A 
HETATM   14  C   UNL     1      44.467 -18.733   4.070  1.00  0.00     0.001 A 
HETATM   15  H   UNL     1      40.919 -16.532   1.596  1.00  0.00     0.166 HD
HETATM   16  C   UNL     1      41.309 -15.425   3.361  1.00  0.00     0.018 A 
HETATM   17  C   UNL     1      40.303 -14.346   3.158  1.00  0.00     0.069 C 
ENDBRANCH   6   7
ENDBRANCH   2   5
BRANCH   1  18
HETATM   18  C   UNL     1      43.682 -11.165   8.122  1.00  0.00     0.280 C 
BRANCH  18  19
HETATM   19  O   UNL     1      43.499  -9.752   8.155  1.00  0.00    -0.341 OA
BRANCH  19  20
HETATM   20  C   UNL     1      43.173  -9.339   9.423  1.00  0.00     0.081 A 
HETATM   21  C   UNL     1      41.836  -9.062   9.755  1.00  0.00    -0.027 A 
HETATM   22  C   UNL     1      40.723  -9.207   8.758  1.00  0.00     0.051 C 
HETATM   23  C   UNL     1      41.547  -8.603  11.047  1.00  0.00     0.028 A 
HETATM   24  C   UNL     1      42.566  -8.472  11.991  1.00  0.00     0.012 A 
HETATM   25  C   UNL     1      43.882  -8.801  11.669  1.00  0.00     0.028 A 
HETATM   26 BR   UNL     1      42.155  -7.850  13.729  1.00  0.00    -0.051 Br
HETATM   27  C   UNL     1      44.198  -9.254  10.382  1.00  0.00    -0.027 A 
HETATM   28  C   UNL     1      45.616  -9.609  10.035  1.00  0.00     0.051 C 
ENDBRANCH  19  20
ENDBRANCH  18  19
ENDBRANCH   1  18
TORSDOF 5
ENDMDL
MODEL 8
REMARK VINA RESULT:      -8.0      6.092      9.562
REMARK  5 active torsions:
REMARK  status: ('A' for Active; 'I' for Inactive)
REMARK    1  A    between atoms: C_3  and  O_4 
REMARK    2  A    between atoms: O_4  and  C_5 
REMARK    3  A    between atoms: C_5  and  C_6 
REMARK       I    between atoms: C_6  and  N_7 
REMARK    4  A    between atoms: N_7  and  N_8 
REMARK    5  A    between atoms: C_9  and  C_10 
ROOT
HETATM    1  C   UNL     1      42.020 -13.499   5.901  1.00  0.00     0.261 C 
HETATM    2  N   UNL     1      43.268 -13.347   6.505  1.00  0.00    -0.246 N 
HETATM    3  O   UNL     1      41.055 -12.760   6.078  1.00  0.00    -0.269 OA
HETATM    4  H   UNL     1      44.025 -13.988   6.295  1.00  0.00     0.192 HD
ENDROOT
BRANCH   2   5
HETATM    5  N   UNL     1      43.487 -12.317   7.374  1.00  0.00    -0.184 NA
HETATM    6  C   UNL     1      43.917 -11.217   6.845  1.00  0.00     0.153 C 
BRANCH   6   7
HETATM    7  C   UNL     1      44.185 -10.053   7.668  1.00  0.00     0.018 A 
HETATM    8  C   UNL     1      43.197  -9.201   8.266  1.00  0.00     0.004 A 
HETATM    9  C   UNL     1      43.873  -8.210   8.977  1.00  0.00     0.043 A 
HETATM   10  C   UNL     1      41.785  -9.184   8.276  1.00  0.00     0.014 A 
HETATM   11  C   UNL     1      43.214  -7.206   9.695  1.00  0.00     0.030 A 
HETATM   12  N   UNL     1      45.218  -8.444   8.815  1.00  0.00    -0.358 N 
HETATM   13  C   UNL     1      41.817  -7.213   9.688  1.00  0.00     0.002 A 
HETATM   14  C   UNL     1      41.110  -8.187   8.989  1.00  0.00     0.001 A 
HETATM   15  H   UNL     1      45.947  -7.875   9.224  1.00  0.00     0.166 HD
HETATM   16  C   UNL     1      45.428  -9.547   8.027  1.00  0.00     0.018 A 
HETATM   17  C   UNL     1      46.805 -10.005   7.699  1.00  0.00     0.069 C 
ENDBRANCH   6   7
ENDBRANCH   2   5
BRANCH   1  18
HETATM   18  C   UNL     1      42.002 -14.712   4.967  1.00  0.00     0.280 C 
BRANCH  18  19
HETATM   19  O   UNL     1      43.214 -14.862   4.234  1.00  0.00    -0.341 OA
BRANCH  19  20
HETATM   20  C   UNL     1      43.344 -16.150   3.778  1.00  0.00     0.081 A 
HETATM   21  C   UNL     1      42.915 -16.489   2.484  1.00  0.00    -0.027 A 
HETATM   22  C   UNL     1      42.310 -15.476   1.556  1.00  0.00     0.051 C 
HETATM   23  C   UNL     1      43.025 -17.823   2.068  1.00  0.00     0.028 A 
HETATM   24  C   UNL     1      43.594 -18.778   2.912  1.00  0.00     0.012 A 
HETATM   25  C   UNL     1      44.067 -18.421   4.174  1.00  0.00     0.028 A 
HETATM   26 BR   UNL     1      43.733 -20.573   2.333  1.00  0.00    -0.051 Br
HETATM   27  C   UNL     1      43.961 -17.096   4.616  1.00  0.00    -0.027 A 
HETATM   28  C   UNL     1      44.471 -16.712   5.976  1.00  0.00     0.051 C 
ENDBRANCH  19  20
ENDBRANCH  18  19
ENDBRANCH   1  18
TORSDOF 5
ENDMDL
MODEL 9
REMARK VINA RESULT:      -8.0      3.746      9.456
REMARK  5 active torsions:
REMARK  status: ('A' for Active; 'I' for Inactive)
REMARK    1  A    between atoms: C_3  and  O_4 
REMARK    2  A    between atoms: O_4  and  C_5 
REMARK    3  A    between atoms: C_5  and  C_6 
REMARK       I    between atoms: C_6  and  N_7 
REMARK    4  A    between atoms: N_7  and  N_8 
REMARK    5  A    between atoms: C_9  and  C_10 
ROOT
HETATM    1  C   UNL     1      40.757 -13.748   3.159  1.00  0.00     0.261 C 
HETATM    2  N   UNL     1      41.584 -13.453   2.074  1.00  0.00    -0.246 N 
HETATM    3  O   UNL     1      39.576 -13.429   3.254  1.00  0.00    -0.269 OA
HETATM    4  H   UNL     1      42.547 -13.767   2.058  1.00  0.00     0.192 HD
ENDROOT
BRANCH   2   5
HETATM    5  N   UNL     1      41.093 -12.751   1.012  1.00  0.00    -0.184 NA
HETATM    6  C   UNL     1      40.899 -13.432  -0.072  1.00  0.00     0.153 C 
BRANCH   6   7
HETATM    7  C   UNL     1      40.380 -12.795  -1.267  1.00  0.00     0.018 A 
HETATM    8  C   UNL     1      40.673 -11.460  -1.703  1.00  0.00     0.004 A 
HETATM    9  C   UNL     1      39.981 -11.246  -2.894  1.00  0.00     0.043 A 
HETATM   10  C   UNL     1      41.472 -10.410  -1.198  1.00  0.00     0.014 A 
HETATM   11  C   UNL     1      40.045 -10.043  -3.606  1.00  0.00     0.030 A 
HETATM   12  N   UNL     1      39.290 -12.401  -3.172  1.00  0.00    -0.358 N 
HETATM   13  C   UNL     1      40.843  -9.022  -3.084  1.00  0.00     0.002 A 
HETATM   14  C   UNL     1      41.547  -9.200  -1.897  1.00  0.00     0.001 A 
HETATM   15  H   UNL     1      38.698 -12.530  -3.982  1.00  0.00     0.166 HD
HETATM   16  C   UNL     1      39.513 -13.346  -2.202  1.00  0.00     0.018 A 
HETATM   17  C   UNL     1      38.870 -14.686  -2.273  1.00  0.00     0.069 C 
ENDBRANCH   6   7
ENDBRANCH   2   5
BRANCH   1  18
HETATM   18  C   UNL     1      41.513 -14.541   4.229  1.00  0.00     0.280 C 
BRANCH  18  19
HETATM   19  O   UNL     1      42.883 -14.749   3.896  1.00  0.00    -0.341 OA
BRANCH  19  20
HETATM   20  C   UNL     1      43.239 -16.055   4.124  1.00  0.00     0.081 A 
HETATM   21  C   UNL     1      43.253 -16.979   3.065  1.00  0.00    -0.027 A 
HETATM   22  C   UNL     1      42.890 -16.587   1.663  1.00  0.00     0.051 C 
HETATM   23  C   UNL     1      43.582 -18.313   3.343  1.00  0.00     0.028 A 
HETATM   24  C   UNL     1      43.932 -18.696   4.638  1.00  0.00     0.012 A 
HETATM   25  C   UNL     1      43.968 -17.761   5.672  1.00  0.00     0.028 A 
HETATM   26 BR   UNL     1      44.371 -20.501   4.992  1.00  0.00    -0.051 Br
HETATM   27  C   UNL     1      43.636 -16.423   5.421  1.00  0.00    -0.027 A 
HETATM   28  C   UNL     1      43.675 -15.416   6.535  1.00  0.00     0.051 C 
ENDBRANCH  19  20
ENDBRANCH  18  19
ENDBRANCH   1  18
TORSDOF 5
ENDMDL
MODEL 10
REMARK VINA RESULT:      -7.9      3.767      9.429
REMARK  5 active torsions:
REMARK  status: ('A' for Active; 'I' for Inactive)
REMARK    1  A    between atoms: C_3  and  O_4 
REMARK    2  A    between atoms: O_4  and  C_5 
REMARK    3  A    between atoms: C_5  and  C_6 
REMARK       I    between atoms: C_6  and  N_7 
REMARK    4  A    between atoms: N_7  and  N_8 
REMARK    5  A    between atoms: C_9  and  C_10 
ROOT
HETATM    1  C   UNL     1      40.420 -13.956   3.251  1.00  0.00     0.261 C 
HETATM    2  N   UNL     1      40.875 -14.179   1.951  1.00  0.00    -0.246 N 
HETATM    3  O   UNL     1      39.601 -13.102   3.577  1.00  0.00    -0.269 OA
HETATM    4  H   UNL     1      41.540 -14.918   1.756  1.00  0.00     0.192 HD
ENDROOT
BRANCH   2   5
HETATM    5  N   UNL     1      40.410 -13.410   0.924  1.00  0.00    -0.184 NA
HETATM    6  C   UNL     1      40.381 -13.981  -0.237  1.00  0.00     0.153 C 
BRANCH   6   7
HETATM    7  C   UNL     1      39.907 -13.264  -1.406  1.00  0.00     0.018 A 
HETATM    8  C   UNL     1      40.114 -11.871  -1.679  1.00  0.00     0.004 A 
HETATM    9  C   UNL     1      39.506 -11.588  -2.901  1.00  0.00     0.043 A 
HETATM   10  C   UNL     1      40.771 -10.820  -1.002  1.00  0.00     0.014 A 
HETATM   11  C   UNL     1      39.520 -10.314  -3.481  1.00  0.00     0.030 A 
HETATM   12  N   UNL     1      38.946 -12.759  -3.354  1.00  0.00    -0.358 N 
HETATM   13  C   UNL     1      40.178  -9.294  -2.790  1.00  0.00     0.002 A 
HETATM   14  C   UNL     1      40.795  -9.540  -1.568  1.00  0.00     0.001 A 
HETATM   15  H   UNL     1      38.437 -12.848  -4.223  1.00  0.00     0.166 HD
HETATM   16  C   UNL     1      39.173 -13.780  -2.466  1.00  0.00     0.018 A 
HETATM   17  C   UNL     1      38.660 -15.153  -2.728  1.00  0.00     0.069 C 
ENDBRANCH   6   7
ENDBRANCH   2   5
BRANCH   1  18
HETATM   18  C   UNL     1      41.069 -14.931   4.238  1.00  0.00     0.280 C 
BRANCH  18  19
HETATM   19  O   UNL     1      42.482 -15.024   4.073  1.00  0.00    -0.341 OA
BRANCH  19  20
HETATM   20  C   UNL     1      42.910 -16.305   4.315  1.00  0.00     0.081 A 
HETATM   21  C   UNL     1      42.922 -16.811   5.626  1.00  0.00    -0.027 A 
HETATM   22  C   UNL     1      42.472 -15.990   6.799  1.00  0.00     0.051 C 
HETATM   23  C   UNL     1      43.406 -18.110   5.839  1.00  0.00     0.028 A 
HETATM   24  C   UNL     1      43.819 -18.892   4.761  1.00  0.00     0.012 A 
HETATM   25  C   UNL     1      43.753 -18.401   3.457  1.00  0.00     0.028 A 
HETATM   26 BR   UNL     1      44.469 -20.641   5.070  1.00  0.00    -0.051 Br
HETATM   27  C   UNL     1      43.280 -17.104   3.218  1.00  0.00    -0.027 A 
HETATM   28  C   UNL     1      43.209 -16.575   1.814  1.00  0.00     0.051 C 
ENDBRANCH  19  20
ENDBRANCH  18  19
ENDBRANCH   1  18
TORSDOF 5
ENDMDL
