MODEL 1
REMARK VINA RESULT:     -10.0      0.000      0.000
REMARK  6 active torsions:
REMARK  status: ('A' for Active; 'I' for Inactive)
REMARK    1  A    between atoms: C_5  and  C_6 
REMARK    2  A    between atoms: C_11  and  C_12 
REMARK       I    between atoms: C_12  and  N_13 
REMARK    3  A    between atoms: N_13  and  C_14 
REMARK    4  A    between atoms: C_16  and  C_17 
REMARK    5  A    between atoms: C_17  and  O_18 
REMARK    6  A    between atoms: C_25  and  C_26 
ROOT
HETATM    1  C   UNL     1      41.298 -14.835   1.163  1.00  0.00     0.118 C 
HETATM    2  N   UNL     1      42.119 -13.851   1.867  1.00  0.00    -0.366 N 
HETATM    3  C   UNL     1      42.449 -13.974   3.168  1.00  0.00     0.123 A 
HETATM    4  N   UNL     1      42.155 -15.108   3.869  1.00  0.00    -0.240 N 
HETATM    5  N   UNL     1      42.399 -15.018   5.188  1.00  0.00    -0.165 NA
HETATM    6  C   UNL     1      43.014 -13.816   5.305  1.00  0.00     0.148 A 
HETATM    7  C   UNL     1      43.073 -13.140   4.055  1.00  0.00     0.089 A 
HETATM    8  C   UNL     1      41.524 -16.266   3.270  1.00  0.00     0.221 C 
HETATM    9  C   UNL     1      40.593 -15.799   2.142  1.00  0.00     0.066 C 
HETATM   10  H   UNL     1      42.352 -13.012   1.336  1.00  0.00     0.161 HD
ENDROOT
BRANCH   6  11
HETATM   11  C   UNL     1      43.509 -13.312   6.599  1.00  0.00     0.276 C 
HETATM   12  N   UNL     1      43.962 -12.010   6.502  1.00  0.00    -0.322 N 
HETATM   13  H   UNL     1      43.922 -11.637   5.557  1.00  0.00     0.169 HD
HETATM   14  O   UNL     1      43.520 -14.021   7.600  1.00  0.00    -0.266 OA
BRANCH  12  15
HETATM   15  C   UNL     1      44.476 -11.189   7.517  1.00  0.00     0.035 A 
HETATM   16  C   UNL     1      43.874 -11.038   8.769  1.00  0.00     0.039 A 
HETATM   17  C   UNL     1      44.417 -10.177   9.740  1.00  0.00    -0.028 A 
HETATM   18  C   UNL     1      45.600  -9.489   9.441  1.00  0.00     0.010 A 
HETATM   19  C   UNL     1      46.209  -9.634   8.196  1.00  0.00     0.003 A 
HETATM   20  C   UNL     1      45.643 -10.473   7.235  1.00  0.00     0.029 A 
BRANCH  17  21
HETATM   21  C   UNL     1      43.719 -10.032  11.075  1.00  0.00     0.147 C 
HETATM   22  C   UNL     1      43.759  -8.596  11.580  1.00  0.00     0.044 C 
BRANCH  21  23
HETATM   23  O   UNL     1      42.358 -10.451  10.978  1.00  0.00    -0.391 OA
HETATM   24  H   UNL     1      42.047 -10.607  11.885  1.00  0.00     0.210 HD
ENDBRANCH  21  23
ENDBRANCH  17  21
ENDBRANCH  12  15
ENDBRANCH   6  11
BRANCH   8  25
HETATM   25  C   UNL     1      42.579 -17.238   2.793  1.00  0.00     0.409 C 
HETATM   26  F   UNL     1      43.199 -17.867   3.815  1.00  0.00    -0.169 F 
HETATM   27  F   UNL     1      41.998 -18.210   2.039  1.00  0.00    -0.169 F 
HETATM   28  F   UNL     1      43.528 -16.671   2.021  1.00  0.00    -0.169 F 
ENDBRANCH   8  25
BRANCH   1  29
HETATM   29  C   UNL     1      40.283 -14.098   0.304  1.00  0.00    -0.035 A 
HETATM   30  C   UNL     1      39.819 -12.830   0.675  1.00  0.00     0.010 A 
HETATM   31  C   UNL     1      38.886 -12.154  -0.116  1.00  0.00     0.007 A 
HETATM   32  C   UNL     1      38.391 -12.736  -1.289  1.00  0.00    -0.062 A 
HETATM   33  C   UNL     1      37.412 -12.004  -2.159  1.00  0.00     0.048 C 
HETATM   34  C   UNL     1      38.859 -13.996  -1.670  1.00  0.00     0.007 A 
HETATM   35  C   UNL     1      39.788 -14.672  -0.880  1.00  0.00     0.010 A 
ENDBRANCH   1  29
TORSDOF 6
ENDMDL
MODEL 2
REMARK VINA RESULT:      -9.7      3.112      4.988
REMARK  6 active torsions:
REMARK  status: ('A' for Active; 'I' for Inactive)
REMARK    1  A    between atoms: C_5  and  C_6 
REMARK    2  A    between atoms: C_11  and  C_12 
REMARK       I    between atoms: C_12  and  N_13 
REMARK    3  A    between atoms: N_13  and  C_14 
REMARK    4  A    between atoms: C_16  and  C_17 
REMARK    5  A    between atoms: C_17  and  O_18 
REMARK    6  A    between atoms: C_25  and  C_26 
ROOT
HETATM    1  C   UNL     1      42.432 -15.366   3.479  1.00  0.00     0.118 C 
HETATM    2  N   UNL     1      42.336 -15.034   4.900  1.00  0.00    -0.366 N 
HETATM    3  C   UNL     1      42.795 -13.874   5.410  1.00  0.00     0.123 A 
HETATM    4  N   UNL     1      43.246 -12.873   4.599  1.00  0.00    -0.240 N 
HETATM    5  N   UNL     1      43.819 -11.849   5.256  1.00  0.00    -0.165 NA
HETATM    6  C   UNL     1      43.591 -12.152   6.557  1.00  0.00     0.148 A 
HETATM    7  C   UNL     1      42.939 -13.410   6.689  1.00  0.00     0.089 A 
HETATM    8  C   UNL     1      43.220 -12.955   3.153  1.00  0.00     0.221 C 
HETATM    9  C   UNL     1      43.400 -14.421   2.733  1.00  0.00     0.066 C 
HETATM   10  H   UNL     1      41.984 -15.777   5.502  1.00  0.00     0.161 HD
ENDROOT
BRANCH   6  11
HETATM   11  C   UNL     1      44.016 -11.264   7.654  1.00  0.00     0.276 C 
HETATM   12  N   UNL     1      43.004 -10.407   8.041  1.00  0.00    -0.322 N 
HETATM   13  H   UNL     1      42.160 -10.498   7.480  1.00  0.00     0.169 HD
HETATM   14  O   UNL     1      45.155 -11.309   8.108  1.00  0.00    -0.266 OA
BRANCH  12  15
HETATM   15  C   UNL     1      43.020  -9.445   9.062  1.00  0.00     0.035 A 
HETATM   16  C   UNL     1      42.885  -9.754  10.418  1.00  0.00     0.039 A 
HETATM   17  C   UNL     1      42.879  -8.745  11.399  1.00  0.00    -0.028 A 
HETATM   18  C   UNL     1      43.042  -7.414  10.994  1.00  0.00     0.010 A 
HETATM   19  C   UNL     1      43.179  -7.096   9.645  1.00  0.00     0.003 A 
HETATM   20  C   UNL     1      43.158  -8.107   8.683  1.00  0.00     0.029 A 
BRANCH  17  21
HETATM   21  C   UNL     1      42.711  -9.128  12.853  1.00  0.00     0.147 C 
HETATM   22  C   UNL     1      42.808  -7.916  13.771  1.00  0.00     0.044 C 
BRANCH  21  23
HETATM   23  O   UNL     1      41.451  -9.766  13.063  1.00  0.00    -0.391 OA
HETATM   24  H   UNL     1      41.633 -10.712  13.187  1.00  0.00     0.210 HD
ENDBRANCH  21  23
ENDBRANCH  17  21
ENDBRANCH  12  15
ENDBRANCH   6  11
BRANCH   8  25
HETATM   25  C   UNL     1      41.940 -12.348   2.626  1.00  0.00     0.409 C 
HETATM   26  F   UNL     1      40.953 -12.345   3.548  1.00  0.00    -0.169 F 
HETATM   27  F   UNL     1      42.155 -11.048   2.290  1.00  0.00    -0.169 F 
HETATM   28  F   UNL     1      41.468 -12.956   1.519  1.00  0.00    -0.169 F 
ENDBRANCH   8  25
BRANCH   1  29
HETATM   29  C   UNL     1      42.877 -16.813   3.345  1.00  0.00    -0.035 A 
HETATM   30  C   UNL     1      43.672 -17.410   4.330  1.00  0.00     0.010 A 
HETATM   31  C   UNL     1      44.080 -18.742   4.205  1.00  0.00     0.007 A 
HETATM   32  C   UNL     1      43.710 -19.498   3.087  1.00  0.00    -0.062 A 
HETATM   33  C   UNL     1      44.119 -20.936   2.960  1.00  0.00     0.048 C 
HETATM   34  C   UNL     1      42.907 -18.911   2.106  1.00  0.00     0.007 A 
HETATM   35  C   UNL     1      42.501 -17.582   2.230  1.00  0.00     0.010 A 
ENDBRANCH   1  29
TORSDOF 6
ENDMDL
MODEL 3
REMARK VINA RESULT:      -9.3      5.567      7.778
REMARK  6 active torsions:
REMARK  status: ('A' for Active; 'I' for Inactive)
REMARK    1  A    between atoms: C_5  and  C_6 
REMARK    2  A    between atoms: C_11  and  C_12 
REMARK       I    between atoms: C_12  and  N_13 
REMARK    3  A    between atoms: N_13  and  C_14 
REMARK    4  A    between atoms: C_16  and  C_17 
REMARK    5  A    between atoms: C_17  and  O_18 
REMARK    6  A    between atoms: C_25  and  C_26 
ROOT
HETATM    1  C   UNL     1      38.261 -11.118  -1.703  1.00  0.00     0.118 C 
HETATM    2  N   UNL     1      38.618 -11.417  -0.317  1.00  0.00    -0.366 N 
HETATM    3  C   UNL     1      39.226 -12.562   0.047  1.00  0.00     0.123 A 
HETATM    4  N   UNL     1      39.679 -13.451  -0.884  1.00  0.00    -0.240 N 
HETATM    5  N   UNL     1      40.115 -14.615  -0.368  1.00  0.00    -0.165 NA
HETATM    6  C   UNL     1      40.068 -14.395   0.968  1.00  0.00     0.148 A 
HETATM    7  C   UNL     1      39.527 -13.112   1.264  1.00  0.00     0.089 A 
HETATM    8  C   UNL     1      39.591 -13.215  -2.311  1.00  0.00     0.221 C 
HETATM    9  C   UNL     1      38.341 -12.373  -2.600  1.00  0.00     0.066 C 
HETATM   10  H   UNL     1      38.293 -10.743   0.376  1.00  0.00     0.161 HD
ENDROOT
BRANCH   6  11
HETATM   11  C   UNL     1      40.507 -15.408   1.945  1.00  0.00     0.276 C 
HETATM   12  N   UNL     1      41.850 -15.701   1.811  1.00  0.00    -0.322 N 
HETATM   13  H   UNL     1      42.297 -15.209   1.041  1.00  0.00     0.169 HD
HETATM   14  O   UNL     1      39.720 -15.916   2.736  1.00  0.00    -0.266 OA
BRANCH  12  15
HETATM   15  C   UNL     1      42.629 -16.586   2.572  1.00  0.00     0.035 A 
HETATM   16  C   UNL     1      42.878 -17.910   2.203  1.00  0.00     0.039 A 
HETATM   17  C   UNL     1      43.643 -18.763   3.019  1.00  0.00    -0.028 A 
HETATM   18  C   UNL     1      44.182 -18.251   4.207  1.00  0.00     0.010 A 
HETATM   19  C   UNL     1      43.940 -16.931   4.583  1.00  0.00     0.003 A 
HETATM   20  C   UNL     1      43.159 -16.105   3.773  1.00  0.00     0.029 A 
BRANCH  17  21
HETATM   21  C   UNL     1      43.870 -20.195   2.586  1.00  0.00     0.147 C 
HETATM   22  C   UNL     1      43.868 -21.151   3.773  1.00  0.00     0.044 C 
BRANCH  21  23
HETATM   23  O   UNL     1      42.865 -20.605   1.660  1.00  0.00    -0.391 OA
HETATM   24  H   UNL     1      42.035 -20.188   1.943  1.00  0.00     0.210 HD
ENDBRANCH  21  23
ENDBRANCH  17  21
ENDBRANCH  12  15
ENDBRANCH   6  11
BRANCH   8  25
HETATM   25  C   UNL     1      40.863 -12.565  -2.804  1.00  0.00     0.409 C 
HETATM   26  F   UNL     1      41.588 -12.024  -1.802  1.00  0.00    -0.169 F 
HETATM   27  F   UNL     1      41.657 -13.500  -3.392  1.00  0.00    -0.169 F 
HETATM   28  F   UNL     1      40.656 -11.604  -3.728  1.00  0.00    -0.169 F 
ENDBRANCH   8  25
BRANCH   1  29
HETATM   29  C   UNL     1      36.863 -10.522  -1.730  1.00  0.00    -0.035 A 
HETATM   30  C   UNL     1      36.064 -10.625  -2.875  1.00  0.00     0.010 A 
HETATM   31  C   UNL     1      34.778 -10.077  -2.897  1.00  0.00     0.007 A 
HETATM   32  C   UNL     1      34.270  -9.405  -1.779  1.00  0.00    -0.062 A 
HETATM   33  C   UNL     1      32.880  -8.841  -1.785  1.00  0.00     0.048 C 
HETATM   34  C   UNL     1      35.059  -9.309  -0.629  1.00  0.00     0.007 A 
HETATM   35  C   UNL     1      36.342  -9.855  -0.608  1.00  0.00     0.010 A 
ENDBRANCH   1  29
TORSDOF 6
ENDMDL
MODEL 4
REMARK VINA RESULT:      -8.8      2.980      5.246
REMARK  6 active torsions:
REMARK  status: ('A' for Active; 'I' for Inactive)
REMARK    1  A    between atoms: C_5  and  C_6 
REMARK    2  A    between atoms: C_11  and  C_12 
REMARK       I    between atoms: C_12  and  N_13 
REMARK    3  A    between atoms: N_13  and  C_14 
REMARK    4  A    between atoms: C_16  and  C_17 
REMARK    5  A    between atoms: C_17  and  O_18 
REMARK    6  A    between atoms: C_25  and  C_26 
ROOT
HETATM    1  C   UNL     1      42.106 -15.556   3.360  1.00  0.00     0.118 C 
HETATM    2  N   UNL     1      41.492 -14.926   4.528  1.00  0.00    -0.366 N 
HETATM    3  C   UNL     1      41.590 -13.606   4.778  1.00  0.00     0.123 A 
HETATM    4  N   UNL     1      42.148 -12.752   3.872  1.00  0.00    -0.240 N 
HETATM    5  N   UNL     1      42.321 -11.499   4.329  1.00  0.00    -0.165 NA
HETATM    6  C   UNL     1      41.709 -11.527   5.538  1.00  0.00     0.148 A 
HETATM    7  C   UNL     1      41.229 -12.830   5.846  1.00  0.00     0.089 A 
HETATM    8  C   UNL     1      42.623 -13.179   2.571  1.00  0.00     0.221 C 
HETATM    9  C   UNL     1      43.131 -14.624   2.677  1.00  0.00     0.066 C 
HETATM   10  H   UNL     1      41.061 -15.564   5.196  1.00  0.00     0.161 HD
ENDROOT
BRANCH   6  11
HETATM   11  C   UNL     1      41.614 -10.332   6.396  1.00  0.00     0.276 C 
HETATM   12  N   UNL     1      42.502 -10.388   7.453  1.00  0.00    -0.322 N 
HETATM   13  H   UNL     1      43.034 -11.254   7.489  1.00  0.00     0.169 HD
HETATM   14  O   UNL     1      40.803  -9.442   6.165  1.00  0.00    -0.266 OA
BRANCH  12  15
HETATM   15  C   UNL     1      42.723  -9.432   8.457  1.00  0.00     0.035 A 
HETATM   16  C   UNL     1      42.547  -9.688   9.820  1.00  0.00     0.039 A 
HETATM   17  C   UNL     1      42.755  -8.683  10.782  1.00  0.00    -0.028 A 
HETATM   18  C   UNL     1      43.174  -7.417  10.352  1.00  0.00     0.010 A 
HETATM   19  C   UNL     1      43.353  -7.153   8.996  1.00  0.00     0.003 A 
HETATM   20  C   UNL     1      43.119  -8.154   8.052  1.00  0.00     0.029 A 
BRANCH  17  21
HETATM   21  C   UNL     1      42.534  -9.001  12.244  1.00  0.00     0.147 C 
HETATM   22  C   UNL     1      42.855 -10.457  12.560  1.00  0.00     0.044 C 
BRANCH  21  23
HETATM   23  O   UNL     1      43.339  -8.160  13.069  1.00  0.00    -0.391 OA
HETATM   24  H   UNL     1      42.913  -7.287  13.081  1.00  0.00     0.210 HD
ENDBRANCH  21  23
ENDBRANCH  17  21
ENDBRANCH  12  15
ENDBRANCH   6  11
BRANCH   8  25
HETATM   25  C   UNL     1      41.526 -13.018   1.544  1.00  0.00     0.409 C 
HETATM   26  F   UNL     1      41.493 -14.039   0.661  1.00  0.00    -0.169 F 
HETATM   27  F   UNL     1      40.316 -13.007   2.165  1.00  0.00    -0.169 F 
HETATM   28  F   UNL     1      41.607 -11.868   0.843  1.00  0.00    -0.169 F 
ENDBRANCH   8  25
BRANCH   1  29
HETATM   29  C   UNL     1      42.762 -16.856   3.795  1.00  0.00    -0.035 A 
HETATM   30  C   UNL     1      43.152 -17.812   2.849  1.00  0.00     0.010 A 
HETATM   31  C   UNL     1      43.756 -19.007   3.251  1.00  0.00     0.007 A 
HETATM   32  C   UNL     1      43.973 -19.275   4.608  1.00  0.00    -0.062 A 
HETATM   33  C   UNL     1      44.647 -20.541   5.045  1.00  0.00     0.048 C 
HETATM   34  C   UNL     1      43.597 -18.319   5.556  1.00  0.00     0.007 A 
HETATM   35  C   UNL     1      42.992 -17.128   5.155  1.00  0.00     0.010 A 
ENDBRANCH   1  29
TORSDOF 6
ENDMDL
MODEL 5
REMARK VINA RESULT:      -8.7      4.901      8.513
REMARK  6 active torsions:
REMARK  status: ('A' for Active; 'I' for Inactive)
REMARK    1  A    between atoms: C_5  and  C_6 
REMARK    2  A    between atoms: C_11  and  C_12 
REMARK       I    between atoms: C_12  and  N_13 
REMARK    3  A    between atoms: N_13  and  C_14 
REMARK    4  A    between atoms: C_16  and  C_17 
REMARK    5  A    between atoms: C_17  and  O_18 
REMARK    6  A    between atoms: C_25  and  C_26 
ROOT
HETATM    1  C   UNL     1      42.271 -15.178   4.338  1.00  0.00     0.118 C 
HETATM    2  N   UNL     1      42.854 -14.159   3.467  1.00  0.00    -0.366 N 
HETATM    3  C   UNL     1      42.151 -13.107   3.003  1.00  0.00     0.123 A 
HETATM    4  N   UNL     1      40.885 -12.852   3.443  1.00  0.00    -0.240 N 
HETATM    5  N   UNL     1      40.256 -11.870   2.774  1.00  0.00    -0.165 NA
HETATM    6  C   UNL     1      41.227 -11.381   1.963  1.00  0.00     0.148 A 
HETATM    7  C   UNL     1      42.432 -12.127   2.091  1.00  0.00     0.089 A 
HETATM    8  C   UNL     1      40.227 -13.646   4.462  1.00  0.00     0.221 C 
HETATM    9  C   UNL     1      40.729 -15.094   4.366  1.00  0.00     0.066 C 
HETATM   10  H   UNL     1      43.807 -14.343   3.152  1.00  0.00     0.161 HD
ENDROOT
BRANCH   6  11
HETATM   11  C   UNL     1      40.993 -10.239   1.061  1.00  0.00     0.276 C 
HETATM   12  N   UNL     1      41.667 -10.386  -0.136  1.00  0.00    -0.322 N 
HETATM   13  H   UNL     1      42.241 -11.224  -0.177  1.00  0.00     0.169 HD
HETATM   14  O   UNL     1      40.298  -9.288   1.401  1.00  0.00    -0.266 OA
BRANCH  12  15
HETATM   15  C   UNL     1      41.668  -9.528  -1.246  1.00  0.00     0.035 A 
HETATM   16  C   UNL     1      42.273  -8.268  -1.249  1.00  0.00     0.039 A 
HETATM   17  C   UNL     1      42.218  -7.436  -2.382  1.00  0.00    -0.028 A 
HETATM   18  C   UNL     1      41.566  -7.906  -3.530  1.00  0.00     0.010 A 
HETATM   19  C   UNL     1      40.961  -9.161  -3.537  1.00  0.00     0.003 A 
HETATM   20  C   UNL     1      41.004  -9.964  -2.396  1.00  0.00     0.029 A 
BRANCH  17  21
HETATM   21  C   UNL     1      42.871  -6.072  -2.332  1.00  0.00     0.147 C 
HETATM   22  C   UNL     1      44.137  -6.084  -1.484  1.00  0.00     0.044 C 
BRANCH  21  23
HETATM   23  O   UNL     1      43.199  -5.623  -3.646  1.00  0.00    -0.391 OA
HETATM   24  H   UNL     1      43.944  -6.167  -3.951  1.00  0.00     0.210 HD
ENDBRANCH  21  23
ENDBRANCH  17  21
ENDBRANCH  12  15
ENDBRANCH   6  11
BRANCH   8  25
HETATM   25  C   UNL     1      40.462 -13.033   5.823  1.00  0.00     0.409 C 
HETATM   26  F   UNL     1      39.493 -12.159   6.170  1.00  0.00    -0.169 F 
HETATM   27  F   UNL     1      40.457 -14.009   6.771  1.00  0.00    -0.169 F 
HETATM   28  F   UNL     1      41.648 -12.399   5.934  1.00  0.00    -0.169 F 
ENDBRANCH   8  25
BRANCH   1  29
HETATM   29  C   UNL     1      42.730 -16.547   3.864  1.00  0.00    -0.035 A 
HETATM   30  C   UNL     1      42.290 -17.062   2.638  1.00  0.00     0.010 A 
HETATM   31  C   UNL     1      42.713 -18.322   2.202  1.00  0.00     0.007 A 
HETATM   32  C   UNL     1      43.576 -19.095   2.989  1.00  0.00    -0.062 A 
HETATM   33  C   UNL     1      44.057 -20.434   2.515  1.00  0.00     0.048 C 
HETATM   34  C   UNL     1      44.027 -18.581   4.207  1.00  0.00     0.007 A 
HETATM   35  C   UNL     1      43.603 -17.325   4.643  1.00  0.00     0.010 A 
ENDBRANCH   1  29
TORSDOF 6
ENDMDL
MODEL 6
REMARK VINA RESULT:      -8.6      4.932      8.778
REMARK  6 active torsions:
REMARK  status: ('A' for Active; 'I' for Inactive)
REMARK    1  A    between atoms: C_5  and  C_6 
REMARK    2  A    between atoms: C_11  and  C_12 
REMARK       I    between atoms: C_12  and  N_13 
REMARK    3  A    between atoms: N_13  and  C_14 
REMARK    4  A    between atoms: C_16  and  C_17 
REMARK    5  A    between atoms: C_17  and  O_18 
REMARK    6  A    between atoms: C_25  and  C_26 
ROOT
HETATM    1  C   UNL     1      42.262 -15.217   4.327  1.00  0.00     0.118 C 
HETATM    2  N   UNL     1      42.906 -14.168   3.537  1.00  0.00    -0.366 N 
HETATM    3  C   UNL     1      42.242 -13.086   3.084  1.00  0.00     0.123 A 
HETATM    4  N   UNL     1      40.956 -12.833   3.465  1.00  0.00    -0.240 N 
HETATM    5  N   UNL     1      40.378 -11.812   2.808  1.00  0.00    -0.165 NA
HETATM    6  C   UNL     1      41.398 -11.302   2.076  1.00  0.00     0.148 A 
HETATM    7  C   UNL     1      42.585 -12.070   2.235  1.00  0.00     0.089 A 
HETATM    8  C   UNL     1      40.233 -13.662   4.408  1.00  0.00     0.221 C 
HETATM    9  C   UNL     1      40.722 -15.112   4.273  1.00  0.00     0.066 C 
HETATM   10  H   UNL     1      43.872 -14.351   3.267  1.00  0.00     0.161 HD
ENDROOT
BRANCH   6  11
HETATM   11  C   UNL     1      41.229 -10.117   1.216  1.00  0.00     0.276 C 
HETATM   12  N   UNL     1      41.772 -10.313  -0.039  1.00  0.00    -0.322 N 
HETATM   13  H   UNL     1      42.233 -11.214  -0.145  1.00  0.00     0.169 HD
HETATM   14  O   UNL     1      40.689  -9.097   1.631  1.00  0.00    -0.266 OA
BRANCH  12  15
HETATM   15  C   UNL     1      41.782  -9.433  -1.132  1.00  0.00     0.035 A 
HETATM   16  C   UNL     1      40.933  -9.559  -2.235  1.00  0.00     0.039 A 
HETATM   17  C   UNL     1      41.005  -8.663  -3.317  1.00  0.00    -0.028 A 
HETATM   18  C   UNL     1      41.932  -7.614  -3.260  1.00  0.00     0.010 A 
HETATM   19  C   UNL     1      42.782  -7.479  -2.164  1.00  0.00     0.003 A 
HETATM   20  C   UNL     1      42.713  -8.390  -1.109  1.00  0.00     0.029 A 
BRANCH  17  21
HETATM   21  C   UNL     1      40.078  -8.852  -4.498  1.00  0.00     0.147 C 
HETATM   22  C   UNL     1      38.932  -7.847  -4.482  1.00  0.00     0.044 C 
BRANCH  21  23
HETATM   23  O   UNL     1      40.793  -8.718  -5.725  1.00  0.00    -0.391 OA
HETATM   24  H   UNL     1      41.734  -8.645  -5.495  1.00  0.00     0.210 HD
ENDBRANCH  21  23
ENDBRANCH  17  21
ENDBRANCH  12  15
ENDBRANCH   6  11
BRANCH   8  25
HETATM   25  C   UNL     1      40.399 -13.116   5.807  1.00  0.00     0.409 C 
HETATM   26  F   UNL     1      39.432 -12.232   6.133  1.00  0.00    -0.169 F 
HETATM   27  F   UNL     1      40.312 -14.131   6.708  1.00  0.00    -0.169 F 
HETATM   28  F   UNL     1      41.591 -12.519   6.017  1.00  0.00    -0.169 F 
ENDBRANCH   8  25
BRANCH   1  29
HETATM   29  C   UNL     1      42.730 -16.570   3.815  1.00  0.00    -0.035 A 
HETATM   30  C   UNL     1      43.612 -17.353   4.571  1.00  0.00     0.010 A 
HETATM   31  C   UNL     1      44.041 -18.597   4.099  1.00  0.00     0.007 A 
HETATM   32  C   UNL     1      43.605 -19.078   2.858  1.00  0.00    -0.062 A 
HETATM   33  C   UNL     1      44.037 -20.425   2.360  1.00  0.00     0.048 C 
HETATM   34  C   UNL     1      42.716 -18.306   2.106  1.00  0.00     0.007 A 
HETATM   35  C   UNL     1      42.290 -17.064   2.575  1.00  0.00     0.010 A 
ENDBRANCH   1  29
TORSDOF 6
ENDMDL
MODEL 7
REMARK VINA RESULT:      -8.5      4.551      9.516
REMARK  6 active torsions:
REMARK  status: ('A' for Active; 'I' for Inactive)
REMARK    1  A    between atoms: C_5  and  C_6 
REMARK    2  A    between atoms: C_11  and  C_12 
REMARK       I    between atoms: C_12  and  N_13 
REMARK    3  A    between atoms: N_13  and  C_14 
REMARK    4  A    between atoms: C_16  and  C_17 
REMARK    5  A    between atoms: C_17  and  O_18 
REMARK    6  A    between atoms: C_25  and  C_26 
ROOT
HETATM    1  C   UNL     1      42.537 -15.343   3.939  1.00  0.00     0.118 C 
HETATM    2  N   UNL     1      42.317 -14.626   2.684  1.00  0.00    -0.366 N 
HETATM    3  C   UNL     1      41.265 -13.807   2.487  1.00  0.00     0.123 A 
HETATM    4  N   UNL     1      40.418 -13.485   3.507  1.00  0.00    -0.240 N 
HETATM    5  N   UNL     1      39.330 -12.794   3.122  1.00  0.00    -0.165 NA
HETATM    6  C   UNL     1      39.574 -12.543   1.813  1.00  0.00     0.148 A 
HETATM    7  C   UNL     1      40.786 -13.154   1.385  1.00  0.00     0.089 A 
HETATM    8  C   UNL     1      40.608 -13.945   4.868  1.00  0.00     0.221 C 
HETATM    9  C   UNL     1      41.281 -15.325   4.838  1.00  0.00     0.066 C 
HETATM   10  H   UNL     1      42.961 -14.856   1.927  1.00  0.00     0.161 HD
ENDROOT
BRANCH   6  11
HETATM   11  C   UNL     1      38.646 -11.756   0.981  1.00  0.00     0.276 C 
HETATM   12  N   UNL     1      39.092 -11.650  -0.323  1.00  0.00    -0.322 N 
HETATM   13  H   UNL     1      39.997 -12.088  -0.478  1.00  0.00     0.169 HD
HETATM   14  O   UNL     1      37.632 -11.254   1.452  1.00  0.00    -0.266 OA
BRANCH  12  15
HETATM   15  C   UNL     1      38.473 -11.009  -1.406  1.00  0.00     0.035 A 
HETATM   16  C   UNL     1      37.224 -11.380  -1.914  1.00  0.00     0.039 A 
HETATM   17  C   UNL     1      36.663 -10.719  -3.022  1.00  0.00    -0.028 A 
HETATM   18  C   UNL     1      37.368  -9.654  -3.597  1.00  0.00     0.010 A 
HETATM   19  C   UNL     1      38.612  -9.276  -3.098  1.00  0.00     0.003 A 
HETATM   20  C   UNL     1      39.166  -9.958  -2.013  1.00  0.00     0.029 A 
BRANCH  17  21
HETATM   21  C   UNL     1      35.317 -11.168  -3.547  1.00  0.00     0.147 C 
HETATM   22  C   UNL     1      34.811 -10.257  -4.659  1.00  0.00     0.044 C 
BRANCH  21  23
HETATM   23  O   UNL     1      35.391 -12.505  -4.042  1.00  0.00    -0.391 OA
HETATM   24  H   UNL     1      36.271 -12.608  -4.441  1.00  0.00     0.210 HD
ENDBRANCH  21  23
ENDBRANCH  17  21
ENDBRANCH  12  15
ENDBRANCH   6  11
BRANCH   8  25
HETATM   25  C   UNL     1      41.400 -12.924   5.651  1.00  0.00     0.409 C 
HETATM   26  F   UNL     1      42.143 -12.126   4.854  1.00  0.00    -0.169 F 
HETATM   27  F   UNL     1      40.549 -12.107   6.329  1.00  0.00    -0.169 F 
HETATM   28  F   UNL     1      42.222 -13.468   6.572  1.00  0.00    -0.169 F 
ENDBRANCH   8  25
BRANCH   1  29
HETATM   29  C   UNL     1      42.954 -16.769   3.619  1.00  0.00    -0.035 A 
HETATM   30  C   UNL     1      43.784 -17.484   4.492  1.00  0.00     0.010 A 
HETATM   31  C   UNL     1      44.166 -18.796   4.197  1.00  0.00     0.007 A 
HETATM   32  C   UNL     1      43.733 -19.416   3.019  1.00  0.00    -0.062 A 
HETATM   33  C   UNL     1      44.114 -20.834   2.710  1.00  0.00     0.048 C 
HETATM   34  C   UNL     1      42.895 -18.712   2.150  1.00  0.00     0.007 A 
HETATM   35  C   UNL     1      42.516 -17.402   2.443  1.00  0.00     0.010 A 
ENDBRANCH   1  29
TORSDOF 6
ENDMDL
MODEL 8
REMARK VINA RESULT:      -8.5      3.354      5.535
REMARK  6 active torsions:
REMARK  status: ('A' for Active; 'I' for Inactive)
REMARK    1  A    between atoms: C_5  and  C_6 
REMARK    2  A    between atoms: C_11  and  C_12 
REMARK       I    between atoms: C_12  and  N_13 
REMARK    3  A    between atoms: N_13  and  C_14 
REMARK    4  A    between atoms: C_16  and  C_17 
REMARK    5  A    between atoms: C_17  and  O_18 
REMARK    6  A    between atoms: C_25  and  C_26 
ROOT
HETATM    1  C   UNL     1      41.708 -15.859   2.567  1.00  0.00     0.118 C 
HETATM    2  N   UNL     1      40.900 -15.272   3.635  1.00  0.00    -0.366 N 
HETATM    3  C   UNL     1      40.777 -13.942   3.808  1.00  0.00     0.123 A 
HETATM    4  N   UNL     1      41.286 -13.059   2.900  1.00  0.00    -0.240 N 
HETATM    5  N   UNL     1      41.227 -11.773   3.289  1.00  0.00    -0.165 NA
HETATM    6  C   UNL     1      40.515 -11.833   4.440  1.00  0.00     0.148 A 
HETATM    7  C   UNL     1      40.205 -13.178   4.789  1.00  0.00     0.089 A 
HETATM    8  C   UNL     1      41.939 -13.474   1.675  1.00  0.00     0.221 C 
HETATM    9  C   UNL     1      42.644 -14.817   1.917  1.00  0.00     0.066 C 
HETATM   10  H   UNL     1      40.507 -15.934   4.304  1.00  0.00     0.161 HD
ENDROOT
BRANCH   6  11
HETATM   11  C   UNL     1      40.163 -10.625   5.208  1.00  0.00     0.276 C 
HETATM   12  N   UNL     1      40.837 -10.570   6.413  1.00  0.00    -0.322 N 
HETATM   13  H   UNL     1      41.421 -11.384   6.588  1.00  0.00     0.169 HD
HETATM   14  O   UNL     1      39.340  -9.818   4.788  1.00  0.00    -0.266 OA
BRANCH  12  15
HETATM   15  C   UNL     1      40.786  -9.568   7.394  1.00  0.00     0.035 A 
HETATM   16  C   UNL     1      41.782  -8.603   7.567  1.00  0.00     0.039 A 
HETATM   17  C   UNL     1      41.693  -7.638   8.587  1.00  0.00    -0.028 A 
HETATM   18  C   UNL     1      40.565  -7.641   9.418  1.00  0.00     0.010 A 
HETATM   19  C   UNL     1      39.566  -8.598   9.253  1.00  0.00     0.003 A 
HETATM   20  C   UNL     1      39.681  -9.563   8.251  1.00  0.00     0.029 A 
BRANCH  17  21
HETATM   21  C   UNL     1      42.806  -6.625   8.747  1.00  0.00     0.147 C 
HETATM   22  C   UNL     1      42.779  -5.968  10.121  1.00  0.00     0.044 C 
BRANCH  21  23
HETATM   23  O   UNL     1      44.078  -7.242   8.553  1.00  0.00    -0.391 OA
HETATM   24  H   UNL     1      44.699  -6.535   8.311  1.00  0.00     0.210 HD
ENDBRANCH  21  23
ENDBRANCH  17  21
ENDBRANCH  12  15
ENDBRANCH   6  11
BRANCH   8  25
HETATM   25  C   UNL     1      40.934 -13.535   0.549  1.00  0.00     0.409 C 
HETATM   26  F   UNL     1      40.952 -14.721  -0.096  1.00  0.00    -0.169 F 
HETATM   27  F   UNL     1      39.677 -13.389   1.050  1.00  0.00    -0.169 F 
HETATM   28  F   UNL     1      41.093 -12.562  -0.372  1.00  0.00    -0.169 F 
ENDBRANCH   8  25
BRANCH   1  29
HETATM   29  C   UNL     1      42.505 -17.019   3.140  1.00  0.00    -0.035 A 
HETATM   30  C   UNL     1      42.903 -17.019   4.483  1.00  0.00     0.010 A 
HETATM   31  C   UNL     1      43.637 -18.087   5.008  1.00  0.00     0.007 A 
HETATM   32  C   UNL     1      43.995 -19.172   4.199  1.00  0.00    -0.062 A 
HETATM   33  C   UNL     1      44.756 -20.335   4.763  1.00  0.00     0.048 C 
HETATM   34  C   UNL     1      43.590 -19.183   2.862  1.00  0.00     0.007 A 
HETATM   35  C   UNL     1      42.861 -18.117   2.337  1.00  0.00     0.010 A 
ENDBRANCH   1  29
TORSDOF 6
ENDMDL
MODEL 9
REMARK VINA RESULT:      -8.4      5.718     10.519
REMARK  6 active torsions:
REMARK  status: ('A' for Active; 'I' for Inactive)
REMARK    1  A    between atoms: C_5  and  C_6 
REMARK    2  A    between atoms: C_11  and  C_12 
REMARK       I    between atoms: C_12  and  N_13 
REMARK    3  A    between atoms: N_13  and  C_14 
REMARK    4  A    between atoms: C_16  and  C_17 
REMARK    5  A    between atoms: C_17  and  O_18 
REMARK    6  A    between atoms: C_25  and  C_26 
ROOT
HETATM    1  C   UNL     1      42.395 -14.203   2.444  1.00  0.00     0.118 C 
HETATM    2  N   UNL     1      42.086 -14.236   1.015  1.00  0.00    -0.366 N 
HETATM    3  C   UNL     1      40.999 -13.637   0.490  1.00  0.00     0.123 A 
HETATM    4  N   UNL     1      40.197 -12.836   1.249  1.00  0.00    -0.240 N 
HETATM    5  N   UNL     1      39.068 -12.443   0.631  1.00  0.00    -0.165 NA
HETATM    6  C   UNL     1      39.235 -12.903  -0.633  1.00  0.00     0.148 A 
HETATM    7  C   UNL     1      40.442 -13.646  -0.759  1.00  0.00     0.089 A 
HETATM    8  C   UNL     1      40.472 -12.529   2.638  1.00  0.00     0.221 C 
HETATM    9  C   UNL     1      41.187 -13.726   3.281  1.00  0.00     0.066 C 
HETATM   10  H   UNL     1      42.697 -14.823   0.447  1.00  0.00     0.161 HD
ENDROOT
BRANCH   6  11
HETATM   11  C   UNL     1      38.240 -12.659  -1.692  1.00  0.00     0.276 C 
HETATM   12  N   UNL     1      38.018 -11.309  -1.886  1.00  0.00    -0.322 N 
HETATM   13  H   UNL     1      38.537 -10.717  -1.241  1.00  0.00     0.169 HD
HETATM   14  O   UNL     1      37.687 -13.585  -2.276  1.00  0.00    -0.266 OA
BRANCH  12  15
HETATM   15  C   UNL     1      37.170 -10.690  -2.817  1.00  0.00     0.035 A 
HETATM   16  C   UNL     1      35.805 -10.969  -2.924  1.00  0.00     0.039 A 
HETATM   17  C   UNL     1      35.006 -10.339  -3.896  1.00  0.00    -0.028 A 
HETATM   18  C   UNL     1      35.600  -9.396  -4.746  1.00  0.00     0.010 A 
HETATM   19  C   UNL     1      36.960  -9.110  -4.645  1.00  0.00     0.003 A 
HETATM   20  C   UNL     1      37.743  -9.762  -3.691  1.00  0.00     0.029 A 
BRANCH  17  21
HETATM   21  C   UNL     1      33.537 -10.687  -3.987  1.00  0.00     0.147 C 
HETATM   22  C   UNL     1      32.915 -10.183  -5.283  1.00  0.00     0.044 C 
BRANCH  21  23
HETATM   23  O   UNL     1      33.349 -12.099  -3.902  1.00  0.00    -0.391 OA
HETATM   24  H   UNL     1      33.171 -12.414  -4.804  1.00  0.00     0.210 HD
ENDBRANCH  21  23
ENDBRANCH  17  21
ENDBRANCH  12  15
ENDBRANCH   6  11
BRANCH   8  25
HETATM   25  C   UNL     1      41.270 -11.249   2.734  1.00  0.00     0.409 C 
HETATM   26  F   UNL     1      40.484 -10.159   2.866  1.00  0.00    -0.169 F 
HETATM   27  F   UNL     1      42.064 -11.287   3.838  1.00  0.00    -0.169 F 
HETATM   28  F   UNL     1      42.089 -11.042   1.682  1.00  0.00    -0.169 F 
ENDBRANCH   8  25
BRANCH   1  29
HETATM   29  C   UNL     1      42.840 -15.590   2.879  1.00  0.00    -0.035 A 
HETATM   30  C   UNL     1      42.883 -16.647   1.961  1.00  0.00     0.010 A 
HETATM   31  C   UNL     1      43.293 -17.922   2.363  1.00  0.00     0.007 A 
HETATM   32  C   UNL     1      43.659 -18.167   3.692  1.00  0.00    -0.062 A 
HETATM   33  C   UNL     1      44.128 -19.525   4.124  1.00  0.00     0.048 C 
HETATM   34  C   UNL     1      43.629 -17.113   4.609  1.00  0.00     0.007 A 
HETATM   35  C   UNL     1      43.218 -15.842   4.209  1.00  0.00     0.010 A 
ENDBRANCH   1  29
TORSDOF 6
ENDMDL
MODEL 10
REMARK VINA RESULT:      -8.4      3.755      5.559
REMARK  6 active torsions:
REMARK  status: ('A' for Active; 'I' for Inactive)
REMARK    1  A    between atoms: C_5  and  C_6 
REMARK    2  A    between atoms: C_11  and  C_12 
REMARK       I    between atoms: C_12  and  N_13 
REMARK    3  A    between atoms: N_13  and  C_14 
REMARK    4  A    between atoms: C_16  and  C_17 
REMARK    5  A    between atoms: C_17  and  O_18 
REMARK    6  A    between atoms: C_25  and  C_26 
ROOT
HETATM    1  C   UNL     1      40.755 -14.661   3.196  1.00  0.00     0.118 C 
HETATM    2  N   UNL     1      40.221 -14.312   4.513  1.00  0.00    -0.366 N 
HETATM    3  C   UNL     1      40.095 -13.039   4.933  1.00  0.00     0.123 A 
HETATM    4  N   UNL     1      40.322 -11.989   4.091  1.00  0.00    -0.240 N 
HETATM    5  N   UNL     1      40.314 -10.787   4.695  1.00  0.00    -0.165 NA
HETATM    6  C   UNL     1      39.919 -11.081   5.958  1.00  0.00     0.148 A 
HETATM    7  C   UNL     1      39.761 -12.484   6.138  1.00  0.00     0.089 A 
HETATM    8  C   UNL     1      40.660 -12.156   2.692  1.00  0.00     0.221 C 
HETATM    9  C   UNL     1      41.454 -13.459   2.524  1.00  0.00     0.066 C 
HETATM   10  H   UNL     1      40.037 -15.099   5.134  1.00  0.00     0.161 HD
ENDROOT
BRANCH   6  11
HETATM   11  C   UNL     1      39.727 -10.038   6.982  1.00  0.00     0.276 C 
HETATM   12  N   UNL     1      40.778  -9.999   7.877  1.00  0.00    -0.322 N 
HETATM   13  H   UNL     1      41.479 -10.717   7.711  1.00  0.00     0.169 HD
HETATM   14  O   UNL     1      38.718  -9.340   7.002  1.00  0.00    -0.266 OA
BRANCH  12  15
HETATM   15  C   UNL     1      40.966  -9.130   8.963  1.00  0.00     0.035 A 
HETATM   16  C   UNL     1      40.473  -9.380  10.247  1.00  0.00     0.039 A 
HETATM   17  C   UNL     1      40.665  -8.459  11.293  1.00  0.00    -0.028 A 
HETATM   18  C   UNL     1      41.392  -7.289  11.034  1.00  0.00     0.010 A 
HETATM   19  C   UNL     1      41.888  -7.032   9.757  1.00  0.00     0.003 A 
HETATM   20  C   UNL     1      41.667  -7.945   8.725  1.00  0.00     0.029 A 
BRANCH  17  21
HETATM   21  C   UNL     1      40.097  -8.764  12.662  1.00  0.00     0.147 C 
HETATM   22  C   UNL     1      39.735  -7.493  13.420  1.00  0.00     0.044 C 
BRANCH  21  23
HETATM   23  O   UNL     1      38.934  -9.584  12.552  1.00  0.00    -0.391 OA
HETATM   24  H   UNL     1      39.239 -10.506  12.557  1.00  0.00     0.210 HD
ENDBRANCH  21  23
ENDBRANCH  17  21
ENDBRANCH  12  15
ENDBRANCH   6  11
BRANCH   8  25
HETATM   25  C   UNL     1      39.404 -12.122   1.852  1.00  0.00     0.409 C 
HETATM   26  F   UNL     1      38.309 -12.499   2.546  1.00  0.00    -0.169 F 
HETATM   27  F   UNL     1      39.172 -10.851   1.427  1.00  0.00    -0.169 F 
HETATM   28  F   UNL     1      39.474 -12.889   0.744  1.00  0.00    -0.169 F 
ENDBRANCH   8  25
BRANCH   1  29
HETATM   29  C   UNL     1      41.716 -15.828   3.353  1.00  0.00    -0.035 A 
HETATM   30  C   UNL     1      41.899 -16.747   2.311  1.00  0.00     0.010 A 
HETATM   31  C   UNL     1      42.784 -17.820   2.457  1.00  0.00     0.007 A 
HETATM   32  C   UNL     1      43.495 -18.001   3.649  1.00  0.00    -0.062 A 
HETATM   33  C   UNL     1      44.468 -19.132   3.801  1.00  0.00     0.048 C 
HETATM   34  C   UNL     1      43.325 -17.080   4.687  1.00  0.00     0.007 A 
HETATM   35  C   UNL     1      42.440 -16.011   4.543  1.00  0.00     0.010 A 
ENDBRANCH   1  29
TORSDOF 6
ENDMDL
