MODEL 1
REMARK VINA RESULT:      -8.3      0.000      0.000
REMARK  5 active torsions:
REMARK  status: ('A' for Active; 'I' for Inactive)
REMARK    1  A    between atoms: C_4  and  C_5 
REMARK       I    between atoms: C_5  and  N_6 
REMARK    2  A    between atoms: N_6  and  C_7 
REMARK    3  A    between atoms: C_7  and  C_8 
REMARK    4  A    between atoms: C_8  and  C_9 
REMARK    5  A    between atoms: C_18  and  O_19 
ROOT
HETATM    1  C   UNL     1      40.230 -14.575   1.148  1.00  0.00     0.254 C 
HETATM    2  N   UNL     1      40.928 -15.762   1.244  1.00  0.00    -0.356 N 
HETATM    3  O   UNL     1      39.782 -13.977   2.123  1.00  0.00    -0.268 OA
HETATM    4  H   UNL     1      41.531 -16.021   0.472  1.00  0.00     0.162 HD
ENDROOT
BRANCH   1   5
HETATM    5  C   UNL     1      40.063 -13.985  -0.210  1.00  0.00     0.066 A 
HETATM    6  C   UNL     1      40.658 -12.759  -0.545  1.00  0.00     0.026 A 
HETATM    7  C   UNL     1      40.490 -12.210  -1.823  1.00  0.00    -0.060 A 
HETATM    8  C   UNL     1      41.160 -10.921  -2.199  1.00  0.00     0.048 C 
HETATM    9  C   UNL     1      39.736 -12.910  -2.774  1.00  0.00     0.016 A 
HETATM   10  C   UNL     1      39.138 -14.141  -2.465  1.00  0.00    -0.027 A 
HETATM   11  C   UNL     1      39.328 -14.682  -1.186  1.00  0.00     0.087 A 
HETATM   12  C   UNL     1      38.378 -14.884  -3.527  1.00  0.00     0.051 C 
BRANCH  11  13
HETATM   13  O   UNL     1      38.774 -15.915  -0.938  1.00  0.00    -0.359 OA
HETATM   14  H   UNL     1      39.501 -16.577  -0.923  1.00  0.00     0.218 HD
ENDBRANCH  11  13
ENDBRANCH   1   5
BRANCH   2  15
HETATM   15  C   UNL     1      41.239 -16.338   2.543  1.00  0.00     0.136 C 
BRANCH  15  16
HETATM   16  C   UNL     1      42.768 -16.433   2.827  1.00  0.00    -0.004 C 
HETATM   17  C   UNL     1      43.527 -15.897   1.591  1.00  0.00     0.021 C 
HETATM   18  C   UNL     1      43.092 -15.479   4.002  1.00  0.00     0.021 C 
BRANCH  16  19
HETATM   19  C   UNL     1      43.199 -17.890   3.077  1.00  0.00    -0.046 A 
HETATM   20  C   UNL     1      43.815 -18.251   4.288  1.00  0.00     0.027 A 
HETATM   21  C   UNL     1      44.201 -19.568   4.496  1.00  0.00     0.116 A 
HETATM   22  N   UNL     1      44.021 -20.552   3.594  1.00  0.00    -0.273 NA
HETATM   23  C   UNL     1      43.419 -20.204   2.441  1.00  0.00     0.116 A 
HETATM   24  C   UNL     1      43.000 -18.912   2.141  1.00  0.00     0.027 A 
ENDBRANCH  16  19
ENDBRANCH  15  16
ENDBRANCH   2  15
TORSDOF 5
ENDMDL
MODEL 2
REMARK VINA RESULT:      -8.3      0.804      2.331
REMARK  5 active torsions:
REMARK  status: ('A' for Active; 'I' for Inactive)
REMARK    1  A    between atoms: C_4  and  C_5 
REMARK       I    between atoms: C_5  and  N_6 
REMARK    2  A    between atoms: N_6  and  C_7 
REMARK    3  A    between atoms: C_7  and  C_8 
REMARK    4  A    between atoms: C_8  and  C_9 
REMARK    5  A    between atoms: C_18  and  O_19 
ROOT
HETATM    1  C   UNL     1      40.229 -14.592   1.177  1.00  0.00     0.254 C 
HETATM    2  N   UNL     1      40.947 -15.765   1.288  1.00  0.00    -0.356 N 
HETATM    3  O   UNL     1      39.760 -13.996   2.144  1.00  0.00    -0.268 OA
HETATM    4  H   UNL     1      41.562 -16.018   0.523  1.00  0.00     0.162 HD
ENDROOT
BRANCH   1   5
HETATM    5  C   UNL     1      40.063 -14.015  -0.186  1.00  0.00     0.066 A 
HETATM    6  C   UNL     1      39.322 -14.686  -1.171  1.00  0.00     0.026 A 
HETATM    7  C   UNL     1      39.176 -14.137  -2.452  1.00  0.00    -0.060 A 
HETATM    8  C   UNL     1      38.348 -14.829  -3.495  1.00  0.00     0.048 C 
HETATM    9  C   UNL     1      39.764 -12.897  -2.736  1.00  0.00     0.016 A 
HETATM   10  C   UNL     1      40.503 -12.204  -1.765  1.00  0.00    -0.027 A 
HETATM   11  C   UNL     1      40.627 -12.761  -0.484  1.00  0.00     0.087 A 
HETATM   12  C   UNL     1      41.077 -10.854  -2.092  1.00  0.00     0.051 C 
BRANCH  11  13
HETATM   13  O   UNL     1      41.311 -12.028   0.455  1.00  0.00    -0.359 OA
HETATM   14  H   UNL     1      42.175 -11.767   0.065  1.00  0.00     0.218 HD
ENDBRANCH  11  13
ENDBRANCH   1   5
BRANCH   2  15
HETATM   15  C   UNL     1      41.258 -16.326   2.593  1.00  0.00     0.136 C 
BRANCH  15  16
HETATM   16  C   UNL     1      42.786 -16.422   2.878  1.00  0.00    -0.004 C 
HETATM   17  C   UNL     1      43.546 -15.895   1.638  1.00  0.00     0.021 C 
HETATM   18  C   UNL     1      43.113 -15.462   4.047  1.00  0.00     0.021 C 
BRANCH  16  19
HETATM   19  C   UNL     1      43.215 -17.878   3.137  1.00  0.00    -0.046 A 
HETATM   20  C   UNL     1      43.014 -18.865   2.155  1.00  0.00     0.027 A 
HETATM   21  C   UNL     1      43.404 -20.173   2.407  1.00  0.00     0.116 A 
HETATM   22  N   UNL     1      43.977 -20.575   3.558  1.00  0.00    -0.273 NA
HETATM   23  C   UNL     1      44.179 -19.624   4.490  1.00  0.00     0.116 A 
HETATM   24  C   UNL     1      43.821 -18.291   4.330  1.00  0.00     0.027 A 
ENDBRANCH  16  19
ENDBRANCH  15  16
ENDBRANCH   2  15
TORSDOF 5
ENDMDL
MODEL 3
REMARK VINA RESULT:      -7.7      1.682      3.173
REMARK  5 active torsions:
REMARK  status: ('A' for Active; 'I' for Inactive)
REMARK    1  A    between atoms: C_4  and  C_5 
REMARK       I    between atoms: C_5  and  N_6 
REMARK    2  A    between atoms: N_6  and  C_7 
REMARK    3  A    between atoms: C_7  and  C_8 
REMARK    4  A    between atoms: C_8  and  C_9 
REMARK    5  A    between atoms: C_18  and  O_19 
ROOT
HETATM    1  C   UNL     1      40.215 -14.507   1.029  1.00  0.00     0.254 C 
HETATM    2  N   UNL     1      40.878 -15.710   1.150  1.00  0.00    -0.356 N 
HETATM    3  O   UNL     1      39.811 -13.861   1.993  1.00  0.00    -0.268 OA
HETATM    4  H   UNL     1      41.453 -16.015   0.374  1.00  0.00     0.162 HD
ENDROOT
BRANCH   1   5
HETATM    5  C   UNL     1      40.030 -13.961  -0.344  1.00  0.00     0.066 A 
HETATM    6  C   UNL     1      39.274 -14.653  -1.303  1.00  0.00     0.026 A 
HETATM    7  C   UNL     1      39.111 -14.133  -2.594  1.00  0.00    -0.060 A 
HETATM    8  C   UNL     1      38.268 -14.848  -3.609  1.00  0.00     0.048 C 
HETATM    9  C   UNL     1      39.696 -12.901  -2.914  1.00  0.00     0.016 A 
HETATM   10  C   UNL     1      40.449 -12.187  -1.970  1.00  0.00    -0.027 A 
HETATM   11  C   UNL     1      40.591 -12.714  -0.679  1.00  0.00     0.087 A 
HETATM   12  C   UNL     1      41.019 -10.845  -2.337  1.00  0.00     0.051 C 
BRANCH  11  13
HETATM   13  O   UNL     1      41.289 -11.961   0.233  1.00  0.00    -0.359 OA
HETATM   14  H   UNL     1      40.709 -11.220   0.521  1.00  0.00     0.218 HD
ENDBRANCH  11  13
ENDBRANCH   1   5
BRANCH   2  15
HETATM   15  C   UNL     1      41.207 -16.249   2.461  1.00  0.00     0.136 C 
BRANCH  15  16
HETATM   16  C   UNL     1      42.721 -16.569   2.637  1.00  0.00    -0.004 C 
HETATM   17  C   UNL     1      42.938 -18.074   2.355  1.00  0.00     0.021 C 
HETATM   18  C   UNL     1      43.499 -15.790   1.549  1.00  0.00     0.021 C 
BRANCH  16  19
HETATM   19  C   UNL     1      43.193 -16.263   4.071  1.00  0.00    -0.046 A 
HETATM   20  C   UNL     1      42.870 -15.038   4.680  1.00  0.00     0.027 A 
HETATM   21  C   UNL     1      43.306 -14.777   5.971  1.00  0.00     0.116 A 
HETATM   22  N   UNL     1      44.038 -15.640   6.703  1.00  0.00    -0.273 NA
HETATM   23  C   UNL     1      44.333 -16.818   6.120  1.00  0.00     0.116 A 
HETATM   24  C   UNL     1      43.943 -17.167   4.832  1.00  0.00     0.027 A 
ENDBRANCH  16  19
ENDBRANCH  15  16
ENDBRANCH   2  15
TORSDOF 5
ENDMDL
MODEL 4
REMARK VINA RESULT:      -7.6      1.607      2.482
REMARK  5 active torsions:
REMARK  status: ('A' for Active; 'I' for Inactive)
REMARK    1  A    between atoms: C_4  and  C_5 
REMARK       I    between atoms: C_5  and  N_6 
REMARK    2  A    between atoms: N_6  and  C_7 
REMARK    3  A    between atoms: C_7  and  C_8 
REMARK    4  A    between atoms: C_8  and  C_9 
REMARK    5  A    between atoms: C_18  and  O_19 
ROOT
HETATM    1  C   UNL     1      41.089 -13.681   0.675  1.00  0.00     0.254 C 
HETATM    2  N   UNL     1      41.466 -14.998   0.836  1.00  0.00    -0.356 N 
HETATM    3  O   UNL     1      41.664 -12.744   1.223  1.00  0.00    -0.268 OA
HETATM    4  H   UNL     1      41.177 -15.664   0.130  1.00  0.00     0.162 HD
ENDROOT
BRANCH   1   5
HETATM    5  C   UNL     1      39.954 -13.401  -0.248  1.00  0.00     0.066 A 
HETATM    6  C   UNL     1      39.693 -14.232  -1.348  1.00  0.00     0.026 A 
HETATM    7  C   UNL     1      38.627 -13.956  -2.214  1.00  0.00    -0.060 A 
HETATM    8  C   UNL     1      38.317 -14.867  -3.366  1.00  0.00     0.048 C 
HETATM    9  C   UNL     1      37.807 -12.849  -1.959  1.00  0.00     0.016 A 
HETATM   10  C   UNL     1      38.043 -12.008  -0.861  1.00  0.00    -0.027 A 
HETATM   11  C   UNL     1      39.106 -12.306   0.003  1.00  0.00     0.087 A 
HETATM   12  C   UNL     1      37.112 -10.859  -0.592  1.00  0.00     0.051 C 
BRANCH  11  13
HETATM   13  O   UNL     1      39.272 -11.493   1.097  1.00  0.00    -0.359 OA
HETATM   14  H   UNL     1      39.944 -10.812   0.870  1.00  0.00     0.218 HD
ENDBRANCH  11  13
ENDBRANCH   1   5
BRANCH   2  15
HETATM   15  C   UNL     1      42.640 -15.344   1.623  1.00  0.00     0.136 C 
BRANCH  15  16
HETATM   16  C   UNL     1      42.296 -15.951   3.015  1.00  0.00    -0.004 C 
HETATM   17  C   UNL     1      42.834 -14.998   4.108  1.00  0.00     0.021 C 
HETATM   18  C   UNL     1      40.754 -15.970   3.155  1.00  0.00     0.021 C 
BRANCH  16  19
HETATM   19  C   UNL     1      42.950 -17.332   3.199  1.00  0.00    -0.046 A 
HETATM   20  C   UNL     1      43.659 -17.633   4.375  1.00  0.00     0.027 A 
HETATM   21  C   UNL     1      44.245 -18.882   4.523  1.00  0.00     0.116 A 
HETATM   22  N   UNL     1      44.180 -19.854   3.593  1.00  0.00    -0.273 NA
HETATM   23  C   UNL     1      43.488 -19.567   2.474  1.00  0.00     0.116 A 
HETATM   24  C   UNL     1      42.870 -18.345   2.234  1.00  0.00     0.027 A 
ENDBRANCH  16  19
ENDBRANCH  15  16
ENDBRANCH   2  15
TORSDOF 5
ENDMDL
MODEL 5
REMARK VINA RESULT:      -7.5      2.409      7.769
REMARK  5 active torsions:
REMARK  status: ('A' for Active; 'I' for Inactive)
REMARK    1  A    between atoms: C_4  and  C_5 
REMARK       I    between atoms: C_5  and  N_6 
REMARK    2  A    between atoms: N_6  and  C_7 
REMARK    3  A    between atoms: C_7  and  C_8 
REMARK    4  A    between atoms: C_8  and  C_9 
REMARK    5  A    between atoms: C_18  and  O_19 
ROOT
HETATM    1  C   UNL     1      42.999 -15.823   2.631  1.00  0.00     0.254 C 
HETATM    2  N   UNL     1      42.055 -14.818   2.670  1.00  0.00    -0.356 N 
HETATM    3  O   UNL     1      43.642 -16.104   1.622  1.00  0.00    -0.268 OA
HETATM    4  H   UNL     1      41.811 -14.432   3.574  1.00  0.00     0.162 HD
ENDROOT
BRANCH   1   5
HETATM    5  C   UNL     1      43.268 -16.561   3.897  1.00  0.00     0.066 A 
HETATM    6  C   UNL     1      43.127 -15.934   5.144  1.00  0.00     0.026 A 
HETATM    7  C   UNL     1      43.388 -16.635   6.329  1.00  0.00    -0.060 A 
HETATM    8  C   UNL     1      43.197 -15.982   7.666  1.00  0.00     0.048 C 
HETATM    9  C   UNL     1      43.774 -17.980   6.257  1.00  0.00     0.016 A 
HETATM   10  C   UNL     1      43.913 -18.631   5.022  1.00  0.00    -0.027 A 
HETATM   11  C   UNL     1      43.635 -17.919   3.847  1.00  0.00     0.087 A 
HETATM   12  C   UNL     1      44.281 -20.088   4.988  1.00  0.00     0.051 C 
BRANCH  11  13
HETATM   13  O   UNL     1      43.729 -18.604   2.661  1.00  0.00    -0.359 OA
HETATM   14  H   UNL     1      43.075 -18.219   2.035  1.00  0.00     0.218 HD
ENDBRANCH  11  13
ENDBRANCH   1   5
BRANCH   2  15
HETATM   15  C   UNL     1      41.823 -13.971   1.510  1.00  0.00     0.136 C 
BRANCH  15  16
HETATM   16  C   UNL     1      40.361 -14.036   0.979  1.00  0.00    -0.004 C 
HETATM   17  C   UNL     1      39.837 -15.478   1.168  1.00  0.00     0.021 C 
HETATM   18  C   UNL     1      39.490 -13.120   1.873  1.00  0.00     0.021 C 
BRANCH  16  19
HETATM   19  C   UNL     1      40.294 -13.679  -0.518  1.00  0.00    -0.046 A 
HETATM   20  C   UNL     1      39.569 -14.488  -1.410  1.00  0.00     0.027 A 
HETATM   21  C   UNL     1      39.523 -14.154  -2.756  1.00  0.00     0.116 A 
HETATM   22  N   UNL     1      40.140 -13.079  -3.283  1.00  0.00    -0.273 NA
HETATM   23  C   UNL     1      40.822 -12.300  -2.422  1.00  0.00     0.116 A 
HETATM   24  C   UNL     1      40.928 -12.554  -1.060  1.00  0.00     0.027 A 
ENDBRANCH  16  19
ENDBRANCH  15  16
ENDBRANCH   2  15
TORSDOF 5
ENDMDL
MODEL 6
REMARK VINA RESULT:      -7.4      5.161      8.695
REMARK  5 active torsions:
REMARK  status: ('A' for Active; 'I' for Inactive)
REMARK    1  A    between atoms: C_4  and  C_5 
REMARK       I    between atoms: C_5  and  N_6 
REMARK    2  A    between atoms: N_6  and  C_7 
REMARK    3  A    between atoms: C_7  and  C_8 
REMARK    4  A    between atoms: C_8  and  C_9 
REMARK    5  A    between atoms: C_18  and  O_19 
ROOT
HETATM    1  C   UNL     1      43.511 -15.387   6.634  1.00  0.00     0.254 C 
HETATM    2  N   UNL     1      43.913 -14.117   6.274  1.00  0.00    -0.356 N 
HETATM    3  O   UNL     1      43.075 -15.664   7.750  1.00  0.00    -0.268 OA
HETATM    4  H   UNL     1      43.946 -13.893   5.286  1.00  0.00     0.162 HD
ENDROOT
BRANCH   1   5
HETATM    5  C   UNL     1      43.574 -16.449   5.592  1.00  0.00     0.066 A 
HETATM    6  C   UNL     1      43.857 -17.781   5.931  1.00  0.00     0.026 A 
HETATM    7  C   UNL     1      43.920 -18.771   4.942  1.00  0.00    -0.060 A 
HETATM    8  C   UNL     1      44.178 -20.204   5.305  1.00  0.00     0.048 C 
HETATM    9  C   UNL     1      43.677 -18.421   3.607  1.00  0.00     0.016 A 
HETATM   10  C   UNL     1      43.385 -17.098   3.244  1.00  0.00    -0.027 A 
HETATM   11  C   UNL     1      43.312 -16.122   4.248  1.00  0.00     0.087 A 
HETATM   12  C   UNL     1      43.083 -16.771   1.809  1.00  0.00     0.051 C 
BRANCH  11  13
HETATM   13  O   UNL     1      42.970 -14.849   3.862  1.00  0.00    -0.359 OA
HETATM   14  H   UNL     1      42.349 -14.919   3.102  1.00  0.00     0.218 HD
ENDBRANCH  11  13
ENDBRANCH   1   5
BRANCH   2  15
HETATM   15  C   UNL     1      43.766 -13.001   7.195  1.00  0.00     0.136 C 
BRANCH  15  16
HETATM   16  C   UNL     1      43.527 -11.638   6.482  1.00  0.00    -0.004 C 
HETATM   17  C   UNL     1      44.112 -11.725   5.053  1.00  0.00     0.021 C 
HETATM   18  C   UNL     1      41.998 -11.444   6.331  1.00  0.00     0.021 C 
BRANCH  16  19
HETATM   19  C   UNL     1      44.223 -10.486   7.231  1.00  0.00    -0.046 A 
HETATM   20  C   UNL     1      45.623 -10.463   7.355  1.00  0.00     0.027 A 
HETATM   21  C   UNL     1      46.234  -9.420   8.036  1.00  0.00     0.116 A 
HETATM   22  N   UNL     1      45.562  -8.399   8.602  1.00  0.00    -0.273 NA
HETATM   23  C   UNL     1      44.222  -8.418   8.468  1.00  0.00     0.116 A 
HETATM   24  C   UNL     1      43.521  -9.420   7.807  1.00  0.00     0.027 A 
ENDBRANCH  16  19
ENDBRANCH  15  16
ENDBRANCH   2  15
TORSDOF 5
ENDMDL
MODEL 7
REMARK VINA RESULT:      -7.4      5.314      8.659
REMARK  5 active torsions:
REMARK  status: ('A' for Active; 'I' for Inactive)
REMARK    1  A    between atoms: C_4  and  C_5 
REMARK       I    between atoms: C_5  and  N_6 
REMARK    2  A    between atoms: N_6  and  C_7 
REMARK    3  A    between atoms: C_7  and  C_8 
REMARK    4  A    between atoms: C_8  and  C_9 
REMARK    5  A    between atoms: C_18  and  O_19 
ROOT
HETATM    1  C   UNL     1      43.092 -15.165   6.433  1.00  0.00     0.254 C 
HETATM    2  N   UNL     1      43.756 -13.967   6.264  1.00  0.00    -0.356 N 
HETATM    3  O   UNL     1      42.345 -15.392   7.382  1.00  0.00    -0.268 OA
HETATM    4  H   UNL     1      44.078 -13.732   5.333  1.00  0.00     0.162 HD
ENDROOT
BRANCH   1   5
HETATM    5  C   UNL     1      43.269 -16.202   5.378  1.00  0.00     0.066 A 
HETATM    6  C   UNL     1      43.152 -15.879   4.018  1.00  0.00     0.026 A 
HETATM    7  C   UNL     1      43.314 -16.863   3.034  1.00  0.00    -0.060 A 
HETATM    8  C   UNL     1      43.234 -16.514   1.577  1.00  0.00     0.048 C 
HETATM    9  C   UNL     1      43.615 -18.176   3.423  1.00  0.00     0.016 A 
HETATM   10  C   UNL     1      43.744 -18.521   4.776  1.00  0.00    -0.027 A 
HETATM   11  C   UNL     1      43.593 -17.521   5.747  1.00  0.00     0.087 A 
HETATM   12  C   UNL     1      44.116 -19.928   5.151  1.00  0.00     0.051 C 
BRANCH  11  13
HETATM   13  O   UNL     1      43.781 -17.886   7.058  1.00  0.00    -0.359 OA
HETATM   14  H   UNL     1      44.467 -18.590   7.081  1.00  0.00     0.218 HD
ENDBRANCH  11  13
ENDBRANCH   1   5
BRANCH   2  15
HETATM   15  C   UNL     1      43.539 -12.861   7.183  1.00  0.00     0.136 C 
BRANCH  15  16
HETATM   16  C   UNL     1      43.375 -11.487   6.469  1.00  0.00    -0.004 C 
HETATM   17  C   UNL     1      43.911 -11.620   5.025  1.00  0.00     0.021 C 
HETATM   18  C   UNL     1      41.860 -11.187   6.361  1.00  0.00     0.021 C 
BRANCH  16  19
HETATM   19  C   UNL     1      44.171 -10.384   7.191  1.00  0.00    -0.046 A 
HETATM   20  C   UNL     1      43.503  -9.313   7.811  1.00  0.00     0.027 A 
HETATM   21  C   UNL     1      44.236  -8.327   8.454  1.00  0.00     0.116 A 
HETATM   22  N   UNL     1      45.581  -8.322   8.528  1.00  0.00    -0.273 NA
HETATM   23  C   UNL     1      46.216  -9.356   7.945  1.00  0.00     0.116 A 
HETATM   24  C   UNL     1      45.569 -10.389   7.277  1.00  0.00     0.027 A 
ENDBRANCH  16  19
ENDBRANCH  15  16
ENDBRANCH   2  15
TORSDOF 5
ENDMDL
MODEL 8
REMARK VINA RESULT:      -7.4      2.124      7.347
REMARK  5 active torsions:
REMARK  status: ('A' for Active; 'I' for Inactive)
REMARK    1  A    between atoms: C_4  and  C_5 
REMARK       I    between atoms: C_5  and  N_6 
REMARK    2  A    between atoms: N_6  and  C_7 
REMARK    3  A    between atoms: C_7  and  C_8 
REMARK    4  A    between atoms: C_8  and  C_9 
REMARK    5  A    between atoms: C_18  and  O_19 
ROOT
HETATM    1  C   UNL     1      40.577 -15.388   2.468  1.00  0.00     0.254 C 
HETATM    2  N   UNL     1      40.750 -14.021   2.402  1.00  0.00    -0.356 N 
HETATM    3  O   UNL     1      39.577 -15.962   2.044  1.00  0.00    -0.268 OA
HETATM    4  H   UNL     1      41.695 -13.660   2.462  1.00  0.00     0.162 HD
ENDROOT
BRANCH   1   5
HETATM    5  C   UNL     1      41.689 -16.194   3.046  1.00  0.00     0.066 A 
HETATM    6  C   UNL     1      42.148 -17.357   2.409  1.00  0.00     0.026 A 
HETATM    7  C   UNL     1      43.191 -18.110   2.964  1.00  0.00    -0.060 A 
HETATM    8  C   UNL     1      43.714 -19.330   2.264  1.00  0.00     0.048 C 
HETATM    9  C   UNL     1      43.788 -17.679   4.155  1.00  0.00     0.016 A 
HETATM   10  C   UNL     1      43.352 -16.515   4.807  1.00  0.00    -0.027 A 
HETATM   11  C   UNL     1      42.317 -15.765   4.230  1.00  0.00     0.087 A 
HETATM   12  C   UNL     1      44.050 -16.058   6.056  1.00  0.00     0.051 C 
BRANCH  11  13
HETATM   13  O   UNL     1      41.954 -14.603   4.867  1.00  0.00    -0.359 OA
HETATM   14  H   UNL     1      41.150 -14.789   5.402  1.00  0.00     0.218 HD
ENDBRANCH  11  13
ENDBRANCH   1   5
BRANCH   2  15
HETATM   15  C   UNL     1      39.766 -13.178   1.741  1.00  0.00     0.136 C 
BRANCH  15  16
HETATM   16  C   UNL     1      40.399 -12.067   0.853  1.00  0.00    -0.004 C 
HETATM   17  C   UNL     1      39.500 -10.811   0.930  1.00  0.00     0.021 C 
HETATM   18  C   UNL     1      41.763 -11.682   1.475  1.00  0.00     0.021 C 
BRANCH  16  19
HETATM   19  C   UNL     1      40.496 -12.515  -0.617  1.00  0.00    -0.046 A 
HETATM   20  C   UNL     1      39.917 -13.727  -1.031  1.00  0.00     0.027 A 
HETATM   21  C   UNL     1      40.016 -14.117  -2.360  1.00  0.00     0.116 A 
HETATM   22  N   UNL     1      40.647 -13.395  -3.306  1.00  0.00    -0.273 NA
HETATM   23  C   UNL     1      41.189 -12.228  -2.908  1.00  0.00     0.116 A 
HETATM   24  C   UNL     1      41.142 -11.756  -1.601  1.00  0.00     0.027 A 
ENDBRANCH  16  19
ENDBRANCH  15  16
ENDBRANCH   2  15
TORSDOF 5
ENDMDL
MODEL 9
REMARK VINA RESULT:      -7.3      1.828      3.401
REMARK  5 active torsions:
REMARK  status: ('A' for Active; 'I' for Inactive)
REMARK    1  A    between atoms: C_4  and  C_5 
REMARK       I    between atoms: C_5  and  N_6 
REMARK    2  A    between atoms: N_6  and  C_7 
REMARK    3  A    between atoms: C_7  and  C_8 
REMARK    4  A    between atoms: C_8  and  C_9 
REMARK    5  A    between atoms: C_18  and  O_19 
ROOT
HETATM    1  C   UNL     1      40.141 -14.397   0.984  1.00  0.00     0.254 C 
HETATM    2  N   UNL     1      40.857 -15.567   1.135  1.00  0.00    -0.356 N 
HETATM    3  O   UNL     1      39.684 -13.761   1.931  1.00  0.00    -0.268 OA
HETATM    4  H   UNL     1      41.464 -15.853   0.376  1.00  0.00     0.162 HD
ENDROOT
BRANCH   1   5
HETATM    5  C   UNL     1      39.964 -13.875  -0.400  1.00  0.00     0.066 A 
HETATM    6  C   UNL     1      40.530 -12.651  -0.789  1.00  0.00     0.026 A 
HETATM    7  C   UNL     1      40.353 -12.166  -2.092  1.00  0.00    -0.060 A 
HETATM    8  C   UNL     1      40.992 -10.880  -2.526  1.00  0.00     0.048 C 
HETATM    9  C   UNL     1      39.619 -12.927  -3.012  1.00  0.00     0.016 A 
HETATM   10  C   UNL     1      39.051 -14.157  -2.648  1.00  0.00    -0.027 A 
HETATM   11  C   UNL     1      39.250 -14.634  -1.345  1.00  0.00     0.087 A 
HETATM   12  C   UNL     1      38.314 -14.968  -3.676  1.00  0.00     0.051 C 
BRANCH  11  13
HETATM   13  O   UNL     1      38.726 -15.867  -1.041  1.00  0.00    -0.359 OA
HETATM   14  H   UNL     1      39.083 -16.516  -1.688  1.00  0.00     0.218 HD
ENDBRANCH  11  13
ENDBRANCH   1   5
BRANCH   2  15
HETATM   15  C   UNL     1      41.178 -16.076   2.460  1.00  0.00     0.136 C 
BRANCH  15  16
HETATM   16  C   UNL     1      42.678 -15.906   2.841  1.00  0.00    -0.004 C 
HETATM   17  C   UNL     1      43.061 -17.033   3.829  1.00  0.00     0.021 C 
HETATM   18  C   UNL     1      43.521 -16.126   1.561  1.00  0.00     0.021 C 
BRANCH  16  19
HETATM   19  C   UNL     1      42.931 -14.548   3.520  1.00  0.00    -0.046 A 
HETATM   20  C   UNL     1      42.894 -14.435   4.921  1.00  0.00     0.027 A 
HETATM   21  C   UNL     1      43.121 -13.202   5.516  1.00  0.00     0.116 A 
HETATM   22  N   UNL     1      43.382 -12.075   4.828  1.00  0.00    -0.273 NA
HETATM   23  C   UNL     1      43.431 -12.190   3.487  1.00  0.00     0.116 A 
HETATM   24  C   UNL     1      43.215 -13.380   2.801  1.00  0.00     0.027 A 
ENDBRANCH  16  19
ENDBRANCH  15  16
ENDBRANCH   2  15
TORSDOF 5
ENDMDL
MODEL 10
REMARK VINA RESULT:      -7.3      3.338      4.079
REMARK  5 active torsions:
REMARK  status: ('A' for Active; 'I' for Inactive)
REMARK    1  A    between atoms: C_4  and  C_5 
REMARK       I    between atoms: C_5  and  N_6 
REMARK    2  A    between atoms: N_6  and  C_7 
REMARK    3  A    between atoms: C_7  and  C_8 
REMARK    4  A    between atoms: C_8  and  C_9 
REMARK    5  A    between atoms: C_18  and  O_19 
ROOT
HETATM    1  C   UNL     1      40.566 -14.391   4.420  1.00  0.00     0.254 C 
HETATM    2  N   UNL     1      41.002 -15.190   3.383  1.00  0.00    -0.356 N 
HETATM    3  O   UNL     1      40.457 -14.790   5.577  1.00  0.00    -0.268 OA
HETATM    4  H   UNL     1      41.371 -14.734   2.557  1.00  0.00     0.162 HD
ENDROOT
BRANCH   1   5
HETATM    5  C   UNL     1      40.260 -12.967   4.108  1.00  0.00     0.066 A 
HETATM    6  C   UNL     1      40.995 -11.924   4.692  1.00  0.00     0.026 A 
HETATM    7  C   UNL     1      40.695 -10.588   4.396  1.00  0.00    -0.060 A 
HETATM    8  C   UNL     1      41.507  -9.470   4.983  1.00  0.00     0.048 C 
HETATM    9  C   UNL     1      39.663 -10.302   3.492  1.00  0.00     0.016 A 
HETATM   10  C   UNL     1      38.920 -11.328   2.890  1.00  0.00    -0.027 A 
HETATM   11  C   UNL     1      39.242 -12.659   3.187  1.00  0.00     0.087 A 
HETATM   12  C   UNL     1      37.854 -10.982   1.889  1.00  0.00     0.051 C 
BRANCH  11  13
HETATM   13  O   UNL     1      38.529 -13.637   2.536  1.00  0.00    -0.359 OA
HETATM   14  H   UNL     1      39.117 -14.417   2.423  1.00  0.00     0.218 HD
ENDBRANCH  11  13
ENDBRANCH   1   5
BRANCH   2  15
HETATM   15  C   UNL     1      41.437 -16.556   3.629  1.00  0.00     0.136 C 
BRANCH  15  16
HETATM   16  C   UNL     1      42.961 -16.771   3.393  1.00  0.00    -0.004 C 
HETATM   17  C   UNL     1      43.342 -16.118   2.044  1.00  0.00     0.021 C 
HETATM   18  C   UNL     1      43.726 -16.002   4.497  1.00  0.00     0.021 C 
BRANCH  16  19
HETATM   19  C   UNL     1      43.310 -18.270   3.331  1.00  0.00    -0.046 A 
HETATM   20  C   UNL     1      43.127 -18.994   2.140  1.00  0.00     0.027 A 
HETATM   21  C   UNL     1      43.444 -20.345   2.103  1.00  0.00     0.116 A 
HETATM   22  N   UNL     1      43.927 -21.030   3.157  1.00  0.00    -0.273 NA
HETATM   23  C   UNL     1      44.114 -20.329   4.292  1.00  0.00     0.116 A 
HETATM   24  C   UNL     1      43.824 -18.976   4.426  1.00  0.00     0.027 A 
ENDBRANCH  16  19
ENDBRANCH  15  16
ENDBRANCH   2  15
TORSDOF 5
ENDMDL
