MODEL 1
REMARK VINA RESULT:      -9.9      0.000      0.000
REMARK  7 active torsions:
REMARK  status: ('A' for Active; 'I' for Inactive)
REMARK    1  A    between atoms: C_4  and  N_5 
REMARK    2  A    between atoms: C_6  and  S_7 
REMARK    3  A    between atoms: S_7  and  C_8 
REMARK    4  A    between atoms: C_8  and  C_9 
REMARK       I    between atoms: C_9  and  N_10 
REMARK    5  A    between atoms: C_12  and  C_13 
REMARK    6  A    between atoms: C_13  and  N_14 
REMARK       I    between atoms: N_14  and  C_15 
REMARK       I    between atoms: C_15  and  N_16 
REMARK    7  A    between atoms: N_16  and  C_17 
ROOT
HETATM    1  C   UNL     1      41.565  -9.790   6.355  1.00  0.00     0.229 C 
HETATM    2  N   UNL     1      42.314 -10.948   6.064  1.00  0.00    -0.351 N 
HETATM    3  C   UNL     1      41.582 -11.978   5.318  1.00  0.00     0.132 C 
HETATM    4  C   UNL     1      42.509 -13.033   4.703  1.00  0.00     0.021 C 
HETATM    5  C   UNL     1      43.322 -13.678   5.831  1.00  0.00     0.009 C 
HETATM    6  C   UNL     1      44.165 -12.603   6.501  1.00  0.00     0.020 C 
HETATM    7  C   UNL     1      43.325 -11.432   6.999  1.00  0.00     0.126 C 
HETATM    8  O   UNL     1      40.377  -9.720   6.014  1.00  0.00    -0.273 OA
ENDROOT
BRANCH   1   9
HETATM    9  C   UNL     1      42.265  -8.524   6.844  1.00  0.00     0.185 C 
BRANCH   9  10
HETATM   10  S   UNL     1      42.152  -8.037   8.573  1.00  0.00    -0.082 SA
BRANCH  10  11
HETATM   11  C   UNL     1      43.614  -8.635   9.272  1.00  0.00     0.173 A 
HETATM   12  N   UNL     1      43.796  -9.065  10.594  1.00  0.00    -0.300 N 
HETATM   13  C   UNL     1      45.106  -9.535  10.606  1.00  0.00     0.118 A 
HETATM   14  C   UNL     1      45.621  -9.342   9.350  1.00  0.00     0.137 A 
HETATM   15  N   UNL     1      44.692  -8.783   8.536  1.00  0.00    -0.235 NA
BRANCH  12  16
HETATM   16  C   UNL     1      42.936  -9.032  11.758  1.00  0.00     0.042 A 
HETATM   17  C   UNL     1      41.793  -9.832  11.886  1.00  0.00     0.037 A 
HETATM   18  C   UNL     1      40.950  -9.749  13.010  1.00  0.00    -0.059 A 
HETATM   19  C   UNL     1      39.756 -10.653  13.131  1.00  0.00     0.048 C 
HETATM   20  C   UNL     1      41.263  -8.862  14.038  1.00  0.00     0.013 A 
HETATM   21  C   UNL     1      42.389  -8.044  13.942  1.00  0.00    -0.059 A 
HETATM   22  C   UNL     1      43.222  -8.142  12.814  1.00  0.00     0.037 A 
HETATM   23  C   UNL     1      42.723  -7.104  15.065  1.00  0.00     0.048 C 
ENDBRANCH  12  16
ENDBRANCH  10  11
ENDBRANCH   9  10
ENDBRANCH   1   9
BRANCH   4  24
HETATM   24  C   UNL     1      41.711 -14.057   3.887  1.00  0.00     0.130 C 
BRANCH  24  25
HETATM   25  N   UNL     1      42.465 -14.532   2.736  1.00  0.00    -0.342 N 
HETATM   26  C   UNL     1      43.024 -15.748   2.487  1.00  0.00     0.320 C 
HETATM   27  N   UNL     1      42.721 -16.742   3.373  1.00  0.00    -0.309 N 
HETATM   28  O   UNL     1      43.738 -15.842   1.494  1.00  0.00    -0.247 OA
HETATM   29  H   UNL     1      42.070 -16.506   4.103  1.00  0.00     0.170 HD
HETATM   30  H   UNL     1      42.783 -13.855   2.052  1.00  0.00     0.164 HD
BRANCH  27  31
HETATM   31  C   UNL     1      43.156 -18.085   3.337  1.00  0.00     0.039 A 
HETATM   32  C   UNL     1      43.881 -18.700   4.361  1.00  0.00     0.071 A 
HETATM   33  C   UNL     1      44.272 -20.030   4.230  1.00  0.00     0.118 A 
HETATM   34  F   UNL     1      44.967 -20.613   5.216  1.00  0.00    -0.206 F 
HETATM   35  C   UNL     1      43.958 -20.767   3.095  1.00  0.00     0.042 A 
HETATM   36  C   UNL     1      43.234 -20.166   2.071  1.00  0.00     0.005 A 
HETATM   37  C   UNL     1      42.834 -18.831   2.193  1.00  0.00     0.030 A 
ENDBRANCH  27  31
ENDBRANCH  24  25
ENDBRANCH   4  24
TORSDOF 7
ENDMDL
MODEL 2
REMARK VINA RESULT:      -9.8      2.158      3.289
REMARK  7 active torsions:
REMARK  status: ('A' for Active; 'I' for Inactive)
REMARK    1  A    between atoms: C_4  and  N_5 
REMARK    2  A    between atoms: C_6  and  S_7 
REMARK    3  A    between atoms: S_7  and  C_8 
REMARK    4  A    between atoms: C_8  and  C_9 
REMARK       I    between atoms: C_9  and  N_10 
REMARK    5  A    between atoms: C_12  and  C_13 
REMARK    6  A    between atoms: C_13  and  N_14 
REMARK       I    between atoms: N_14  and  C_15 
REMARK       I    between atoms: C_15  and  N_16 
REMARK    7  A    between atoms: N_16  and  C_17 
ROOT
HETATM    1  C   UNL     1      41.128  -9.548   5.574  1.00  0.00     0.229 C 
HETATM    2  N   UNL     1      42.117 -10.549   5.633  1.00  0.00    -0.351 N 
HETATM    3  C   UNL     1      42.006 -11.580   4.594  1.00  0.00     0.132 C 
HETATM    4  C   UNL     1      43.281 -12.420   4.458  1.00  0.00     0.021 C 
HETATM    5  C   UNL     1      43.581 -13.070   5.814  1.00  0.00     0.009 C 
HETATM    6  C   UNL     1      43.815 -11.970   6.839  1.00  0.00     0.020 C 
HETATM    7  C   UNL     1      42.649 -10.991   6.919  1.00  0.00     0.126 C 
HETATM    8  O   UNL     1      40.240  -9.605   4.712  1.00  0.00    -0.273 OA
ENDROOT
BRANCH   1   9
HETATM    9  C   UNL     1      41.288  -8.260   6.378  1.00  0.00     0.185 C 
BRANCH   9  10
HETATM   10  S   UNL     1      40.287  -7.981   7.848  1.00  0.00    -0.082 SA
BRANCH  10  11
HETATM   11  C   UNL     1      41.134  -6.741   8.702  1.00  0.00     0.173 A 
HETATM   12  N   UNL     1      42.397  -6.848   9.302  1.00  0.00    -0.300 N 
HETATM   13  C   UNL     1      42.654  -5.557   9.753  1.00  0.00     0.118 A 
HETATM   14  C   UNL     1      41.564  -4.789   9.436  1.00  0.00     0.137 A 
HETATM   15  N   UNL     1      40.631  -5.530   8.789  1.00  0.00    -0.235 NA
BRANCH  12  16
HETATM   16  C   UNL     1      43.285  -7.972   9.511  1.00  0.00     0.042 A 
HETATM   17  C   UNL     1      43.092  -8.919  10.526  1.00  0.00     0.037 A 
HETATM   18  C   UNL     1      43.994  -9.978  10.735  1.00  0.00    -0.059 A 
HETATM   19  C   UNL     1      43.731 -10.998  11.807  1.00  0.00     0.048 C 
HETATM   20  C   UNL     1      45.104 -10.108   9.902  1.00  0.00     0.013 A 
HETATM   21  C   UNL     1      45.333  -9.181   8.886  1.00  0.00    -0.059 A 
HETATM   22  C   UNL     1      44.420  -8.130   8.689  1.00  0.00     0.037 A 
HETATM   23  C   UNL     1      46.525  -9.342   7.986  1.00  0.00     0.048 C 
ENDBRANCH  12  16
ENDBRANCH  10  11
ENDBRANCH   9  10
ENDBRANCH   1   9
BRANCH   4  24
HETATM   24  C   UNL     1      43.145 -13.446   3.327  1.00  0.00     0.130 C 
BRANCH  24  25
HETATM   25  N   UNL     1      42.038 -14.362   3.562  1.00  0.00    -0.342 N 
HETATM   26  C   UNL     1      41.999 -15.723   3.549  1.00  0.00     0.320 C 
HETATM   27  N   UNL     1      43.204 -16.358   3.449  1.00  0.00    -0.309 N 
HETATM   28  O   UNL     1      40.895 -16.251   3.635  1.00  0.00    -0.247 OA
HETATM   29  H   UNL     1      44.020 -15.769   3.445  1.00  0.00     0.170 HD
HETATM   30  H   UNL     1      41.097 -13.986   3.594  1.00  0.00     0.164 HD
BRANCH  27  31
HETATM   31  C   UNL     1      43.441 -17.750   3.427  1.00  0.00     0.039 A 
HETATM   32  C   UNL     1      43.206 -18.565   2.319  1.00  0.00     0.071 A 
HETATM   33  C   UNL     1      43.465 -19.932   2.397  1.00  0.00     0.118 A 
HETATM   34  F   UNL     1      43.237 -20.708   1.329  1.00  0.00    -0.206 F 
HETATM   35  C   UNL     1      43.954 -20.509   3.562  1.00  0.00     0.042 A 
HETATM   36  C   UNL     1      44.194 -19.705   4.672  1.00  0.00     0.005 A 
HETATM   37  C   UNL     1      43.940 -18.332   4.603  1.00  0.00     0.030 A 
ENDBRANCH  27  31
ENDBRANCH  24  25
ENDBRANCH   4  24
TORSDOF 7
ENDMDL
MODEL 3
REMARK VINA RESULT:      -9.7      3.803     11.559
REMARK  7 active torsions:
REMARK  status: ('A' for Active; 'I' for Inactive)
REMARK    1  A    between atoms: C_4  and  N_5 
REMARK    2  A    between atoms: C_6  and  S_7 
REMARK    3  A    between atoms: S_7  and  C_8 
REMARK    4  A    between atoms: C_8  and  C_9 
REMARK       I    between atoms: C_9  and  N_10 
REMARK    5  A    between atoms: C_12  and  C_13 
REMARK    6  A    between atoms: C_13  and  N_14 
REMARK       I    between atoms: N_14  and  C_15 
REMARK       I    between atoms: C_15  and  N_16 
REMARK    7  A    between atoms: N_16  and  C_17 
ROOT
HETATM    1  C   UNL     1      42.146 -11.525   5.723  1.00  0.00     0.229 C 
HETATM    2  N   UNL     1      43.369 -11.439   6.417  1.00  0.00    -0.351 N 
HETATM    3  C   UNL     1      43.299 -10.713   7.691  1.00  0.00     0.132 C 
HETATM    4  C   UNL     1      44.527 -10.957   8.577  1.00  0.00     0.021 C 
HETATM    5  C   UNL     1      45.777 -10.533   7.798  1.00  0.00     0.009 C 
HETATM    6  C   UNL     1      45.886 -11.393   6.547  1.00  0.00     0.020 C 
HETATM    7  C   UNL     1      44.629 -11.330   5.687  1.00  0.00     0.126 C 
HETATM    8  O   UNL     1      41.133 -10.983   6.185  1.00  0.00    -0.273 OA
ENDROOT
BRANCH   1   9
HETATM    9  C   UNL     1      41.990 -12.497   4.557  1.00  0.00     0.185 C 
BRANCH   9  10
HETATM   10  S   UNL     1      40.677 -13.728   4.572  1.00  0.00    -0.082 SA
BRANCH  10  11
HETATM   11  C   UNL     1      40.616 -14.296   2.941  1.00  0.00     0.173 A 
HETATM   12  N   UNL     1      41.240 -15.443   2.429  1.00  0.00    -0.300 N 
HETATM   13  C   UNL     1      40.793 -15.495   1.112  1.00  0.00     0.118 A 
HETATM   14  C   UNL     1      39.983 -14.407   0.912  1.00  0.00     0.137 A 
HETATM   15  N   UNL     1      39.883 -13.673   2.047  1.00  0.00    -0.235 NA
BRANCH  12  16
HETATM   16  C   UNL     1      42.175 -16.384   3.006  1.00  0.00     0.042 A 
HETATM   17  C   UNL     1      42.903 -16.119   4.174  1.00  0.00     0.037 A 
HETATM   18  C   UNL     1      43.838 -17.035   4.690  1.00  0.00    -0.059 A 
HETATM   19  C   UNL     1      44.569 -16.733   5.968  1.00  0.00     0.048 C 
HETATM   20  C   UNL     1      44.040 -18.250   4.039  1.00  0.00     0.013 A 
HETATM   21  C   UNL     1      43.339 -18.546   2.870  1.00  0.00    -0.059 A 
HETATM   22  C   UNL     1      42.406 -17.621   2.369  1.00  0.00     0.037 A 
HETATM   23  C   UNL     1      43.554 -19.866   2.187  1.00  0.00     0.048 C 
ENDBRANCH  12  16
ENDBRANCH  10  11
ENDBRANCH   9  10
ENDBRANCH   1   9
BRANCH   4  24
HETATM   24  C   UNL     1      44.389 -10.228   9.919  1.00  0.00     0.130 C 
BRANCH  24  25
HETATM   25  N   UNL     1      43.038 -10.330  10.450  1.00  0.00    -0.342 N 
HETATM   26  C   UNL     1      42.405  -9.591  11.402  1.00  0.00     0.320 C 
HETATM   27  N   UNL     1      43.067  -8.479  11.839  1.00  0.00    -0.309 N 
HETATM   28  O   UNL     1      41.303  -9.982  11.773  1.00  0.00    -0.247 OA
HETATM   29  H   UNL     1      43.941  -8.273  11.385  1.00  0.00     0.170 HD
HETATM   30  H   UNL     1      42.489 -11.152  10.225  1.00  0.00     0.164 HD
BRANCH  27  31
HETATM   31  C   UNL     1      42.630  -7.543  12.803  1.00  0.00     0.039 A 
HETATM   32  C   UNL     1      42.895  -7.647  14.170  1.00  0.00     0.071 A 
HETATM   33  C   UNL     1      42.414  -6.676  15.044  1.00  0.00     0.118 A 
HETATM   34  F   UNL     1      42.673  -6.782  16.355  1.00  0.00    -0.206 F 
HETATM   35  C   UNL     1      41.669  -5.597  14.586  1.00  0.00     0.042 A 
HETATM   36  C   UNL     1      41.402  -5.482  13.226  1.00  0.00     0.005 A 
HETATM   37  C   UNL     1      41.882  -6.451  12.339  1.00  0.00     0.030 A 
ENDBRANCH  27  31
ENDBRANCH  24  25
ENDBRANCH   4  24
TORSDOF 7
ENDMDL
MODEL 4
REMARK VINA RESULT:      -9.6      3.757     11.236
REMARK  7 active torsions:
REMARK  status: ('A' for Active; 'I' for Inactive)
REMARK    1  A    between atoms: C_4  and  N_5 
REMARK    2  A    between atoms: C_6  and  S_7 
REMARK    3  A    between atoms: S_7  and  C_8 
REMARK    4  A    between atoms: C_8  and  C_9 
REMARK       I    between atoms: C_9  and  N_10 
REMARK    5  A    between atoms: C_12  and  C_13 
REMARK    6  A    between atoms: C_13  and  N_14 
REMARK       I    between atoms: N_14  and  C_15 
REMARK       I    between atoms: C_15  and  N_16 
REMARK    7  A    between atoms: N_16  and  C_17 
ROOT
HETATM    1  C   UNL     1      42.716 -12.457   5.901  1.00  0.00     0.229 C 
HETATM    2  N   UNL     1      42.800 -11.124   6.349  1.00  0.00    -0.351 N 
HETATM    3  C   UNL     1      43.706 -10.918   7.485  1.00  0.00     0.132 C 
HETATM    4  C   UNL     1      44.057  -9.440   7.700  1.00  0.00     0.021 C 
HETATM    5  C   UNL     1      42.755  -8.661   7.917  1.00  0.00     0.009 C 
HETATM    6  C   UNL     1      41.894  -8.793   6.669  1.00  0.00     0.020 C 
HETATM    7  C   UNL     1      41.634 -10.248   6.294  1.00  0.00     0.126 C 
HETATM    8  O   UNL     1      43.353 -13.347   6.481  1.00  0.00    -0.273 OA
ENDROOT
BRANCH   1   9
HETATM    9  C   UNL     1      42.069 -12.776   4.556  1.00  0.00     0.185 C 
BRANCH   9  10
HETATM   10  S   UNL     1      40.651 -13.882   4.473  1.00  0.00    -0.082 SA
BRANCH  10  11
HETATM   11  C   UNL     1      40.640 -14.427   2.834  1.00  0.00     0.173 A 
HETATM   12  N   UNL     1      41.282 -15.564   2.323  1.00  0.00    -0.300 N 
HETATM   13  C   UNL     1      40.874 -15.598   0.993  1.00  0.00     0.118 A 
HETATM   14  C   UNL     1      40.066 -14.510   0.785  1.00  0.00     0.137 A 
HETATM   15  N   UNL     1      39.931 -13.793   1.927  1.00  0.00    -0.235 NA
BRANCH  12  16
HETATM   16  C   UNL     1      42.204 -16.510   2.913  1.00  0.00     0.042 A 
HETATM   17  C   UNL     1      42.905 -16.256   4.101  1.00  0.00     0.037 A 
HETATM   18  C   UNL     1      43.828 -17.176   4.630  1.00  0.00    -0.059 A 
HETATM   19  C   UNL     1      44.529 -16.886   5.927  1.00  0.00     0.048 C 
HETATM   20  C   UNL     1      44.045 -18.385   3.972  1.00  0.00     0.013 A 
HETATM   21  C   UNL     1      43.371 -18.670   2.785  1.00  0.00    -0.059 A 
HETATM   22  C   UNL     1      42.450 -17.741   2.271  1.00  0.00     0.037 A 
HETATM   23  C   UNL     1      43.603 -19.985   2.096  1.00  0.00     0.048 C 
ENDBRANCH  12  16
ENDBRANCH  10  11
ENDBRANCH   9  10
ENDBRANCH   1   9
BRANCH   4  24
HETATM   24  C   UNL     1      45.047  -9.274   8.859  1.00  0.00     0.130 C 
BRANCH  24  25
HETATM   25  N   UNL     1      44.867 -10.302   9.873  1.00  0.00    -0.342 N 
HETATM   26  C   UNL     1      44.252 -10.248  11.086  1.00  0.00     0.320 C 
HETATM   27  N   UNL     1      43.557  -9.104  11.358  1.00  0.00    -0.309 N 
HETATM   28  O   UNL     1      44.370 -11.227  11.817  1.00  0.00    -0.247 OA
HETATM   29  H   UNL     1      43.516  -8.421  10.620  1.00  0.00     0.170 HD
HETATM   30  H   UNL     1      45.389 -11.167   9.784  1.00  0.00     0.164 HD
BRANCH  27  31
HETATM   31  C   UNL     1      42.826  -8.802  12.528  1.00  0.00     0.039 A 
HETATM   32  C   UNL     1      43.262  -7.917  13.516  1.00  0.00     0.071 A 
HETATM   33  C   UNL     1      42.472  -7.689  14.639  1.00  0.00     0.118 A 
HETATM   34  F   UNL     1      42.898  -6.839  15.583  1.00  0.00    -0.206 F 
HETATM   35  C   UNL     1      41.249  -8.327  14.804  1.00  0.00     0.042 A 
HETATM   36  C   UNL     1      40.803  -9.208  13.824  1.00  0.00     0.005 A 
HETATM   37  C   UNL     1      41.588  -9.442  12.691  1.00  0.00     0.030 A 
ENDBRANCH  27  31
ENDBRANCH  24  25
ENDBRANCH   4  24
TORSDOF 7
ENDMDL
MODEL 5
REMARK VINA RESULT:      -9.4      1.222      2.086
REMARK  7 active torsions:
REMARK  status: ('A' for Active; 'I' for Inactive)
REMARK    1  A    between atoms: C_4  and  N_5 
REMARK    2  A    between atoms: C_6  and  S_7 
REMARK    3  A    between atoms: S_7  and  C_8 
REMARK    4  A    between atoms: C_8  and  C_9 
REMARK       I    between atoms: C_9  and  N_10 
REMARK    5  A    between atoms: C_12  and  C_13 
REMARK    6  A    between atoms: C_13  and  N_14 
REMARK       I    between atoms: N_14  and  C_15 
REMARK       I    between atoms: C_15  and  N_16 
REMARK    7  A    between atoms: N_16  and  C_17 
ROOT
HETATM    1  C   UNL     1      41.653  -9.274   7.199  1.00  0.00     0.229 C 
HETATM    2  N   UNL     1      42.197 -10.260   6.352  1.00  0.00    -0.351 N 
HETATM    3  C   UNL     1      41.318 -11.411   6.111  1.00  0.00     0.132 C 
HETATM    4  C   UNL     1      41.772 -12.261   4.918  1.00  0.00     0.021 C 
HETATM    5  C   UNL     1      43.205 -12.738   5.182  1.00  0.00     0.009 C 
HETATM    6  C   UNL     1      44.110 -11.521   5.300  1.00  0.00     0.020 C 
HETATM    7  C   UNL     1      43.629 -10.540   6.364  1.00  0.00     0.126 C 
HETATM    8  O   UNL     1      40.532  -9.437   7.699  1.00  0.00    -0.273 OA
ENDROOT
BRANCH   1   9
HETATM    9  C   UNL     1      42.306  -7.897   7.295  1.00  0.00     0.185 C 
BRANCH   9  10
HETATM   10  S   UNL     1      42.765  -7.223   8.899  1.00  0.00    -0.082 SA
BRANCH  10  11
HETATM   11  C   UNL     1      43.949  -8.331   9.495  1.00  0.00     0.173 A 
HETATM   12  N   UNL     1      43.924  -9.002  10.726  1.00  0.00    -0.300 N 
HETATM   13  C   UNL     1      45.038  -9.834  10.666  1.00  0.00     0.118 A 
HETATM   14  C   UNL     1      45.655  -9.604   9.464  1.00  0.00     0.137 A 
HETATM   15  N   UNL     1      44.976  -8.672   8.751  1.00  0.00    -0.235 NA
BRANCH  12  16
HETATM   16  C   UNL     1      43.048  -8.901  11.874  1.00  0.00     0.042 A 
HETATM   17  C   UNL     1      43.277  -8.015  12.935  1.00  0.00     0.037 A 
HETATM   18  C   UNL     1      42.432  -7.968  14.059  1.00  0.00    -0.059 A 
HETATM   19  C   UNL     1      42.686  -6.975  15.158  1.00  0.00     0.048 C 
HETATM   20  C   UNL     1      41.324  -8.811  14.120  1.00  0.00     0.013 A 
HETATM   21  C   UNL     1      41.068  -9.712  13.087  1.00  0.00    -0.059 A 
HETATM   22  C   UNL     1      41.920  -9.743  11.969  1.00  0.00     0.037 A 
HETATM   23  C   UNL     1      39.861 -10.602  13.159  1.00  0.00     0.048 C 
ENDBRANCH  12  16
ENDBRANCH  10  11
ENDBRANCH   9  10
ENDBRANCH   1   9
BRANCH   4  24
HETATM   24  C   UNL     1      40.799 -13.418   4.666  1.00  0.00     0.130 C 
BRANCH  24  25
HETATM   25  N   UNL     1      40.921 -13.939   3.312  1.00  0.00    -0.342 N 
HETATM   26  C   UNL     1      41.574 -15.037   2.844  1.00  0.00     0.320 C 
HETATM   27  N   UNL     1      42.080 -15.884   3.789  1.00  0.00    -0.309 N 
HETATM   28  O   UNL     1      41.643 -15.170   1.626  1.00  0.00    -0.247 OA
HETATM   29  H   UNL     1      41.882 -15.653   4.748  1.00  0.00     0.170 HD
HETATM   30  H   UNL     1      40.623 -13.353   2.540  1.00  0.00     0.164 HD
BRANCH  27  31
HETATM   31  C   UNL     1      42.782 -17.090   3.571  1.00  0.00     0.039 A 
HETATM   32  C   UNL     1      42.522 -17.967   2.516  1.00  0.00     0.071 A 
HETATM   33  C   UNL     1      43.266 -19.138   2.390  1.00  0.00     0.118 A 
HETATM   34  F   UNL     1      43.010 -19.974   1.375  1.00  0.00    -0.206 F 
HETATM   35  C   UNL     1      44.268 -19.458   3.296  1.00  0.00     0.042 A 
HETATM   36  C   UNL     1      44.538 -18.591   4.349  1.00  0.00     0.005 A 
HETATM   37  C   UNL     1      43.798 -17.411   4.484  1.00  0.00     0.030 A 
ENDBRANCH  27  31
ENDBRANCH  24  25
ENDBRANCH   4  24
TORSDOF 7
ENDMDL
MODEL 6
REMARK VINA RESULT:      -9.2      3.698      5.404
REMARK  7 active torsions:
REMARK  status: ('A' for Active; 'I' for Inactive)
REMARK    1  A    between atoms: C_4  and  N_5 
REMARK    2  A    between atoms: C_6  and  S_7 
REMARK    3  A    between atoms: S_7  and  C_8 
REMARK    4  A    between atoms: C_8  and  C_9 
REMARK       I    between atoms: C_9  and  N_10 
REMARK    5  A    between atoms: C_12  and  C_13 
REMARK    6  A    between atoms: C_13  and  N_14 
REMARK       I    between atoms: N_14  and  C_15 
REMARK       I    between atoms: C_15  and  N_16 
REMARK    7  A    between atoms: N_16  and  C_17 
ROOT
HETATM    1  C   UNL     1      39.428 -12.231   5.160  1.00  0.00     0.229 C 
HETATM    2  N   UNL     1      39.433 -12.175   3.752  1.00  0.00    -0.351 N 
HETATM    3  C   UNL     1      40.029 -13.345   3.096  1.00  0.00     0.132 C 
HETATM    4  C   UNL     1      39.686 -13.422   1.604  1.00  0.00     0.021 C 
HETATM    5  C   UNL     1      40.174 -12.135   0.928  1.00  0.00     0.009 C 
HETATM    6  C   UNL     1      39.442 -10.953   1.548  1.00  0.00     0.020 C 
HETATM    7  C   UNL     1      39.602 -10.899   3.063  1.00  0.00     0.126 C 
HETATM    8  O   UNL     1      39.931 -13.202   5.743  1.00  0.00    -0.273 OA
ENDROOT
BRANCH   1   9
HETATM    9  C   UNL     1      38.578 -11.252   5.966  1.00  0.00     0.185 C 
BRANCH   9  10
HETATM   10  S   UNL     1      39.227 -10.521   7.477  1.00  0.00    -0.082 SA
BRANCH  10  11
HETATM   11  C   UNL     1      39.926  -9.030   6.955  1.00  0.00     0.173 A 
HETATM   12  N   UNL     1      41.188  -8.855   6.370  1.00  0.00    -0.300 N 
HETATM   13  C   UNL     1      41.214  -7.500   6.051  1.00  0.00     0.118 A 
HETATM   14  C   UNL     1      40.026  -6.960   6.470  1.00  0.00     0.137 A 
HETATM   15  N   UNL     1      39.240  -7.912   7.028  1.00  0.00    -0.235 NA
BRANCH  12  16
HETATM   16  C   UNL     1      42.294  -9.761   6.149  1.00  0.00     0.042 A 
HETATM   17  C   UNL     1      43.305  -9.980   7.096  1.00  0.00     0.037 A 
HETATM   18  C   UNL     1      44.392 -10.834   6.837  1.00  0.00    -0.059 A 
HETATM   19  C   UNL     1      45.434 -11.076   7.893  1.00  0.00     0.048 C 
HETATM   20  C   UNL     1      44.467 -11.501   5.616  1.00  0.00     0.013 A 
HETATM   21  C   UNL     1      43.484 -11.302   4.646  1.00  0.00    -0.059 A 
HETATM   22  C   UNL     1      42.402 -10.448   4.921  1.00  0.00     0.037 A 
HETATM   23  C   UNL     1      43.569 -12.039   3.340  1.00  0.00     0.048 C 
ENDBRANCH  12  16
ENDBRANCH  10  11
ENDBRANCH   9  10
ENDBRANCH   1   9
BRANCH   4  24
HETATM   24  C   UNL     1      40.279 -14.685   0.969  1.00  0.00     0.130 C 
BRANCH  24  25
HETATM   25  N   UNL     1      41.735 -14.656   0.970  1.00  0.00    -0.342 N 
HETATM   26  C   UNL     1      42.635 -15.482   1.570  1.00  0.00     0.320 C 
HETATM   27  N   UNL     1      42.124 -16.609   2.148  1.00  0.00    -0.309 N 
HETATM   28  O   UNL     1      43.814 -15.145   1.534  1.00  0.00    -0.247 OA
HETATM   29  H   UNL     1      41.135 -16.760   2.035  1.00  0.00     0.170 HD
HETATM   30  H   UNL     1      42.203 -13.831   0.612  1.00  0.00     0.164 HD
BRANCH  27  31
HETATM   31  C   UNL     1      42.836 -17.628   2.818  1.00  0.00     0.039 A 
HETATM   32  C   UNL     1      43.137 -18.871   2.257  1.00  0.00     0.071 A 
HETATM   33  C   UNL     1      43.839 -19.815   3.002  1.00  0.00     0.118 A 
HETATM   34  F   UNL     1      44.124 -21.005   2.457  1.00  0.00    -0.206 F 
HETATM   35  C   UNL     1      44.251 -19.549   4.302  1.00  0.00     0.042 A 
HETATM   36  C   UNL     1      43.959 -18.313   4.870  1.00  0.00     0.005 A 
HETATM   37  C   UNL     1      43.256 -17.357   4.129  1.00  0.00     0.030 A 
ENDBRANCH  27  31
ENDBRANCH  24  25
ENDBRANCH   4  24
TORSDOF 7
ENDMDL
MODEL 7
REMARK VINA RESULT:      -9.0      2.483      3.402
REMARK  7 active torsions:
REMARK  status: ('A' for Active; 'I' for Inactive)
REMARK    1  A    between atoms: C_4  and  N_5 
REMARK    2  A    between atoms: C_6  and  S_7 
REMARK    3  A    between atoms: S_7  and  C_8 
REMARK    4  A    between atoms: C_8  and  C_9 
REMARK       I    between atoms: C_9  and  N_10 
REMARK    5  A    between atoms: C_12  and  C_13 
REMARK    6  A    between atoms: C_13  and  N_14 
REMARK       I    between atoms: N_14  and  C_15 
REMARK       I    between atoms: C_15  and  N_16 
REMARK    7  A    between atoms: N_16  and  C_17 
ROOT
HETATM    1  C   UNL     1      39.182  -9.901   6.388  1.00  0.00     0.229 C 
HETATM    2  N   UNL     1      40.268 -10.481   5.703  1.00  0.00    -0.351 N 
HETATM    3  C   UNL     1      39.935 -11.692   4.944  1.00  0.00     0.132 C 
HETATM    4  C   UNL     1      41.023 -12.073   3.933  1.00  0.00     0.021 C 
HETATM    5  C   UNL     1      42.340 -12.274   4.693  1.00  0.00     0.009 C 
HETATM    6  C   UNL     1      42.719 -10.962   5.365  1.00  0.00     0.020 C 
HETATM    7  C   UNL     1      41.613 -10.431   6.269  1.00  0.00     0.126 C 
HETATM    8  O   UNL     1      38.065 -10.435   6.343  1.00  0.00    -0.273 OA
ENDROOT
BRANCH   1   9
HETATM    9  C   UNL     1      39.298  -8.490   6.958  1.00  0.00     0.185 C 
BRANCH   9  10
HETATM   10  S   UNL     1      39.425  -8.239   8.736  1.00  0.00    -0.082 SA
BRANCH  10  11
HETATM   11  C   UNL     1      40.126  -6.668   8.888  1.00  0.00     0.173 A 
HETATM   12  N   UNL     1      41.257  -6.324   9.642  1.00  0.00    -0.300 N 
HETATM   13  C   UNL     1      41.451  -4.978   9.342  1.00  0.00     0.118 A 
HETATM   14  C   UNL     1      40.451  -4.603   8.483  1.00  0.00     0.137 A 
HETATM   15  N   UNL     1      39.638  -5.653   8.212  1.00  0.00    -0.235 NA
BRANCH  12  16
HETATM   16  C   UNL     1      42.071  -7.072  10.576  1.00  0.00     0.042 A 
HETATM   17  C   UNL     1      42.089  -6.812  11.953  1.00  0.00     0.037 A 
HETATM   18  C   UNL     1      42.922  -7.526  12.833  1.00  0.00    -0.059 A 
HETATM   19  C   UNL     1      42.882  -7.247  14.309  1.00  0.00     0.048 C 
HETATM   20  C   UNL     1      43.743  -8.535  12.334  1.00  0.00     0.013 A 
HETATM   21  C   UNL     1      43.758  -8.817  10.968  1.00  0.00    -0.059 A 
HETATM   22  C   UNL     1      42.917  -8.096  10.103  1.00  0.00     0.037 A 
HETATM   23  C   UNL     1      44.637  -9.918  10.446  1.00  0.00     0.048 C 
ENDBRANCH  12  16
ENDBRANCH  10  11
ENDBRANCH   9  10
ENDBRANCH   1   9
BRANCH   4  24
HETATM   24  C   UNL     1      40.613 -13.308   3.123  1.00  0.00     0.130 C 
BRANCH  24  25
HETATM   25  N   UNL     1      40.240 -14.419   3.987  1.00  0.00    -0.342 N 
HETATM   26  C   UNL     1      40.778 -15.663   4.109  1.00  0.00     0.320 C 
HETATM   27  N   UNL     1      41.945 -15.882   3.433  1.00  0.00    -0.309 N 
HETATM   28  O   UNL     1      40.176 -16.467   4.814  1.00  0.00    -0.247 OA
HETATM   29  H   UNL     1      42.334 -15.092   2.946  1.00  0.00     0.170 HD
HETATM   30  H   UNL     1      39.358 -14.370   4.485  1.00  0.00     0.164 HD
BRANCH  27  31
HETATM   31  C   UNL     1      42.709 -17.069   3.403  1.00  0.00     0.039 A 
HETATM   32  C   UNL     1      42.619 -18.031   2.394  1.00  0.00     0.071 A 
HETATM   33  C   UNL     1      43.411 -19.175   2.456  1.00  0.00     0.118 A 
HETATM   34  F   UNL     1      43.319 -20.093   1.485  1.00  0.00    -0.206 F 
HETATM   35  C   UNL     1      44.295 -19.386   3.506  1.00  0.00     0.042 A 
HETATM   36  C   UNL     1      44.395 -18.433   4.515  1.00  0.00     0.005 A 
HETATM   37  C   UNL     1      43.606 -17.280   4.461  1.00  0.00     0.030 A 
ENDBRANCH  27  31
ENDBRANCH  24  25
ENDBRANCH   4  24
TORSDOF 7
ENDMDL
MODEL 8
REMARK VINA RESULT:      -8.9      2.192      2.988
REMARK  7 active torsions:
REMARK  status: ('A' for Active; 'I' for Inactive)
REMARK    1  A    between atoms: C_4  and  N_5 
REMARK    2  A    between atoms: C_6  and  S_7 
REMARK    3  A    between atoms: S_7  and  C_8 
REMARK    4  A    between atoms: C_8  and  C_9 
REMARK       I    between atoms: C_9  and  N_10 
REMARK    5  A    between atoms: C_12  and  C_13 
REMARK    6  A    between atoms: C_13  and  N_14 
REMARK       I    between atoms: N_14  and  C_15 
REMARK       I    between atoms: C_15  and  N_16 
REMARK    7  A    between atoms: N_16  and  C_17 
ROOT
HETATM    1  C   UNL     1      41.688  -9.230   6.070  1.00  0.00     0.229 C 
HETATM    2  N   UNL     1      42.641 -10.269   6.051  1.00  0.00    -0.351 N 
HETATM    3  C   UNL     1      42.198 -11.491   5.370  1.00  0.00     0.132 C 
HETATM    4  C   UNL     1      43.358 -12.439   5.044  1.00  0.00     0.021 C 
HETATM    5  C   UNL     1      44.074 -12.795   6.352  1.00  0.00     0.009 C 
HETATM    6  C   UNL     1      44.629 -11.518   6.966  1.00  0.00     0.020 C 
HETATM    7  C   UNL     1      43.555 -10.457   7.173  1.00  0.00     0.126 C 
HETATM    8  O   UNL     1      40.571  -9.406   5.565  1.00  0.00    -0.273 OA
ENDROOT
BRANCH   1   9
HETATM    9  C   UNL     1      42.103  -7.814   6.459  1.00  0.00     0.185 C 
BRANCH   9  10
HETATM   10  S   UNL     1      42.247  -7.357   8.194  1.00  0.00    -0.082 SA
BRANCH  10  11
HETATM   11  C   UNL     1      40.641  -6.905   8.643  1.00  0.00     0.173 A 
HETATM   12  N   UNL     1      40.046  -7.063   9.903  1.00  0.00    -0.300 N 
HETATM   13  C   UNL     1      38.804  -6.451   9.755  1.00  0.00     0.118 A 
HETATM   14  C   UNL     1      38.720  -6.005   8.462  1.00  0.00     0.137 A 
HETATM   15  N   UNL     1      39.858  -6.292   7.784  1.00  0.00    -0.235 NA
BRANCH  12  16
HETATM   16  C   UNL     1      40.486  -7.724  11.112  1.00  0.00     0.042 A 
HETATM   17  C   UNL     1      41.557  -7.262  11.889  1.00  0.00     0.037 A 
HETATM   18  C   UNL     1      41.992  -7.949  13.038  1.00  0.00    -0.059 A 
HETATM   19  C   UNL     1      43.117  -7.399  13.869  1.00  0.00     0.048 C 
HETATM   20  C   UNL     1      41.333  -9.111  13.433  1.00  0.00     0.013 A 
HETATM   21  C   UNL     1      40.268  -9.606  12.681  1.00  0.00    -0.059 A 
HETATM   22  C   UNL     1      39.844  -8.906  11.537  1.00  0.00     0.037 A 
HETATM   23  C   UNL     1      39.557 -10.851  13.127  1.00  0.00     0.048 C 
ENDBRANCH  12  16
ENDBRANCH  10  11
ENDBRANCH   9  10
ENDBRANCH   1   9
BRANCH   4  24
HETATM   24  C   UNL     1      42.862 -13.675   4.285  1.00  0.00     0.130 C 
BRANCH  24  25
HETATM   25  N   UNL     1      42.365 -14.699   5.192  1.00  0.00    -0.342 N 
HETATM   26  C   UNL     1      42.424 -16.057   5.109  1.00  0.00     0.320 C 
HETATM   27  N   UNL     1      43.194 -16.564   4.101  1.00  0.00    -0.309 N 
HETATM   28  O   UNL     1      41.792 -16.696   5.943  1.00  0.00    -0.247 OA
HETATM   29  H   UNL     1      43.693 -15.895   3.539  1.00  0.00     0.170 HD
HETATM   30  H   UNL     1      41.738 -14.422   5.939  1.00  0.00     0.164 HD
BRANCH  27  31
HETATM   31  C   UNL     1      43.432 -17.925   3.805  1.00  0.00     0.039 A 
HETATM   32  C   UNL     1      43.997 -18.833   4.703  1.00  0.00     0.071 A 
HETATM   33  C   UNL     1      44.200 -20.155   4.316  1.00  0.00     0.118 A 
HETATM   34  F   UNL     1      44.742 -21.020   5.183  1.00  0.00    -0.206 F 
HETATM   35  C   UNL     1      43.851 -20.597   3.046  1.00  0.00     0.042 A 
HETATM   36  C   UNL     1      43.285 -19.702   2.144  1.00  0.00     0.005 A 
HETATM   37  C   UNL     1      43.076 -18.372   2.524  1.00  0.00     0.030 A 
ENDBRANCH  27  31
ENDBRANCH  24  25
ENDBRANCH   4  24
TORSDOF 7
ENDMDL
MODEL 9
REMARK VINA RESULT:      -8.8      6.954     11.828
REMARK  7 active torsions:
REMARK  status: ('A' for Active; 'I' for Inactive)
REMARK    1  A    between atoms: C_4  and  N_5 
REMARK    2  A    between atoms: C_6  and  S_7 
REMARK    3  A    between atoms: S_7  and  C_8 
REMARK    4  A    between atoms: C_8  and  C_9 
REMARK       I    between atoms: C_9  and  N_10 
REMARK    5  A    between atoms: C_12  and  C_13 
REMARK    6  A    between atoms: C_13  and  N_14 
REMARK       I    between atoms: N_14  and  C_15 
REMARK       I    between atoms: C_15  and  N_16 
REMARK    7  A    between atoms: N_16  and  C_17 
ROOT
HETATM    1  C   UNL     1      41.172  -6.377   9.868  1.00  0.00     0.229 C 
HETATM    2  N   UNL     1      41.622  -5.470  10.848  1.00  0.00    -0.351 N 
HETATM    3  C   UNL     1      40.760  -5.372  12.032  1.00  0.00     0.132 C 
HETATM    4  C   UNL     1      41.454  -4.682  13.212  1.00  0.00     0.021 C 
HETATM    5  C   UNL     1      41.893  -3.283  12.763  1.00  0.00     0.009 C 
HETATM    6  C   UNL     1      42.883  -3.427  11.617  1.00  0.00     0.020 C 
HETATM    7  C   UNL     1      42.320  -4.247  10.462  1.00  0.00     0.126 C 
HETATM    8  O   UNL     1      40.108  -6.989  10.033  1.00  0.00    -0.273 OA
ENDROOT
BRANCH   1   9
HETATM    9  C   UNL     1      42.102  -6.814   8.739  1.00  0.00     0.185 C 
BRANCH   9  10
HETATM   10  S   UNL     1      42.069  -8.513   8.145  1.00  0.00    -0.082 SA
BRANCH  10  11
HETATM   11  C   UNL     1      43.525  -9.203   8.768  1.00  0.00     0.173 A 
HETATM   12  N   UNL     1      43.791  -9.535  10.104  1.00  0.00    -0.300 N 
HETATM   13  C   UNL     1      45.042 -10.141  10.046  1.00  0.00     0.118 A 
HETATM   14  C   UNL     1      45.449 -10.114   8.737  1.00  0.00     0.137 A 
HETATM   15  N   UNL     1      44.506  -9.530   7.958  1.00  0.00    -0.235 NA
BRANCH  12  16
HETATM   16  C   UNL     1      43.056  -9.309  11.330  1.00  0.00     0.042 A 
HETATM   17  C   UNL     1      41.856  -9.967  11.634  1.00  0.00     0.037 A 
HETATM   18  C   UNL     1      41.139  -9.696  12.814  1.00  0.00    -0.059 A 
HETATM   19  C   UNL     1      39.878 -10.452  13.126  1.00  0.00     0.048 C 
HETATM   20  C   UNL     1      41.637  -8.762  13.721  1.00  0.00     0.013 A 
HETATM   21  C   UNL     1      42.824  -8.082  13.449  1.00  0.00    -0.059 A 
HETATM   22  C   UNL     1      43.530  -8.367  12.267  1.00  0.00     0.037 A 
HETATM   23  C   UNL     1      43.357  -7.090  14.443  1.00  0.00     0.048 C 
ENDBRANCH  12  16
ENDBRANCH  10  11
ENDBRANCH   9  10
ENDBRANCH   1   9
BRANCH   4  24
HETATM   24  C   UNL     1      40.542  -4.650  14.444  1.00  0.00     0.130 C 
BRANCH  24  25
HETATM   25  N   UNL     1      41.274  -4.276  15.645  1.00  0.00    -0.342 N 
HETATM   26  C   UNL     1      41.415  -4.927  16.833  1.00  0.00     0.320 C 
HETATM   27  N   UNL     1      40.925  -6.201  16.881  1.00  0.00    -0.309 N 
HETATM   28  O   UNL     1      41.969  -4.318  17.742  1.00  0.00    -0.247 OA
HETATM   29  H   UNL     1      40.550  -6.569  16.023  1.00  0.00     0.170 HD
HETATM   30  H   UNL     1      41.626  -3.328  15.723  1.00  0.00     0.164 HD
BRANCH  27  31
HETATM   31  C   UNL     1      40.955  -7.090  17.978  1.00  0.00     0.039 A 
HETATM   32  C   UNL     1      42.123  -7.483  18.634  1.00  0.00     0.071 A 
HETATM   33  C   UNL     1      42.051  -8.372  19.704  1.00  0.00     0.118 A 
HETATM   34  F   UNL     1      43.176  -8.744  20.329  1.00  0.00    -0.206 F 
HETATM   35  C   UNL     1      40.834  -8.883  20.138  1.00  0.00     0.042 A 
HETATM   36  C   UNL     1      39.664  -8.497  19.493  1.00  0.00     0.005 A 
HETATM   37  C   UNL     1      39.725  -7.603  18.419  1.00  0.00     0.030 A 
ENDBRANCH  27  31
ENDBRANCH  24  25
ENDBRANCH   4  24
TORSDOF 7
ENDMDL
MODEL 10
REMARK VINA RESULT:      -8.7      4.212     11.932
REMARK  7 active torsions:
REMARK  status: ('A' for Active; 'I' for Inactive)
REMARK    1  A    between atoms: C_4  and  N_5 
REMARK    2  A    between atoms: C_6  and  S_7 
REMARK    3  A    between atoms: S_7  and  C_8 
REMARK    4  A    between atoms: C_8  and  C_9 
REMARK       I    between atoms: C_9  and  N_10 
REMARK    5  A    between atoms: C_12  and  C_13 
REMARK    6  A    between atoms: C_13  and  N_14 
REMARK       I    between atoms: N_14  and  C_15 
REMARK       I    between atoms: C_15  and  N_16 
REMARK    7  A    between atoms: N_16  and  C_17 
ROOT
HETATM    1  C   UNL     1      42.680 -10.139   6.825  1.00  0.00     0.229 C 
HETATM    2  N   UNL     1      43.407 -10.159   8.031  1.00  0.00    -0.351 N 
HETATM    3  C   UNL     1      42.668  -9.664   9.198  1.00  0.00     0.132 C 
HETATM    4  C   UNL     1      43.337 -10.042  10.525  1.00  0.00     0.021 C 
HETATM    5  C   UNL     1      44.762  -9.477  10.526  1.00  0.00     0.009 C 
HETATM    6  C   UNL     1      45.537 -10.108   9.378  1.00  0.00     0.020 C 
HETATM    7  C   UNL     1      44.846  -9.913   8.034  1.00  0.00     0.126 C 
HETATM    8  O   UNL     1      41.524  -9.695   6.806  1.00  0.00    -0.273 OA
ENDROOT
BRANCH   1   9
HETATM    9  C   UNL     1      43.194 -10.898   5.604  1.00  0.00     0.185 C 
BRANCH   9  10
HETATM   10  S   UNL     1      43.227 -12.698   5.605  1.00  0.00    -0.082 SA
BRANCH  10  11
HETATM   11  C   UNL     1      41.978 -13.140   4.495  1.00  0.00     0.173 A 
HETATM   12  N   UNL     1      41.672 -14.434   4.049  1.00  0.00    -0.300 N 
HETATM   13  C   UNL     1      40.538 -14.247   3.264  1.00  0.00     0.118 A 
HETATM   14  C   UNL     1      40.259 -12.905   3.263  1.00  0.00     0.137 A 
HETATM   15  N   UNL     1      41.155 -12.231   4.024  1.00  0.00    -0.235 NA
BRANCH  12  16
HETATM   16  C   UNL     1      42.324 -15.711   4.242  1.00  0.00     0.042 A 
HETATM   17  C   UNL     1      42.637 -16.576   3.185  1.00  0.00     0.037 A 
HETATM   18  C   UNL     1      43.232 -17.832   3.404  1.00  0.00    -0.059 A 
HETATM   19  C   UNL     1      43.591 -18.714   2.242  1.00  0.00     0.048 C 
HETATM   20  C   UNL     1      43.540 -18.228   4.704  1.00  0.00     0.013 A 
HETATM   21  C   UNL     1      43.237 -17.397   5.782  1.00  0.00    -0.059 A 
HETATM   22  C   UNL     1      42.645 -16.144   5.545  1.00  0.00     0.037 A 
HETATM   23  C   UNL     1      43.589 -17.830   7.177  1.00  0.00     0.048 C 
ENDBRANCH  12  16
ENDBRANCH  10  11
ENDBRANCH   9  10
ENDBRANCH   1   9
BRANCH   4  24
HETATM   24  C   UNL     1      42.506  -9.556  11.718  1.00  0.00     0.130 C 
BRANCH  24  25
HETATM   25  N   UNL     1      43.256  -8.631  12.555  1.00  0.00    -0.342 N 
HETATM   26  C   UNL     1      42.860  -7.886  13.623  1.00  0.00     0.320 C 
HETATM   27  N   UNL     1      41.604  -8.135  14.098  1.00  0.00    -0.309 N 
HETATM   28  O   UNL     1      43.662  -7.069  14.063  1.00  0.00    -0.247 OA
HETATM   29  H   UNL     1      41.099  -8.883  13.652  1.00  0.00     0.170 HD
HETATM   30  H   UNL     1      44.180  -8.342  12.251  1.00  0.00     0.164 HD
BRANCH  27  31
HETATM   31  C   UNL     1      40.962  -7.516  15.193  1.00  0.00     0.039 A 
HETATM   32  C   UNL     1      41.025  -7.989  16.505  1.00  0.00     0.071 A 
HETATM   33  C   UNL     1      40.350  -7.312  17.518  1.00  0.00     0.118 A 
HETATM   34  F   UNL     1      40.416  -7.772  18.775  1.00  0.00    -0.206 F 
HETATM   35  C   UNL     1      39.609  -6.168  17.253  1.00  0.00     0.042 A 
HETATM   36  C   UNL     1      39.541  -5.687  15.950  1.00  0.00     0.005 A 
HETATM   37  C   UNL     1      40.216  -6.358  14.926  1.00  0.00     0.030 A 
ENDBRANCH  27  31
ENDBRANCH  24  25
ENDBRANCH   4  24
TORSDOF 7
ENDMDL
