MODEL 1
REMARK VINA RESULT:      -8.9      0.000      0.000
REMARK  5 active torsions:
REMARK  status: ('A' for Active; 'I' for Inactive)
REMARK    1  A    between atoms: C_2  and  N_3 
REMARK    2  A    between atoms: C_14  and  C_17 
REMARK       I    between atoms: C_17  and  N_19 
REMARK    3  A    between atoms: N_19  and  C_20 
REMARK    4  A    between atoms: C_20  and  C_22 
REMARK    5  A    between atoms: C_26  and  O_27 
ROOT
HETATM    1  N   UNL     1      43.360 -17.216   5.397  1.00  0.00    -0.008 N 
HETATM    2  H   UNL     1      42.484 -17.172   5.902  1.00  0.00     0.293 HD
HETATM    3  C   UNL     1      43.583 -18.538   4.987  1.00  0.00     0.169 A 
HETATM    4  C   UNL     1      43.750 -19.727   5.741  1.00  0.00     0.154 A 
HETATM    5  N   UNL     1      43.962 -20.945   5.176  1.00  0.00    -0.271 NA
HETATM    6  C   UNL     1      44.003 -21.040   3.833  1.00  0.00     0.117 A 
HETATM    7  C   UNL     1      43.839 -19.967   2.991  1.00  0.00     0.034 A 
HETATM    8  C   UNL     1      43.624 -18.704   3.567  1.00  0.00     0.014 A 
HETATM    9  C   UNL     1      43.399 -17.373   3.035  1.00  0.00     0.012 A 
HETATM   10  C   UNL     1      43.314 -16.840   1.734  1.00  0.00     0.016 A 
HETATM   11  C   UNL     1      43.072 -15.486   1.560  1.00  0.00     0.018 A 
HETATM   12  C   UNL     1      42.897 -14.660   2.677  1.00  0.00     0.034 A 
HETATM   13  C   UNL     1      42.945 -15.182   3.976  1.00  0.00     0.055 A 
HETATM   14  C   UNL     1      43.236 -16.545   4.187  1.00  0.00     0.152 A 
ENDROOT
BRANCH  12  15
HETATM   15  C   UNL     1      42.641 -13.210   2.427  1.00  0.00     0.252 C 
HETATM   16  O   UNL     1      43.225 -12.361   3.093  1.00  0.00    -0.268 OA
HETATM   17  N   UNL     1      41.717 -12.894   1.455  1.00  0.00    -0.349 N 
HETATM   18  H   UNL     1      41.155 -13.617   1.036  1.00  0.00     0.163 HD
BRANCH  17  19
HETATM   19  C   UNL     1      41.346 -11.519   1.163  1.00  0.00     0.114 C 
HETATM   20  C   UNL     1      40.149 -11.083   2.012  1.00  0.00     0.037 C 
BRANCH  19  21
HETATM   21  C   UNL     1      41.087 -11.370  -0.326  1.00  0.00    -0.033 A 
HETATM   22  C   UNL     1      41.296 -10.126  -0.941  1.00  0.00     0.009 A 
HETATM   23  C   UNL     1      41.092  -9.968  -2.310  1.00  0.00     0.003 A 
HETATM   24  C   UNL     1      40.687 -11.057  -3.082  1.00  0.00     0.037 A 
HETATM   25  C   UNL     1      40.484 -12.307  -2.497  1.00  0.00     0.068 A 
HETATM   26  C   UNL     1      40.678 -12.459  -1.121  1.00  0.00     0.046 A 
BRANCH  25  27
HETATM   27  O   UNL     1      40.103 -13.289  -3.369  1.00  0.00    -0.356 OA
HETATM   28  C   UNL     1      39.295 -14.337  -2.852  1.00  0.00     0.210 C 
ENDBRANCH  25  27
ENDBRANCH  19  21
ENDBRANCH  17  19
ENDBRANCH  12  15
BRANCH   1  29
HETATM   29  C   UNL     1      44.389 -16.682   6.324  1.00  0.00     0.244 C 
HETATM   30  C   UNL     1      43.922 -16.493   7.766  1.00  0.00     0.035 C 
ENDBRANCH   1  29
TORSDOF 5
ENDMDL
MODEL 2
REMARK VINA RESULT:      -8.5      5.374      8.759
REMARK  5 active torsions:
REMARK  status: ('A' for Active; 'I' for Inactive)
REMARK    1  A    between atoms: C_2  and  N_3 
REMARK    2  A    between atoms: C_14  and  C_17 
REMARK       I    between atoms: C_17  and  N_19 
REMARK    3  A    between atoms: N_19  and  C_20 
REMARK    4  A    between atoms: C_20  and  C_22 
REMARK    5  A    between atoms: C_26  and  O_27 
ROOT
HETATM    1  N   UNL     1      41.613  -9.678   8.358  1.00  0.00    -0.008 N 
HETATM    2  H   UNL     1      40.915 -10.392   8.528  1.00  0.00     0.293 HD
HETATM    3  C   UNL     1      42.195  -9.311   9.579  1.00  0.00     0.169 A 
HETATM    4  C   UNL     1      41.624  -8.730  10.741  1.00  0.00     0.154 A 
HETATM    5  N   UNL     1      42.343  -8.432  11.855  1.00  0.00    -0.271 NA
HETATM    6  C   UNL     1      43.660  -8.710  11.872  1.00  0.00     0.117 A 
HETATM    7  C   UNL     1      44.328  -9.285  10.819  1.00  0.00     0.034 A 
HETATM    8  C   UNL     1      43.594  -9.594   9.662  1.00  0.00     0.014 A 
HETATM    9  C   UNL     1      43.922 -10.200   8.386  1.00  0.00     0.012 A 
HETATM   10  C   UNL     1      45.107 -10.710   7.819  1.00  0.00     0.016 A 
HETATM   11  C   UNL     1      45.082 -11.249   6.541  1.00  0.00     0.018 A 
HETATM   12  C   UNL     1      43.878 -11.297   5.829  1.00  0.00     0.034 A 
HETATM   13  C   UNL     1      42.686 -10.825   6.392  1.00  0.00     0.055 A 
HETATM   14  C   UNL     1      42.686 -10.229   7.669  1.00  0.00     0.152 A 
ENDROOT
BRANCH  12  15
HETATM   15  C   UNL     1      43.914 -11.886   4.457  1.00  0.00     0.252 C 
HETATM   16  O   UNL     1      44.608 -11.371   3.587  1.00  0.00    -0.268 OA
HETATM   17  N   UNL     1      43.121 -12.990   4.227  1.00  0.00    -0.349 N 
HETATM   18  H   UNL     1      42.457 -13.291   4.923  1.00  0.00     0.163 HD
BRANCH  17  19
HETATM   19  C   UNL     1      43.032 -13.614   2.917  1.00  0.00     0.114 C 
HETATM   20  C   UNL     1      41.765 -13.166   2.182  1.00  0.00     0.037 C 
BRANCH  19  21
HETATM   21  C   UNL     1      43.112 -15.123   3.070  1.00  0.00    -0.033 A 
HETATM   22  C   UNL     1      43.148 -15.931   1.922  1.00  0.00     0.009 A 
HETATM   23  C   UNL     1      43.248 -17.317   2.033  1.00  0.00     0.003 A 
HETATM   24  C   UNL     1      43.325 -17.909   3.293  1.00  0.00     0.037 A 
HETATM   25  C   UNL     1      43.303 -17.127   4.449  1.00  0.00     0.068 A 
HETATM   26  C   UNL     1      43.190 -15.739   4.335  1.00  0.00     0.046 A 
BRANCH  25  27
HETATM   27  O   UNL     1      43.401 -17.834   5.616  1.00  0.00    -0.356 OA
HETATM   28  C   UNL     1      43.650 -17.092   6.802  1.00  0.00     0.210 C 
ENDBRANCH  25  27
ENDBRANCH  19  21
ENDBRANCH  17  19
ENDBRANCH  12  15
BRANCH   1  29
HETATM   29  C   UNL     1      40.903  -8.575   7.662  1.00  0.00     0.244 C 
HETATM   30  C   UNL     1      39.479  -8.904   7.218  1.00  0.00     0.035 C 
ENDBRANCH   1  29
TORSDOF 5
ENDMDL
MODEL 3
REMARK VINA RESULT:      -8.5      5.125      8.239
REMARK  5 active torsions:
REMARK  status: ('A' for Active; 'I' for Inactive)
REMARK    1  A    between atoms: C_2  and  N_3 
REMARK    2  A    between atoms: C_14  and  C_17 
REMARK       I    between atoms: C_17  and  N_19 
REMARK    3  A    between atoms: N_19  and  C_20 
REMARK    4  A    between atoms: C_20  and  C_22 
REMARK    5  A    between atoms: C_26  and  O_27 
ROOT
HETATM    1  N   UNL     1      42.869 -15.308   3.110  1.00  0.00    -0.008 N 
HETATM    2  H   UNL     1      43.500 -14.872   2.448  1.00  0.00     0.293 HD
HETATM    3  C   UNL     1      43.212 -16.660   3.241  1.00  0.00     0.169 A 
HETATM    4  C   UNL     1      43.226 -17.710   2.288  1.00  0.00     0.154 A 
HETATM    5  N   UNL     1      43.589 -18.986   2.588  1.00  0.00    -0.271 NA
HETATM    6  C   UNL     1      43.969 -19.273   3.847  1.00  0.00     0.117 A 
HETATM    7  C   UNL     1      44.014 -18.343   4.858  1.00  0.00     0.034 A 
HETATM    8  C   UNL     1      43.637 -17.025   4.557  1.00  0.00     0.014 A 
HETATM    9  C   UNL     1      43.565 -15.793   5.320  1.00  0.00     0.012 A 
HETATM   10  C   UNL     1      43.844 -15.451   6.658  1.00  0.00     0.016 A 
HETATM   11  C   UNL     1      43.677 -14.142   7.082  1.00  0.00     0.018 A 
HETATM   12  C   UNL     1      43.248 -13.165   6.177  1.00  0.00     0.034 A 
HETATM   13  C   UNL     1      42.999 -13.482   4.836  1.00  0.00     0.055 A 
HETATM   14  C   UNL     1      43.113 -14.812   4.384  1.00  0.00     0.152 A 
ENDROOT
BRANCH  12  15
HETATM   15  C   UNL     1      43.084 -11.772   6.693  1.00  0.00     0.252 C 
HETATM   16  O   UNL     1      42.136 -11.088   6.321  1.00  0.00    -0.268 OA
HETATM   17  N   UNL     1      44.048 -11.308   7.561  1.00  0.00    -0.349 N 
HETATM   18  H   UNL     1      44.884 -11.845   7.725  1.00  0.00     0.163 HD
BRANCH  17  19
HETATM   19  C   UNL     1      44.023  -9.951   8.085  1.00  0.00     0.114 C 
HETATM   20  C   UNL     1      45.431  -9.350   8.112  1.00  0.00     0.037 C 
BRANCH  19  21
HETATM   21  C   UNL     1      43.364  -9.949   9.453  1.00  0.00    -0.033 A 
HETATM   22  C   UNL     1      44.013 -10.571  10.532  1.00  0.00     0.009 A 
HETATM   23  C   UNL     1      43.443 -10.561  11.803  1.00  0.00     0.003 A 
HETATM   24  C   UNL     1      42.224  -9.917  12.013  1.00  0.00     0.037 A 
HETATM   25  C   UNL     1      41.566  -9.281  10.961  1.00  0.00     0.068 A 
HETATM   26  C   UNL     1      42.133  -9.304   9.683  1.00  0.00     0.046 A 
BRANCH  25  27
HETATM   27  O   UNL     1      40.388  -8.677  11.308  1.00  0.00    -0.356 OA
HETATM   28  C   UNL     1      39.676  -9.230  12.406  1.00  0.00     0.210 C 
ENDBRANCH  25  27
ENDBRANCH  19  21
ENDBRANCH  17  19
ENDBRANCH  12  15
BRANCH   1  29
HETATM   29  C   UNL     1      41.502 -15.071   2.581  1.00  0.00     0.244 C 
HETATM   30  C   UNL     1      40.379 -15.731   3.378  1.00  0.00     0.035 C 
ENDBRANCH   1  29
TORSDOF 5
ENDMDL
MODEL 4
REMARK VINA RESULT:      -8.4      1.206      2.017
REMARK  5 active torsions:
REMARK  status: ('A' for Active; 'I' for Inactive)
REMARK    1  A    between atoms: C_2  and  N_3 
REMARK    2  A    between atoms: C_14  and  C_17 
REMARK       I    between atoms: C_17  and  N_19 
REMARK    3  A    between atoms: N_19  and  C_20 
REMARK    4  A    between atoms: C_20  and  C_22 
REMARK    5  A    between atoms: C_26  and  O_27 
ROOT
HETATM    1  N   UNL     1      43.404 -17.169   5.310  1.00  0.00    -0.008 N 
HETATM    2  H   UNL     1      42.535 -17.132   5.829  1.00  0.00     0.293 HD
HETATM    3  C   UNL     1      43.587 -18.470   4.824  1.00  0.00     0.169 A 
HETATM    4  C   UNL     1      43.734 -19.704   5.508  1.00  0.00     0.154 A 
HETATM    5  N   UNL     1      43.907 -20.894   4.872  1.00  0.00    -0.271 NA
HETATM    6  C   UNL     1      43.929 -20.914   3.526  1.00  0.00     0.117 A 
HETATM    7  C   UNL     1      43.783 -19.791   2.748  1.00  0.00     0.034 A 
HETATM    8  C   UNL     1      43.606 -18.558   3.397  1.00  0.00     0.014 A 
HETATM    9  C   UNL     1      43.409 -17.194   2.943  1.00  0.00     0.012 A 
HETATM   10  C   UNL     1      43.321 -16.586   1.675  1.00  0.00     0.016 A 
HETATM   11  C   UNL     1      43.111 -15.219   1.581  1.00  0.00     0.018 A 
HETATM   12  C   UNL     1      42.972 -14.454   2.745  1.00  0.00     0.034 A 
HETATM   13  C   UNL     1      43.022 -15.049   4.011  1.00  0.00     0.055 A 
HETATM   14  C   UNL     1      43.281 -16.428   4.142  1.00  0.00     0.152 A 
ENDROOT
BRANCH  12  15
HETATM   15  C   UNL     1      42.750 -12.985   2.580  1.00  0.00     0.252 C 
HETATM   16  O   UNL     1      43.380 -12.189   3.268  1.00  0.00    -0.268 OA
HETATM   17  N   UNL     1      41.802 -12.593   1.660  1.00  0.00    -0.349 N 
HETATM   18  H   UNL     1      41.205 -13.278   1.224  1.00  0.00     0.163 HD
BRANCH  17  19
HETATM   19  C   UNL     1      41.461 -11.195   1.453  1.00  0.00     0.114 C 
HETATM   20  C   UNL     1      40.222 -10.808   2.265  1.00  0.00     0.037 C 
BRANCH  19  21
HETATM   21  C   UNL     1      41.288 -10.930  -0.032  1.00  0.00    -0.033 A 
HETATM   22  C   UNL     1      40.849 -11.968  -0.871  1.00  0.00     0.009 A 
HETATM   23  C   UNL     1      40.656 -11.746  -2.232  1.00  0.00     0.003 A 
HETATM   24  C   UNL     1      40.887 -10.480  -2.769  1.00  0.00     0.037 A 
HETATM   25  C   UNL     1      41.311  -9.429  -1.956  1.00  0.00     0.068 A 
HETATM   26  C   UNL     1      41.516  -9.658  -0.592  1.00  0.00     0.046 A 
BRANCH  25  27
HETATM   27  O   UNL     1      41.485  -8.239  -2.607  1.00  0.00    -0.356 OA
HETATM   28  C   UNL     1      42.619  -7.462  -2.245  1.00  0.00     0.210 C 
ENDBRANCH  25  27
ENDBRANCH  19  21
ENDBRANCH  17  19
ENDBRANCH  12  15
BRANCH   1  29
HETATM   29  C   UNL     1      44.457 -16.714   6.252  1.00  0.00     0.244 C 
HETATM   30  C   UNL     1      44.008 -16.578   7.705  1.00  0.00     0.035 C 
ENDBRANCH   1  29
TORSDOF 5
ENDMDL
MODEL 5
REMARK VINA RESULT:      -8.2      1.746      2.285
REMARK  5 active torsions:
REMARK  status: ('A' for Active; 'I' for Inactive)
REMARK    1  A    between atoms: C_2  and  N_3 
REMARK    2  A    between atoms: C_14  and  C_17 
REMARK       I    between atoms: C_17  and  N_19 
REMARK    3  A    between atoms: N_19  and  C_20 
REMARK    4  A    between atoms: C_20  and  C_22 
REMARK    5  A    between atoms: C_26  and  O_27 
ROOT
HETATM    1  N   UNL     1      42.627 -17.117   5.598  1.00  0.00    -0.008 N 
HETATM    2  H   UNL     1      41.671 -17.236   5.912  1.00  0.00     0.293 HD
HETATM    3  C   UNL     1      43.225 -18.379   5.473  1.00  0.00     0.169 A 
HETATM    4  C   UNL     1      43.478 -19.384   6.441  1.00  0.00     0.154 A 
HETATM    5  N   UNL     1      44.078 -20.569   6.147  1.00  0.00    -0.271 NA
HETATM    6  C   UNL     1      44.441 -20.814   4.873  1.00  0.00     0.117 A 
HETATM    7  C   UNL     1      44.237 -19.929   3.842  1.00  0.00     0.034 A 
HETATM    8  C   UNL     1      43.621 -18.702   4.139  1.00  0.00     0.014 A 
HETATM    9  C   UNL     1      43.232 -17.548   3.350  1.00  0.00     0.012 A 
HETATM   10  C   UNL     1      43.327 -17.218   1.984  1.00  0.00     0.016 A 
HETATM   11  C   UNL     1      42.835 -16.002   1.535  1.00  0.00     0.018 A 
HETATM   12  C   UNL     1      42.233 -15.117   2.437  1.00  0.00     0.034 A 
HETATM   13  C   UNL     1      42.101 -15.446   3.792  1.00  0.00     0.055 A 
HETATM   14  C   UNL     1      42.633 -16.653   4.288  1.00  0.00     0.152 A 
ENDROOT
BRANCH  12  15
HETATM   15  C   UNL     1      41.724 -13.821   1.895  1.00  0.00     0.252 C 
HETATM   16  O   UNL     1      42.304 -12.774   2.164  1.00  0.00    -0.268 OA
HETATM   17  N   UNL     1      40.584 -13.869   1.124  1.00  0.00    -0.349 N 
HETATM   18  H   UNL     1      40.057 -14.725   1.049  1.00  0.00     0.163 HD
BRANCH  17  19
HETATM   19  C   UNL     1      39.965 -12.667   0.589  1.00  0.00     0.114 C 
HETATM   20  C   UNL     1      39.078 -11.994   1.640  1.00  0.00     0.037 C 
BRANCH  19  21
HETATM   21  C   UNL     1      39.203 -13.011  -0.679  1.00  0.00    -0.033 A 
HETATM   22  C   UNL     1      39.469 -14.224  -1.335  1.00  0.00     0.009 A 
HETATM   23  C   UNL     1      38.766 -14.577  -2.485  1.00  0.00     0.003 A 
HETATM   24  C   UNL     1      37.781 -13.727  -2.985  1.00  0.00     0.037 A 
HETATM   25  C   UNL     1      37.489 -12.522  -2.346  1.00  0.00     0.068 A 
HETATM   26  C   UNL     1      38.205 -12.164  -1.199  1.00  0.00     0.046 A 
BRANCH  25  27
HETATM   27  O   UNL     1      36.492 -11.792  -2.932  1.00  0.00    -0.356 OA
HETATM   28  C   UNL     1      36.574 -10.378  -2.821  1.00  0.00     0.210 C 
ENDBRANCH  25  27
ENDBRANCH  19  21
ENDBRANCH  17  19
ENDBRANCH  12  15
BRANCH   1  29
HETATM   29  C   UNL     1      43.274 -16.229   6.596  1.00  0.00     0.244 C 
HETATM   30  C   UNL     1      44.784 -16.066   6.432  1.00  0.00     0.035 C 
ENDBRANCH   1  29
TORSDOF 5
ENDMDL
MODEL 6
REMARK VINA RESULT:      -8.0      2.587      3.897
REMARK  5 active torsions:
REMARK  status: ('A' for Active; 'I' for Inactive)
REMARK    1  A    between atoms: C_2  and  N_3 
REMARK    2  A    between atoms: C_14  and  C_17 
REMARK       I    between atoms: C_17  and  N_19 
REMARK    3  A    between atoms: N_19  and  C_20 
REMARK    4  A    between atoms: C_20  and  C_22 
REMARK    5  A    between atoms: C_26  and  O_27 
ROOT
HETATM    1  N   UNL     1      40.854 -15.167   5.148  1.00  0.00    -0.008 N 
HETATM    2  H   UNL     1      40.084 -15.811   5.273  1.00  0.00     0.293 HD
HETATM    3  C   UNL     1      41.974 -15.657   5.834  1.00  0.00     0.169 A 
HETATM    4  C   UNL     1      42.177 -15.914   7.214  1.00  0.00     0.154 A 
HETATM    5  N   UNL     1      43.344 -16.395   7.720  1.00  0.00    -0.271 NA
HETATM    6  C   UNL     1      44.358 -16.659   6.874  1.00  0.00     0.117 A 
HETATM    7  C   UNL     1      44.283 -16.469   5.515  1.00  0.00     0.034 A 
HETATM    8  C   UNL     1      43.082 -15.968   4.986  1.00  0.00     0.014 A 
HETATM    9  C   UNL     1      42.619 -15.655   3.647  1.00  0.00     0.012 A 
HETATM   10  C   UNL     1      43.200 -15.731   2.366  1.00  0.00     0.016 A 
HETATM   11  C   UNL     1      42.464 -15.354   1.253  1.00  0.00     0.018 A 
HETATM   12  C   UNL     1      41.144 -14.915   1.407  1.00  0.00     0.034 A 
HETATM   13  C   UNL     1      40.542 -14.865   2.670  1.00  0.00     0.055 A 
HETATM   14  C   UNL     1      41.278 -15.197   3.825  1.00  0.00     0.152 A 
ENDROOT
BRANCH  12  15
HETATM   15  C   UNL     1      40.402 -14.520   0.172  1.00  0.00     0.252 C 
HETATM   16  O   UNL     1      39.490 -15.224  -0.247  1.00  0.00    -0.268 OA
HETATM   17  N   UNL     1      40.812 -13.368  -0.464  1.00  0.00    -0.349 N 
HETATM   18  H   UNL     1      41.655 -12.900  -0.173  1.00  0.00     0.163 HD
BRANCH  17  19
HETATM   19  C   UNL     1      40.201 -12.914  -1.704  1.00  0.00     0.114 C 
HETATM   20  C   UNL     1      40.481 -13.898  -2.843  1.00  0.00     0.037 C 
BRANCH  19  21
HETATM   21  C   UNL     1      40.682 -11.508  -2.019  1.00  0.00    -0.033 A 
HETATM   22  C   UNL     1      40.262 -10.886  -3.206  1.00  0.00     0.009 A 
HETATM   23  C   UNL     1      40.666  -9.587  -3.506  1.00  0.00     0.003 A 
HETATM   24  C   UNL     1      41.485  -8.891  -2.618  1.00  0.00     0.037 A 
HETATM   25  C   UNL     1      41.906  -9.482  -1.427  1.00  0.00     0.068 A 
HETATM   26  C   UNL     1      41.509 -10.790  -1.133  1.00  0.00     0.046 A 
BRANCH  25  27
HETATM   27  O   UNL     1      42.692  -8.684  -0.642  1.00  0.00    -0.356 OA
HETATM   28  C   UNL     1      42.622  -7.283  -0.868  1.00  0.00     0.210 C 
ENDBRANCH  25  27
ENDBRANCH  19  21
ENDBRANCH  17  19
ENDBRANCH  12  15
BRANCH   1  29
HETATM   29  C   UNL     1      40.366 -13.852   5.635  1.00  0.00     0.244 C 
HETATM   30  C   UNL     1      41.385 -12.717   5.561  1.00  0.00     0.035 C 
ENDBRANCH   1  29
TORSDOF 5
ENDMDL
MODEL 7
REMARK VINA RESULT:      -8.0      7.331     10.617
REMARK  5 active torsions:
REMARK  status: ('A' for Active; 'I' for Inactive)
REMARK    1  A    between atoms: C_2  and  N_3 
REMARK    2  A    between atoms: C_14  and  C_17 
REMARK       I    between atoms: C_17  and  N_19 
REMARK    3  A    between atoms: N_19  and  C_20 
REMARK    4  A    between atoms: C_20  and  C_22 
REMARK    5  A    between atoms: C_26  and  O_27 
ROOT
HETATM    1  N   UNL     1      41.388  -8.278  10.506  1.00  0.00    -0.008 N 
HETATM    2  H   UNL     1      40.629  -8.947  10.554  1.00  0.00     0.293 HD
HETATM    3  C   UNL     1      41.608  -7.747  11.784  1.00  0.00     0.169 A 
HETATM    4  C   UNL     1      40.760  -6.993  12.634  1.00  0.00     0.154 A 
HETATM    5  N   UNL     1      41.138  -6.548  13.862  1.00  0.00    -0.271 NA
HETATM    6  C   UNL     1      42.374  -6.845  14.308  1.00  0.00     0.117 A 
HETATM    7  C   UNL     1      43.284  -7.580  13.588  1.00  0.00     0.034 A 
HETATM    8  C   UNL     1      42.902  -8.041  12.317  1.00  0.00     0.014 A 
HETATM    9  C   UNL     1      43.552  -8.833  11.290  1.00  0.00     0.012 A 
HETATM   10  C   UNL     1      44.817  -9.442  11.176  1.00  0.00     0.016 A 
HETATM   11  C   UNL     1      45.133 -10.161  10.033  1.00  0.00     0.018 A 
HETATM   12  C   UNL     1      44.189 -10.291   9.008  1.00  0.00     0.034 A 
HETATM   13  C   UNL     1      42.916  -9.720   9.122  1.00  0.00     0.055 A 
HETATM   14  C   UNL     1      42.580  -8.944  10.249  1.00  0.00     0.152 A 
ENDROOT
BRANCH  12  15
HETATM   15  C   UNL     1      44.589 -11.075   7.800  1.00  0.00     0.252 C 
HETATM   16  O   UNL     1      45.738 -11.007   7.378  1.00  0.00    -0.268 OA
HETATM   17  N   UNL     1      43.610 -11.831   7.192  1.00  0.00    -0.349 N 
HETATM   18  H   UNL     1      42.649 -11.744   7.481  1.00  0.00     0.163 HD
BRANCH  17  19
HETATM   19  C   UNL     1      43.867 -12.591   5.979  1.00  0.00     0.114 C 
HETATM   20  C   UNL     1      43.406 -11.817   4.740  1.00  0.00     0.037 C 
BRANCH  19  21
HETATM   21  C   UNL     1      43.211 -13.956   6.089  1.00  0.00    -0.033 A 
HETATM   22  C   UNL     1      43.133 -14.584   7.342  1.00  0.00     0.009 A 
HETATM   23  C   UNL     1      42.513 -15.825   7.475  1.00  0.00     0.003 A 
HETATM   24  C   UNL     1      41.952 -16.445   6.360  1.00  0.00     0.037 A 
HETATM   25  C   UNL     1      42.005 -15.836   5.106  1.00  0.00     0.068 A 
HETATM   26  C   UNL     1      42.639 -14.597   4.972  1.00  0.00     0.046 A 
BRANCH  25  27
HETATM   27  O   UNL     1      41.404 -16.545   4.102  1.00  0.00    -0.356 OA
HETATM   28  C   UNL     1      40.523 -15.832   3.244  1.00  0.00     0.210 C 
ENDBRANCH  25  27
ENDBRANCH  19  21
ENDBRANCH  17  19
ENDBRANCH  12  15
BRANCH   1  29
HETATM   29  C   UNL     1      40.981  -7.276   9.489  1.00  0.00     0.244 C 
HETATM   30  C   UNL     1      42.005  -6.175   9.223  1.00  0.00     0.035 C 
ENDBRANCH   1  29
TORSDOF 5
ENDMDL
MODEL 8
REMARK VINA RESULT:      -7.7      2.560      9.039
REMARK  5 active torsions:
REMARK  status: ('A' for Active; 'I' for Inactive)
REMARK    1  A    between atoms: C_2  and  N_3 
REMARK    2  A    between atoms: C_14  and  C_17 
REMARK       I    between atoms: C_17  and  N_19 
REMARK    3  A    between atoms: N_19  and  C_20 
REMARK    4  A    between atoms: C_20  and  C_22 
REMARK    5  A    between atoms: C_26  and  O_27 
ROOT
HETATM    1  N   UNL     1      40.207 -11.841  -1.836  1.00  0.00    -0.008 N 
HETATM    2  H   UNL     1      39.196 -11.844  -1.893  1.00  0.00     0.293 HD
HETATM    3  C   UNL     1      40.687 -10.616  -2.318  1.00  0.00     0.169 A 
HETATM    4  C   UNL     1      40.578 -10.016  -3.599  1.00  0.00     0.154 A 
HETATM    5  N   UNL     1      41.112  -8.803  -3.903  1.00  0.00    -0.271 NA
HETATM    6  C   UNL     1      41.766  -8.123  -2.942  1.00  0.00     0.117 A 
HETATM    7  C   UNL     1      41.927  -8.586  -1.659  1.00  0.00     0.034 A 
HETATM    8  C   UNL     1      41.381  -9.840  -1.338  1.00  0.00     0.014 A 
HETATM    9  C   UNL     1      41.328 -10.642  -0.130  1.00  0.00     0.012 A 
HETATM   10  C   UNL     1      41.806 -10.468   1.183  1.00  0.00     0.016 A 
HETATM   11  C   UNL     1      41.572 -11.448   2.136  1.00  0.00     0.018 A 
HETATM   12  C   UNL     1      40.849 -12.595   1.792  1.00  0.00     0.034 A 
HETATM   13  C   UNL     1      40.338 -12.767   0.499  1.00  0.00     0.055 A 
HETATM   14  C   UNL     1      40.599 -11.812  -0.504  1.00  0.00     0.152 A 
ENDROOT
BRANCH  12  15
HETATM   15  C   UNL     1      40.631 -13.617   2.860  1.00  0.00     0.252 C 
HETATM   16  O   UNL     1      39.499 -14.029   3.092  1.00  0.00    -0.268 OA
HETATM   17  N   UNL     1      41.738 -14.033   3.566  1.00  0.00    -0.349 N 
HETATM   18  H   UNL     1      42.622 -13.564   3.445  1.00  0.00     0.163 HD
BRANCH  17  19
HETATM   19  C   UNL     1      41.640 -14.981   4.664  1.00  0.00     0.114 C 
HETATM   20  C   UNL     1      41.982 -14.311   5.998  1.00  0.00     0.037 C 
BRANCH  19  21
HETATM   21  C   UNL     1      42.523 -16.183   4.375  1.00  0.00    -0.033 A 
HETATM   22  C   UNL     1      43.512 -16.551   5.301  1.00  0.00     0.009 A 
HETATM   23  C   UNL     1      44.317 -17.665   5.074  1.00  0.00     0.003 A 
HETATM   24  C   UNL     1      44.134 -18.431   3.923  1.00  0.00     0.037 A 
HETATM   25  C   UNL     1      43.151 -18.094   2.993  1.00  0.00     0.068 A 
HETATM   26  C   UNL     1      42.352 -16.968   3.218  1.00  0.00     0.046 A 
BRANCH  25  27
HETATM   27  O   UNL     1      43.069 -18.937   1.919  1.00  0.00    -0.356 OA
HETATM   28  C   UNL     1      43.571 -20.255   2.091  1.00  0.00     0.210 C 
ENDBRANCH  25  27
ENDBRANCH  19  21
ENDBRANCH  17  19
ENDBRANCH  12  15
BRANCH   1  29
HETATM   29  C   UNL     1      40.659 -13.023  -2.612  1.00  0.00     0.244 C 
HETATM   30  C   UNL     1      39.603 -14.108  -2.809  1.00  0.00     0.035 C 
ENDBRANCH   1  29
TORSDOF 5
ENDMDL
MODEL 9
REMARK VINA RESULT:      -7.6      5.704      9.086
REMARK  5 active torsions:
REMARK  status: ('A' for Active; 'I' for Inactive)
REMARK    1  A    between atoms: C_2  and  N_3 
REMARK    2  A    between atoms: C_14  and  C_17 
REMARK       I    between atoms: C_17  and  N_19 
REMARK    3  A    between atoms: N_19  and  C_20 
REMARK    4  A    between atoms: C_20  and  C_22 
REMARK    5  A    between atoms: C_26  and  O_27 
ROOT
HETATM    1  N   UNL     1      43.038 -12.449   3.086  1.00  0.00    -0.008 N 
HETATM    2  H   UNL     1      43.903 -12.288   2.584  1.00  0.00     0.293 HD
HETATM    3  C   UNL     1      42.568 -13.734   2.781  1.00  0.00     0.169 A 
HETATM    4  C   UNL     1      42.168 -14.306   1.546  1.00  0.00     0.154 A 
HETATM    5  N   UNL     1      41.729 -15.587   1.425  1.00  0.00    -0.271 NA
HETATM    6  C   UNL     1      41.682 -16.364   2.523  1.00  0.00     0.117 A 
HETATM    7  C   UNL     1      42.056 -15.934   3.774  1.00  0.00     0.034 A 
HETATM    8  C   UNL     1      42.507 -14.611   3.908  1.00  0.00     0.014 A 
HETATM    9  C   UNL     1      42.989 -13.814   5.020  1.00  0.00     0.012 A 
HETATM   10  C   UNL     1      43.185 -14.063   6.392  1.00  0.00     0.016 A 
HETATM   11  C   UNL     1      43.686 -13.061   7.209  1.00  0.00     0.018 A 
HETATM   12  C   UNL     1      44.008 -11.813   6.663  1.00  0.00     0.034 A 
HETATM   13  C   UNL     1      43.850 -11.560   5.295  1.00  0.00     0.055 A 
HETATM   14  C   UNL     1      43.299 -12.542   4.447  1.00  0.00     0.152 A 
ENDROOT
BRANCH  12  15
HETATM   15  C   UNL     1      44.541 -10.772   7.593  1.00  0.00     0.252 C 
HETATM   16  O   UNL     1      45.569 -10.166   7.310  1.00  0.00    -0.268 OA
HETATM   17  N   UNL     1      43.846 -10.562   8.764  1.00  0.00    -0.349 N 
HETATM   18  H   UNL     1      43.095 -11.181   9.026  1.00  0.00     0.163 HD
BRANCH  17  19
HETATM   19  C   UNL     1      44.301  -9.615   9.770  1.00  0.00     0.114 C 
HETATM   20  C   UNL     1      45.543 -10.141  10.495  1.00  0.00     0.037 C 
BRANCH  19  21
HETATM   21  C   UNL     1      43.160  -9.304  10.724  1.00  0.00    -0.033 A 
HETATM   22  C   UNL     1      43.448  -8.792  11.999  1.00  0.00     0.009 A 
HETATM   23  C   UNL     1      42.420  -8.473  12.884  1.00  0.00     0.003 A 
HETATM   24  C   UNL     1      41.092  -8.651  12.499  1.00  0.00     0.037 A 
HETATM   25  C   UNL     1      40.779  -9.147  11.233  1.00  0.00     0.068 A 
HETATM   26  C   UNL     1      41.813  -9.478  10.351  1.00  0.00     0.046 A 
BRANCH  25  27
HETATM   27  O   UNL     1      39.439  -9.257  10.979  1.00  0.00    -0.356 OA
HETATM   28  C   UNL     1      39.061  -9.818   9.730  1.00  0.00     0.210 C 
ENDBRANCH  25  27
ENDBRANCH  19  21
ENDBRANCH  17  19
ENDBRANCH  12  15
BRANCH   1  29
HETATM   29  C   UNL     1      42.124 -11.351   2.682  1.00  0.00     0.244 C 
HETATM   30  C   UNL     1      40.745 -11.386   3.337  1.00  0.00     0.035 C 
ENDBRANCH   1  29
TORSDOF 5
ENDMDL
MODEL 10
REMARK VINA RESULT:      -7.6      4.608      7.314
REMARK  5 active torsions:
REMARK  status: ('A' for Active; 'I' for Inactive)
REMARK    1  A    between atoms: C_2  and  N_3 
REMARK    2  A    between atoms: C_14  and  C_17 
REMARK       I    between atoms: C_17  and  N_19 
REMARK    3  A    between atoms: N_19  and  C_20 
REMARK    4  A    between atoms: C_20  and  C_22 
REMARK    5  A    between atoms: C_26  and  O_27 
ROOT
HETATM    1  N   UNL     1      42.052 -15.973   2.820  1.00  0.00    -0.008 N 
HETATM    2  H   UNL     1      42.507 -15.454   2.080  1.00  0.00     0.293 HD
HETATM    3  C   UNL     1      42.803 -17.124   3.097  1.00  0.00     0.169 A 
HETATM    4  C   UNL     1      43.137 -18.233   2.278  1.00  0.00     0.154 A 
HETATM    5  N   UNL     1      43.885 -19.282   2.712  1.00  0.00    -0.271 NA
HETATM    6  C   UNL     1      44.350 -19.270   3.976  1.00  0.00     0.117 A 
HETATM    7  C   UNL     1      44.111 -18.248   4.863  1.00  0.00     0.034 A 
HETATM    8  C   UNL     1      43.335 -17.163   4.424  1.00  0.00     0.014 A 
HETATM    9  C   UNL     1      42.888 -15.925   5.035  1.00  0.00     0.012 A 
HETATM   10  C   UNL     1      43.060 -15.342   6.305  1.00  0.00     0.016 A 
HETATM   11  C   UNL     1      42.495 -14.105   6.576  1.00  0.00     0.018 A 
HETATM   12  C   UNL     1      41.771 -13.437   5.582  1.00  0.00     0.034 A 
HETATM   13  C   UNL     1      41.620 -13.988   4.304  1.00  0.00     0.055 A 
HETATM   14  C   UNL     1      42.142 -15.264   4.011  1.00  0.00     0.152 A 
ENDROOT
BRANCH  12  15
HETATM   15  C   UNL     1      41.184 -12.109   5.934  1.00  0.00     0.252 C 
HETATM   16  O   UNL     1      39.974 -12.000   6.110  1.00  0.00    -0.268 OA
HETATM   17  N   UNL     1      42.051 -11.041   6.016  1.00  0.00    -0.349 N 
HETATM   18  H   UNL     1      43.009 -11.142   5.722  1.00  0.00     0.163 HD
BRANCH  17  19
HETATM   19  C   UNL     1      41.587  -9.692   6.297  1.00  0.00     0.114 C 
HETATM   20  C   UNL     1      41.635  -8.824   5.036  1.00  0.00     0.037 C 
BRANCH  19  21
HETATM   21  C   UNL     1      42.400  -9.104   7.437  1.00  0.00    -0.033 A 
HETATM   22  C   UNL     1      42.397  -7.715   7.641  1.00  0.00     0.009 A 
HETATM   23  C   UNL     1      43.112  -7.152   8.696  1.00  0.00     0.003 A 
HETATM   24  C   UNL     1      43.828  -7.973   9.566  1.00  0.00     0.037 A 
HETATM   25  C   UNL     1      43.837  -9.357   9.393  1.00  0.00     0.068 A 
HETATM   26  C   UNL     1      43.128  -9.918   8.326  1.00  0.00     0.046 A 
BRANCH  25  27
HETATM   27  O   UNL     1      44.565 -10.044  10.325  1.00  0.00    -0.356 OA
HETATM   28  C   UNL     1      43.841 -10.722  11.341  1.00  0.00     0.210 C 
ENDBRANCH  25  27
ENDBRANCH  19  21
ENDBRANCH  17  19
ENDBRANCH  12  15
BRANCH   1  29
HETATM   29  C   UNL     1      40.675 -16.244   2.337  1.00  0.00     0.244 C 
HETATM   30  C   UNL     1      40.221 -15.378   1.164  1.00  0.00     0.035 C 
ENDBRANCH   1  29
TORSDOF 5
ENDMDL
