MODEL 1
REMARK VINA RESULT:      -9.1      0.000      0.000
REMARK  7 active torsions:
REMARK  status: ('A' for Active; 'I' for Inactive)
REMARK    1  A    between atoms: C_2  and  N_3 
REMARK    2  A    between atoms: C_2  and  C_26 
REMARK       I    between atoms: N_3  and  C_4 
REMARK    3  A    between atoms: C_4  and  C_5 
REMARK    4  A    between atoms: C_8  and  C_9 
REMARK       I    between atoms: C_9  and  N_10 
REMARK    5  A    between atoms: N_10  and  C_11 
REMARK    6  A    between atoms: N_20  and  C_21 
REMARK    7  A    between atoms: C_29  and  O_30 
ROOT
HETATM    1  C   UNL     1      42.770 -11.787   4.257  1.00  0.00     0.098 A 
HETATM    2  C   UNL     1      42.643 -13.269   4.095  1.00  0.00     0.206 A 
HETATM    3  O   UNL     1      42.145 -13.753   3.076  1.00  0.00    -0.286 OA
HETATM    4  C   UNL     1      43.113 -14.148   5.209  1.00  0.00     0.098 A 
HETATM    5  C   UNL     1      43.728 -13.545   6.241  1.00  0.00     0.112 A 
HETATM    6  N   UNL     1      43.951 -12.186   6.312  1.00  0.00    -0.360 N 
HETATM    7  C   UNL     1      43.412 -11.351   5.355  1.00  0.00     0.112 A 
ENDROOT
BRANCH   1   8
HETATM    8  C   UNL     1      42.214 -10.779   3.312  1.00  0.00     0.257 C 
HETATM    9  N   UNL     1      42.083 -11.203   2.016  1.00  0.00    -0.348 N 
HETATM   10  H   UNL     1      42.352 -12.158   1.789  1.00  0.00     0.163 HD
HETATM   11  O   UNL     1      41.883  -9.658   3.687  1.00  0.00    -0.267 OA
BRANCH   9  12
HETATM   12  C   UNL     1      41.424 -10.412   0.991  1.00  0.00     0.114 C 
HETATM   13  C   UNL     1      40.192  -9.701   1.557  1.00  0.00     0.037 C 
BRANCH  12  14
HETATM   14  C   UNL     1      41.055 -11.279  -0.199  1.00  0.00    -0.036 A 
HETATM   15  C   UNL     1      40.581 -12.581   0.005  1.00  0.00     0.012 A 
HETATM   16  C   UNL     1      40.242 -13.395  -1.080  1.00  0.00     0.037 A 
HETATM   17  C   UNL     1      40.363 -12.925  -2.388  1.00  0.00     0.068 A 
HETATM   18  C   UNL     1      40.840 -11.633  -2.605  1.00  0.00     0.037 A 
HETATM   19  C   UNL     1      41.186 -10.819  -1.520  1.00  0.00     0.012 A 
BRANCH  17  20
HETATM   20  O   UNL     1      39.993 -13.820  -3.355  1.00  0.00    -0.356 OA
HETATM   21  C   UNL     1      38.780 -14.531  -3.140  1.00  0.00     0.210 C 
ENDBRANCH  17  20
ENDBRANCH  12  14
ENDBRANCH   9  12
ENDBRANCH   1   8
BRANCH   4  22
HETATM   22  C   UNL     1      42.929 -15.626   5.256  1.00  0.00     0.257 C 
HETATM   23  N   UNL     1      43.408 -16.305   4.163  1.00  0.00    -0.352 N 
HETATM   24  H   UNL     1      43.749 -15.748   3.381  1.00  0.00     0.163 HD
HETATM   25  O   UNL     1      42.380 -16.167   6.211  1.00  0.00    -0.267 OA
BRANCH  23  26
HETATM   26  C   UNL     1      43.229 -17.736   3.916  1.00  0.00     0.084 C 
HETATM   27  C   UNL     1      42.953 -18.035   2.438  1.00  0.00     0.025 C 
HETATM   28  C   UNL     1      42.666 -19.504   2.121  1.00  0.00     0.002 C 
HETATM   29  C   UNL     1      43.910 -20.381   2.207  1.00  0.00     0.000 C 
HETATM   30  C   UNL     1      44.217 -20.937   3.594  1.00  0.00     0.000 C 
HETATM   31  C   UNL     1      44.010 -20.002   4.781  1.00  0.00     0.002 C 
HETATM   32  C   UNL     1      44.381 -18.541   4.538  1.00  0.00     0.025 C 
ENDBRANCH  23  26
ENDBRANCH   4  22
BRANCH   6  33
HETATM   33  C   UNL     1      44.552 -11.612   7.523  1.00  0.00     0.089 A 
HETATM   34  C   UNL     1      45.902 -10.941   7.488  1.00  0.00     0.028 A 
HETATM   35  C   UNL     1      44.669 -10.123   7.722  1.00  0.00     0.028 A 
ENDBRANCH   6  33
TORSDOF 7
ENDMDL
MODEL 2
REMARK VINA RESULT:      -9.1      3.054      7.897
REMARK  7 active torsions:
REMARK  status: ('A' for Active; 'I' for Inactive)
REMARK    1  A    between atoms: C_2  and  N_3 
REMARK    2  A    between atoms: C_2  and  C_26 
REMARK       I    between atoms: N_3  and  C_4 
REMARK    3  A    between atoms: C_4  and  C_5 
REMARK    4  A    between atoms: C_8  and  C_9 
REMARK       I    between atoms: C_9  and  N_10 
REMARK    5  A    between atoms: N_10  and  C_11 
REMARK    6  A    between atoms: N_20  and  C_21 
REMARK    7  A    between atoms: C_29  and  O_30 
ROOT
HETATM    1  C   UNL     1      43.858 -11.990   6.666  1.00  0.00     0.098 A 
HETATM    2  C   UNL     1      43.465 -13.430   6.759  1.00  0.00     0.206 A 
HETATM    3  O   UNL     1      43.578 -14.049   7.820  1.00  0.00    -0.286 OA
HETATM    4  C   UNL     1      42.955 -14.108   5.529  1.00  0.00     0.098 A 
HETATM    5  C   UNL     1      42.774 -13.338   4.441  1.00  0.00     0.112 A 
HETATM    6  N   UNL     1      43.022 -11.981   4.413  1.00  0.00    -0.360 N 
HETATM    7  C   UNL     1      43.612 -11.369   5.500  1.00  0.00     0.112 A 
ENDROOT
BRANCH   1   8
HETATM    8  C   UNL     1      44.523 -11.220   7.755  1.00  0.00     0.257 C 
HETATM    9  N   UNL     1      43.694 -10.791   8.758  1.00  0.00    -0.348 N 
HETATM   10  H   UNL     1      42.707 -11.033   8.707  1.00  0.00     0.163 HD
HETATM   11  O   UNL     1      45.732 -11.008   7.748  1.00  0.00    -0.267 OA
BRANCH   9  12
HETATM   12  C   UNL     1      44.186 -10.159   9.969  1.00  0.00     0.114 C 
HETATM   13  C   UNL     1      43.832 -10.992  11.204  1.00  0.00     0.037 C 
BRANCH  12  14
HETATM   14  C   UNL     1      43.646  -8.745  10.092  1.00  0.00    -0.036 A 
HETATM   15  C   UNL     1      43.842  -7.830   9.049  1.00  0.00     0.012 A 
HETATM   16  C   UNL     1      43.357  -6.523   9.149  1.00  0.00     0.037 A 
HETATM   17  C   UNL     1      42.662  -6.104  10.284  1.00  0.00     0.068 A 
HETATM   18  C   UNL     1      42.467  -7.004  11.331  1.00  0.00     0.037 A 
HETATM   19  C   UNL     1      42.958  -8.311  11.237  1.00  0.00     0.012 A 
BRANCH  17  20
HETATM   20  O   UNL     1      42.238  -4.804  10.249  1.00  0.00    -0.356 OA
HETATM   21  C   UNL     1      42.742  -3.937  11.256  1.00  0.00     0.210 C 
ENDBRANCH  17  20
ENDBRANCH  12  14
ENDBRANCH   9  12
ENDBRANCH   1   8
BRANCH   4  22
HETATM   22  C   UNL     1      42.655 -15.564   5.427  1.00  0.00     0.257 C 
HETATM   23  N   UNL     1      43.417 -16.250   4.513  1.00  0.00    -0.352 N 
HETATM   24  H   UNL     1      44.038 -15.702   3.919  1.00  0.00     0.163 HD
HETATM   25  O   UNL     1      41.783 -16.082   6.116  1.00  0.00    -0.267 OA
BRANCH  23  26
HETATM   26  C   UNL     1      43.223 -17.650   4.138  1.00  0.00     0.084 C 
HETATM   27  C   UNL     1      43.026 -17.821   2.627  1.00  0.00     0.025 C 
HETATM   28  C   UNL     1      42.728 -19.251   2.173  1.00  0.00     0.002 C 
HETATM   29  C   UNL     1      43.946 -20.164   2.255  1.00  0.00     0.000 C 
HETATM   30  C   UNL     1      44.161 -20.838   3.606  1.00  0.00     0.000 C 
HETATM   31  C   UNL     1      43.906 -19.999   4.854  1.00  0.00     0.002 C 
HETATM   32  C   UNL     1      44.320 -18.533   4.754  1.00  0.00     0.025 C 
ENDBRANCH  23  26
ENDBRANCH   4  22
BRANCH   6  33
HETATM   33  C   UNL     1      42.879 -11.244   3.152  1.00  0.00     0.089 A 
HETATM   34  C   UNL     1      41.907 -11.688   2.088  1.00  0.00     0.028 A 
HETATM   35  C   UNL     1      41.653 -10.422   2.847  1.00  0.00     0.028 A 
ENDBRANCH   6  33
TORSDOF 7
ENDMDL
MODEL 3
REMARK VINA RESULT:      -9.0      3.234      8.129
REMARK  7 active torsions:
REMARK  status: ('A' for Active; 'I' for Inactive)
REMARK    1  A    between atoms: C_2  and  N_3 
REMARK    2  A    between atoms: C_2  and  C_26 
REMARK       I    between atoms: N_3  and  C_4 
REMARK    3  A    between atoms: C_4  and  C_5 
REMARK    4  A    between atoms: C_8  and  C_9 
REMARK       I    between atoms: C_9  and  N_10 
REMARK    5  A    between atoms: N_10  and  C_11 
REMARK    6  A    between atoms: N_20  and  C_21 
REMARK    7  A    between atoms: C_29  and  O_30 
ROOT
HETATM    1  C   UNL     1      42.643 -12.154   6.029  1.00  0.00     0.098 A 
HETATM    2  C   UNL     1      42.964 -13.614   6.082  1.00  0.00     0.206 A 
HETATM    3  O   UNL     1      43.959 -14.021   6.686  1.00  0.00    -0.286 OA
HETATM    4  C   UNL     1      42.062 -14.566   5.366  1.00  0.00     0.098 A 
HETATM    5  C   UNL     1      40.950 -14.051   4.813  1.00  0.00     0.112 A 
HETATM    6  N   UNL     1      40.606 -12.716   4.886  1.00  0.00    -0.360 N 
HETATM    7  C   UNL     1      41.489 -11.808   5.433  1.00  0.00     0.112 A 
ENDROOT
BRANCH   1   8
HETATM    8  C   UNL     1      43.521 -11.073   6.559  1.00  0.00     0.257 C 
HETATM    9  N   UNL     1      43.491 -10.909   7.918  1.00  0.00    -0.348 N 
HETATM   10  H   UNL     1      42.900 -11.529   8.468  1.00  0.00     0.163 HD
HETATM   11  O   UNL     1      44.228 -10.396   5.817  1.00  0.00    -0.267 OA
BRANCH   9  12
HETATM   12  C   UNL     1      44.387 -10.008   8.623  1.00  0.00     0.114 C 
HETATM   13  C   UNL     1      45.796 -10.598   8.711  1.00  0.00     0.037 C 
BRANCH  12  14
HETATM   14  C   UNL     1      43.844  -9.685  10.003  1.00  0.00    -0.036 A 
HETATM   15  C   UNL     1      43.579 -10.719  10.910  1.00  0.00     0.012 A 
HETATM   16  C   UNL     1      43.073 -10.439  12.182  1.00  0.00     0.037 A 
HETATM   17  C   UNL     1      42.828  -9.123  12.579  1.00  0.00     0.068 A 
HETATM   18  C   UNL     1      43.082  -8.086  11.683  1.00  0.00     0.037 A 
HETATM   19  C   UNL     1      43.582  -8.364  10.406  1.00  0.00     0.012 A 
BRANCH  17  20
HETATM   20  O   UNL     1      42.340  -8.989  13.850  1.00  0.00    -0.356 OA
HETATM   21  C   UNL     1      40.938  -9.150  14.019  1.00  0.00     0.210 C 
ENDBRANCH  17  20
ENDBRANCH  12  14
ENDBRANCH   9  12
ENDBRANCH   1   8
BRANCH   4  22
HETATM   22  C   UNL     1      42.322 -16.025   5.211  1.00  0.00     0.257 C 
HETATM   23  N   UNL     1      43.535 -16.341   4.650  1.00  0.00    -0.352 N 
HETATM   24  H   UNL     1      44.101 -15.570   4.299  1.00  0.00     0.163 HD
HETATM   25  O   UNL     1      41.492 -16.858   5.561  1.00  0.00    -0.267 OA
BRANCH  23  26
HETATM   26  C   UNL     1      43.963 -17.689   4.276  1.00  0.00     0.084 C 
HETATM   27  C   UNL     1      43.898 -18.663   5.458  1.00  0.00     0.025 C 
HETATM   28  C   UNL     1      44.418 -20.071   5.162  1.00  0.00     0.002 C 
HETATM   29  C   UNL     1      43.476 -20.874   4.272  1.00  0.00     0.000 C 
HETATM   30  C   UNL     1      43.683 -20.687   2.773  1.00  0.00     0.000 C 
HETATM   31  C   UNL     1      43.978 -19.274   2.280  1.00  0.00     0.002 C 
HETATM   32  C   UNL     1      43.233 -18.157   3.007  1.00  0.00     0.025 C 
ENDBRANCH  23  26
ENDBRANCH   4  22
BRANCH   6  33
HETATM   33  C   UNL     1      39.415 -12.235   4.174  1.00  0.00     0.089 A 
HETATM   34  C   UNL     1      39.528 -11.478   2.875  1.00  0.00     0.028 A 
HETATM   35  C   UNL     1      38.954 -12.862   2.883  1.00  0.00     0.028 A 
ENDBRANCH   6  33
TORSDOF 7
ENDMDL
MODEL 4
REMARK VINA RESULT:      -8.9      2.924      8.800
REMARK  7 active torsions:
REMARK  status: ('A' for Active; 'I' for Inactive)
REMARK    1  A    between atoms: C_2  and  N_3 
REMARK    2  A    between atoms: C_2  and  C_26 
REMARK       I    between atoms: N_3  and  C_4 
REMARK    3  A    between atoms: C_4  and  C_5 
REMARK    4  A    between atoms: C_8  and  C_9 
REMARK       I    between atoms: C_9  and  N_10 
REMARK    5  A    between atoms: N_10  and  C_11 
REMARK    6  A    between atoms: N_20  and  C_21 
REMARK    7  A    between atoms: C_29  and  O_30 
ROOT
HETATM    1  C   UNL     1      43.198 -12.110   5.790  1.00  0.00     0.098 A 
HETATM    2  C   UNL     1      43.164 -12.246   4.301  1.00  0.00     0.206 A 
HETATM    3  O   UNL     1      43.365 -11.271   3.573  1.00  0.00    -0.286 OA
HETATM    4  C   UNL     1      42.858 -13.587   3.716  1.00  0.00     0.098 A 
HETATM    5  C   UNL     1      42.745 -14.614   4.576  1.00  0.00     0.112 A 
HETATM    6  N   UNL     1      42.907 -14.491   5.941  1.00  0.00    -0.360 N 
HETATM    7  C   UNL     1      43.065 -13.242   6.504  1.00  0.00     0.112 A 
ENDROOT
BRANCH   1   8
HETATM    8  C   UNL     1      43.337 -10.821   6.522  1.00  0.00     0.257 C 
HETATM    9  N   UNL     1      44.443 -10.719   7.324  1.00  0.00    -0.348 N 
HETATM   10  H   UNL     1      45.091 -11.503   7.356  1.00  0.00     0.163 HD
HETATM   11  O   UNL     1      42.519  -9.914   6.391  1.00  0.00    -0.267 OA
BRANCH   9  12
HETATM   12  C   UNL     1      44.820  -9.487   7.994  1.00  0.00     0.114 C 
HETATM   13  C   UNL     1      46.341  -9.324   8.025  1.00  0.00     0.037 C 
BRANCH  12  14
HETATM   14  C   UNL     1      44.238  -9.440   9.395  1.00  0.00    -0.036 A 
HETATM   15  C   UNL     1      43.746  -8.232   9.907  1.00  0.00     0.012 A 
HETATM   16  C   UNL     1      43.213  -8.170  11.198  1.00  0.00     0.037 A 
HETATM   17  C   UNL     1      43.152  -9.310  12.000  1.00  0.00     0.068 A 
HETATM   18  C   UNL     1      43.643 -10.517  11.503  1.00  0.00     0.037 A 
HETATM   19  C   UNL     1      44.184 -10.580  10.214  1.00  0.00     0.012 A 
BRANCH  17  20
HETATM   20  O   UNL     1      42.601  -9.112  13.236  1.00  0.00    -0.356 OA
HETATM   21  C   UNL     1      42.814  -7.841  13.837  1.00  0.00     0.210 C 
ENDBRANCH  17  20
ENDBRANCH  12  14
ENDBRANCH   9  12
ENDBRANCH   1   8
BRANCH   4  22
HETATM   22  C   UNL     1      42.653 -13.850   2.264  1.00  0.00     0.257 C 
HETATM   23  N   UNL     1      41.640 -13.130   1.680  1.00  0.00    -0.352 N 
HETATM   24  H   UNL     1      41.056 -12.564   2.296  1.00  0.00     0.163 HD
HETATM   25  O   UNL     1      43.350 -14.661   1.662  1.00  0.00    -0.267 OA
BRANCH  23  26
HETATM   26  C   UNL     1      41.162 -13.307   0.309  1.00  0.00     0.084 C 
HETATM   27  C   UNL     1      40.009 -14.315   0.226  1.00  0.00     0.025 C 
HETATM   28  C   UNL     1      39.519 -14.618  -1.190  1.00  0.00     0.002 C 
HETATM   29  C   UNL     1      38.735 -13.463  -1.804  1.00  0.00     0.000 C 
HETATM   30  C   UNL     1      39.579 -12.416  -2.523  1.00  0.00     0.000 C 
HETATM   31  C   UNL     1      40.899 -12.017  -1.873  1.00  0.00     0.002 C 
HETATM   32  C   UNL     1      40.884 -11.946  -0.348  1.00  0.00     0.025 C 
ENDBRANCH  23  26
ENDBRANCH   4  22
BRANCH   6  33
HETATM   33  C   UNL     1      42.677 -15.655   6.805  1.00  0.00     0.089 A 
HETATM   34  C   UNL     1      43.805 -16.569   7.212  1.00  0.00     0.028 A 
HETATM   35  C   UNL     1      43.152 -15.690   8.235  1.00  0.00     0.028 A 
ENDBRANCH   6  33
TORSDOF 7
ENDMDL
MODEL 5
REMARK VINA RESULT:      -8.9      2.247      7.054
REMARK  7 active torsions:
REMARK  status: ('A' for Active; 'I' for Inactive)
REMARK    1  A    between atoms: C_2  and  N_3 
REMARK    2  A    between atoms: C_2  and  C_26 
REMARK       I    between atoms: N_3  and  C_4 
REMARK    3  A    between atoms: C_4  and  C_5 
REMARK    4  A    between atoms: C_8  and  C_9 
REMARK       I    between atoms: C_9  and  N_10 
REMARK    5  A    between atoms: N_10  and  C_11 
REMARK    6  A    between atoms: N_20  and  C_21 
REMARK    7  A    between atoms: C_29  and  O_30 
ROOT
HETATM    1  C   UNL     1      40.385 -12.687   2.717  1.00  0.00     0.098 A 
HETATM    2  C   UNL     1      41.267 -13.882   2.896  1.00  0.00     0.206 A 
HETATM    3  O   UNL     1      41.794 -14.122   3.984  1.00  0.00    -0.286 OA
HETATM    4  C   UNL     1      41.514 -14.765   1.715  1.00  0.00     0.098 A 
HETATM    5  C   UNL     1      40.828 -14.487   0.593  1.00  0.00     0.112 A 
HETATM    6  N   UNL     1      39.919 -13.454   0.487  1.00  0.00    -0.360 N 
HETATM    7  C   UNL     1      39.776 -12.557   1.525  1.00  0.00     0.112 A 
ENDROOT
BRANCH   1   8
HETATM    8  C   UNL     1      40.165 -11.633   3.746  1.00  0.00     0.257 C 
HETATM    9  N   UNL     1      41.277 -11.271   4.459  1.00  0.00    -0.348 N 
HETATM   10  H   UNL     1      42.162 -11.720   4.236  1.00  0.00     0.163 HD
HETATM   11  O   UNL     1      39.062 -11.122   3.920  1.00  0.00    -0.267 OA
BRANCH   9  12
HETATM   12  C   UNL     1      41.285 -10.161   5.396  1.00  0.00     0.114 C 
HETATM   13  C   UNL     1      41.480  -8.831   4.666  1.00  0.00     0.037 C 
BRANCH  12  14
HETATM   14  C   UNL     1      42.353 -10.363   6.456  1.00  0.00    -0.036 A 
HETATM   15  C   UNL     1      42.328  -9.596   7.628  1.00  0.00     0.012 A 
HETATM   16  C   UNL     1      43.307  -9.765   8.611  1.00  0.00     0.037 A 
HETATM   17  C   UNL     1      44.325 -10.706   8.450  1.00  0.00     0.068 A 
HETATM   18  C   UNL     1      44.363 -11.472   7.285  1.00  0.00     0.037 A 
HETATM   19  C   UNL     1      43.388 -11.299   6.296  1.00  0.00     0.012 A 
BRANCH  17  20
HETATM   20  O   UNL     1      45.212 -10.774   9.489  1.00  0.00    -0.356 OA
HETATM   21  C   UNL     1      45.144  -9.738  10.460  1.00  0.00     0.210 C 
ENDBRANCH  17  20
ENDBRANCH  12  14
ENDBRANCH   9  12
ENDBRANCH   1   8
BRANCH   4  22
HETATM   22  C   UNL     1      42.472 -15.907   1.698  1.00  0.00     0.257 C 
HETATM   23  N   UNL     1      42.317 -16.809   2.721  1.00  0.00    -0.352 N 
HETATM   24  H   UNL     1      41.644 -16.576   3.450  1.00  0.00     0.163 HD
HETATM   25  O   UNL     1      43.329 -16.003   0.825  1.00  0.00    -0.267 OA
BRANCH  23  26
HETATM   26  C   UNL     1      43.212 -17.933   2.994  1.00  0.00     0.084 C 
HETATM   27  C   UNL     1      43.542 -18.058   4.487  1.00  0.00     0.025 C 
HETATM   28  C   UNL     1      44.546 -19.158   4.835  1.00  0.00     0.002 C 
HETATM   29  C   UNL     1      43.956 -20.559   4.709  1.00  0.00     0.000 C 
HETATM   30  C   UNL     1      44.046 -21.178   3.318  1.00  0.00     0.000 C 
HETATM   31  C   UNL     1      43.779 -20.262   2.128  1.00  0.00     0.002 C 
HETATM   32  C   UNL     1      42.685 -19.218   2.336  1.00  0.00     0.025 C 
ENDBRANCH  23  26
ENDBRANCH   4  22
BRANCH   6  33
HETATM   33  C   UNL     1      39.286 -13.176  -0.808  1.00  0.00     0.089 A 
HETATM   34  C   UNL     1      39.877 -12.181  -1.775  1.00  0.00     0.028 A 
HETATM   35  C   UNL     1      39.894 -13.642  -2.106  1.00  0.00     0.028 A 
ENDBRANCH   6  33
TORSDOF 7
ENDMDL
MODEL 6
REMARK VINA RESULT:      -8.8      3.920      8.656
REMARK  7 active torsions:
REMARK  status: ('A' for Active; 'I' for Inactive)
REMARK    1  A    between atoms: C_2  and  N_3 
REMARK    2  A    between atoms: C_2  and  C_26 
REMARK       I    between atoms: N_3  and  C_4 
REMARK    3  A    between atoms: C_4  and  C_5 
REMARK    4  A    between atoms: C_8  and  C_9 
REMARK       I    between atoms: C_9  and  N_10 
REMARK    5  A    between atoms: N_10  and  C_11 
REMARK    6  A    between atoms: N_20  and  C_21 
REMARK    7  A    between atoms: C_29  and  O_30 
ROOT
HETATM    1  C   UNL     1      43.231 -11.322   7.233  1.00  0.00     0.098 A 
HETATM    2  C   UNL     1      43.518 -12.541   6.415  1.00  0.00     0.206 A 
HETATM    3  O   UNL     1      44.404 -13.332   6.747  1.00  0.00    -0.286 OA
HETATM    4  C   UNL     1      42.720 -12.766   5.171  1.00  0.00     0.098 A 
HETATM    5  C   UNL     1      41.712 -11.909   4.932  1.00  0.00     0.112 A 
HETATM    6  N   UNL     1      41.382 -10.862   5.769  1.00  0.00    -0.360 N 
HETATM    7  C   UNL     1      42.186 -10.568   6.851  1.00  0.00     0.112 A 
ENDROOT
BRANCH   1   8
HETATM    8  C   UNL     1      44.035 -10.880   8.406  1.00  0.00     0.257 C 
HETATM    9  N   UNL     1      43.318 -10.313   9.427  1.00  0.00    -0.348 N 
HETATM   10  H   UNL     1      42.307 -10.247   9.330  1.00  0.00     0.163 HD
HETATM   11  O   UNL     1      45.253 -11.034   8.449  1.00  0.00    -0.267 OA
BRANCH   9  12
HETATM   12  C   UNL     1      43.910  -9.961  10.705  1.00  0.00     0.114 C 
HETATM   13  C   UNL     1      43.715 -11.084  11.727  1.00  0.00     0.037 C 
BRANCH  12  14
HETATM   14  C   UNL     1      43.338  -8.652  11.218  1.00  0.00    -0.036 A 
HETATM   15  C   UNL     1      42.846  -7.703  10.313  1.00  0.00     0.012 A 
HETATM   16  C   UNL     1      42.321  -6.490  10.767  1.00  0.00     0.037 A 
HETATM   17  C   UNL     1      42.270  -6.201  12.132  1.00  0.00     0.068 A 
HETATM   18  C   UNL     1      42.763  -7.135  13.042  1.00  0.00     0.037 A 
HETATM   19  C   UNL     1      43.295  -8.348  12.589  1.00  0.00     0.012 A 
BRANCH  17  20
HETATM   20  O   UNL     1      41.728  -4.984  12.440  1.00  0.00    -0.356 OA
HETATM   21  C   UNL     1      40.406  -4.984  12.964  1.00  0.00     0.210 C 
ENDBRANCH  17  20
ENDBRANCH  12  14
ENDBRANCH   9  12
ENDBRANCH   1   8
BRANCH   4  22
HETATM   22  C   UNL     1      42.978 -13.852   4.185  1.00  0.00     0.257 C 
HETATM   23  N   UNL     1      43.133 -15.104   4.727  1.00  0.00    -0.352 N 
HETATM   24  H   UNL     1      43.162 -15.170   5.744  1.00  0.00     0.163 HD
HETATM   25  O   UNL     1      43.047 -13.614   2.983  1.00  0.00    -0.267 OA
BRANCH  23  26
HETATM   26  C   UNL     1      43.523 -16.301   3.983  1.00  0.00     0.084 C 
HETATM   27  C   UNL     1      44.233 -17.328   4.874  1.00  0.00     0.025 C 
HETATM   28  C   UNL     1      44.750 -18.568   4.143  1.00  0.00     0.002 C 
HETATM   29  C   UNL     1      43.630 -19.511   3.715  1.00  0.00     0.000 C 
HETATM   30  C   UNL     1      43.006 -19.202   2.357  1.00  0.00     0.000 C 
HETATM   31  C   UNL     1      42.772 -17.735   2.014  1.00  0.00     0.002 C 
HETATM   32  C   UNL     1      42.334 -16.851   3.180  1.00  0.00     0.025 C 
ENDBRANCH  23  26
ENDBRANCH   4  22
BRANCH   6  33
HETATM   33  C   UNL     1      40.320  -9.927   5.376  1.00  0.00     0.089 A 
HETATM   34  C   UNL     1      38.885 -10.151   5.781  1.00  0.00     0.028 A 
HETATM   35  C   UNL     1      39.658  -9.012   6.374  1.00  0.00     0.028 A 
ENDBRANCH   6  33
TORSDOF 7
ENDMDL
MODEL 7
REMARK VINA RESULT:      -8.7      1.938      6.353
REMARK  7 active torsions:
REMARK  status: ('A' for Active; 'I' for Inactive)
REMARK    1  A    between atoms: C_2  and  N_3 
REMARK    2  A    between atoms: C_2  and  C_26 
REMARK       I    between atoms: N_3  and  C_4 
REMARK    3  A    between atoms: C_4  and  C_5 
REMARK    4  A    between atoms: C_8  and  C_9 
REMARK       I    between atoms: C_9  and  N_10 
REMARK    5  A    between atoms: N_10  and  C_11 
REMARK    6  A    between atoms: N_20  and  C_21 
REMARK    7  A    between atoms: C_29  and  O_30 
ROOT
HETATM    1  C   UNL     1      41.226 -14.448   2.974  1.00  0.00     0.098 A 
HETATM    2  C   UNL     1      41.597 -13.840   4.289  1.00  0.00     0.206 A 
HETATM    3  O   UNL     1      40.968 -12.882   4.743  1.00  0.00    -0.286 OA
HETATM    4  C   UNL     1      42.765 -14.407   5.029  1.00  0.00     0.098 A 
HETATM    5  C   UNL     1      43.337 -15.508   4.512  1.00  0.00     0.112 A 
HETATM    6  N   UNL     1      42.897 -16.131   3.362  1.00  0.00    -0.360 N 
HETATM    7  C   UNL     1      41.903 -15.548   2.603  1.00  0.00     0.112 A 
ENDROOT
BRANCH   1   8
HETATM    8  C   UNL     1      40.192 -13.905   2.050  1.00  0.00     0.257 C 
HETATM    9  N   UNL     1      40.605 -13.711   0.758  1.00  0.00    -0.348 N 
HETATM   10  H   UNL     1      41.561 -13.960   0.513  1.00  0.00     0.163 HD
HETATM   11  O   UNL     1      39.048 -13.668   2.430  1.00  0.00    -0.267 OA
BRANCH   9  12
HETATM   12  C   UNL     1      39.698 -13.331  -0.311  1.00  0.00     0.114 C 
HETATM   13  C   UNL     1      39.490 -14.490  -1.289  1.00  0.00     0.037 C 
BRANCH  12  14
HETATM   14  C   UNL     1      40.205 -12.094  -1.029  1.00  0.00    -0.036 A 
HETATM   15  C   UNL     1      39.933 -11.917  -2.392  1.00  0.00     0.012 A 
HETATM   16  C   UNL     1      40.398 -10.787  -3.070  1.00  0.00     0.037 A 
HETATM   17  C   UNL     1      41.138  -9.809  -2.403  1.00  0.00     0.068 A 
HETATM   18  C   UNL     1      41.421  -9.977  -1.048  1.00  0.00     0.037 A 
HETATM   19  C   UNL     1      40.962 -11.112  -0.369  1.00  0.00     0.012 A 
BRANCH  17  20
HETATM   20  O   UNL     1      41.526  -8.753  -3.182  1.00  0.00    -0.356 OA
HETATM   21  C   UNL     1      42.352  -7.772  -2.569  1.00  0.00     0.210 C 
ENDBRANCH  17  20
ENDBRANCH  12  14
ENDBRANCH   9  12
ENDBRANCH   1   8
BRANCH   4  22
HETATM   22  C   UNL     1      43.340 -13.827   6.275  1.00  0.00     0.257 C 
HETATM   23  N   UNL     1      43.790 -12.535   6.160  1.00  0.00    -0.352 N 
HETATM   24  H   UNL     1      43.789 -12.123   5.228  1.00  0.00     0.163 HD
HETATM   25  O   UNL     1      43.400 -14.482   7.312  1.00  0.00    -0.267 OA
BRANCH  23  26
HETATM   26  C   UNL     1      44.510 -11.798   7.199  1.00  0.00     0.084 C 
HETATM   27  C   UNL     1      45.830 -11.214   6.681  1.00  0.00     0.025 C 
HETATM   28  C   UNL     1      46.679 -10.506   7.738  1.00  0.00     0.002 C 
HETATM   29  C   UNL     1      46.095  -9.164   8.165  1.00  0.00     0.000 C 
HETATM   30  C   UNL     1      45.078  -9.231   9.300  1.00  0.00     0.000 C 
HETATM   31  C   UNL     1      44.080 -10.384   9.275  1.00  0.00     0.002 C 
HETATM   32  C   UNL     1      43.580 -10.789   7.891  1.00  0.00     0.025 C 
ENDBRANCH  23  26
ENDBRANCH   4  22
BRANCH   6  33
HETATM   33  C   UNL     1      43.642 -17.278   2.828  1.00  0.00     0.089 A 
HETATM   34  C   UNL     1      43.691 -18.595   3.560  1.00  0.00     0.028 A 
HETATM   35  C   UNL     1      42.942 -18.489   2.267  1.00  0.00     0.028 A 
ENDBRANCH   6  33
TORSDOF 7
ENDMDL
MODEL 8
REMARK VINA RESULT:      -8.7      3.562      8.594
REMARK  7 active torsions:
REMARK  status: ('A' for Active; 'I' for Inactive)
REMARK    1  A    between atoms: C_2  and  N_3 
REMARK    2  A    between atoms: C_2  and  C_26 
REMARK       I    between atoms: N_3  and  C_4 
REMARK    3  A    between atoms: C_4  and  C_5 
REMARK    4  A    between atoms: C_8  and  C_9 
REMARK       I    between atoms: C_9  and  N_10 
REMARK    5  A    between atoms: N_10  and  C_11 
REMARK    6  A    between atoms: N_20  and  C_21 
REMARK    7  A    between atoms: C_29  and  O_30 
ROOT
HETATM    1  C   UNL     1      42.955 -11.434   4.849  1.00  0.00     0.098 A 
HETATM    2  C   UNL     1      43.477 -11.493   6.250  1.00  0.00     0.206 A 
HETATM    3  O   UNL     1      44.259 -12.380   6.596  1.00  0.00    -0.286 OA
HETATM    4  C   UNL     1      43.009 -10.462   7.226  1.00  0.00     0.098 A 
HETATM    5  C   UNL     1      42.232  -9.476   6.744  1.00  0.00     0.112 A 
HETATM    6  N   UNL     1      41.866  -9.368   5.418  1.00  0.00    -0.360 N 
HETATM    7  C   UNL     1      42.185 -10.378   4.533  1.00  0.00     0.112 A 
ENDROOT
BRANCH   1   8
HETATM    8  C   UNL     1      43.204 -12.469   3.807  1.00  0.00     0.257 C 
HETATM    9  N   UNL     1      42.341 -13.533   3.822  1.00  0.00    -0.348 N 
HETATM   10  H   UNL     1      41.596 -13.542   4.514  1.00  0.00     0.163 HD
HETATM   11  O   UNL     1      44.111 -12.353   2.988  1.00  0.00    -0.267 OA
BRANCH   9  12
HETATM   12  C   UNL     1      42.338 -14.559   2.794  1.00  0.00     0.114 C 
HETATM   13  C   UNL     1      40.924 -14.791   2.257  1.00  0.00     0.037 C 
BRANCH  12  14
HETATM   14  C   UNL     1      42.939 -15.849   3.323  1.00  0.00    -0.036 A 
HETATM   15  C   UNL     1      43.150 -16.929   2.456  1.00  0.00     0.012 A 
HETATM   16  C   UNL     1      43.696 -18.126   2.928  1.00  0.00     0.037 A 
HETATM   17  C   UNL     1      44.049 -18.267   4.270  1.00  0.00     0.068 A 
HETATM   18  C   UNL     1      43.839 -17.202   5.144  1.00  0.00     0.037 A 
HETATM   19  C   UNL     1      43.285 -16.005   4.676  1.00  0.00     0.012 A 
BRANCH  17  20
HETATM   20  O   UNL     1      44.578 -19.486   4.597  1.00  0.00    -0.356 OA
HETATM   21  C   UNL     1      43.907 -20.227   5.608  1.00  0.00     0.210 C 
ENDBRANCH  17  20
ENDBRANCH  12  14
ENDBRANCH   9  12
ENDBRANCH   1   8
BRANCH   4  22
HETATM   22  C   UNL     1      43.328 -10.468   8.681  1.00  0.00     0.257 C 
HETATM   23  N   UNL     1      42.377  -9.889   9.486  1.00  0.00    -0.352 N 
HETATM   24  H   UNL     1      41.598  -9.422   9.024  1.00  0.00     0.163 HD
HETATM   25  O   UNL     1      44.373 -10.955   9.100  1.00  0.00    -0.267 OA
BRANCH  23  26
HETATM   26  C   UNL     1      42.519  -9.657  10.923  1.00  0.00     0.084 C 
HETATM   27  C   UNL     1      43.330  -8.391  11.225  1.00  0.00     0.025 C 
HETATM   28  C   UNL     1      43.595  -8.134  12.709  1.00  0.00     0.002 C 
HETATM   29  C   UNL     1      42.349  -7.680  13.462  1.00  0.00     0.000 C 
HETATM   30  C   UNL     1      41.475  -8.805  14.007  1.00  0.00     0.000 C 
HETATM   31  C   UNL     1      41.274 -10.026  13.116  1.00  0.00     0.002 C 
HETATM   32  C   UNL     1      41.153  -9.735  11.622  1.00  0.00     0.025 C 
ENDBRANCH  23  26
ENDBRANCH   4  22
BRANCH   6  33
HETATM   33  C   UNL     1      40.942  -8.305   5.005  1.00  0.00     0.089 A 
HETATM   34  C   UNL     1      41.446  -6.963   4.536  1.00  0.00     0.028 A 
HETATM   35  C   UNL     1      40.794  -7.896   3.562  1.00  0.00     0.028 A 
ENDBRANCH   6  33
TORSDOF 7
ENDMDL
MODEL 9
REMARK VINA RESULT:      -8.6      2.317      7.609
REMARK  7 active torsions:
REMARK  status: ('A' for Active; 'I' for Inactive)
REMARK    1  A    between atoms: C_2  and  N_3 
REMARK    2  A    between atoms: C_2  and  C_26 
REMARK       I    between atoms: N_3  and  C_4 
REMARK    3  A    between atoms: C_4  and  C_5 
REMARK    4  A    between atoms: C_8  and  C_9 
REMARK       I    between atoms: C_9  and  N_10 
REMARK    5  A    between atoms: N_10  and  C_11 
REMARK    6  A    between atoms: N_20  and  C_21 
REMARK    7  A    between atoms: C_29  and  O_30 
ROOT
HETATM    1  C   UNL     1      41.172 -13.915   5.389  1.00  0.00     0.098 A 
HETATM    2  C   UNL     1      40.875 -13.779   3.929  1.00  0.00     0.206 A 
HETATM    3  O   UNL     1      40.809 -14.773   3.203  1.00  0.00    -0.286 OA
HETATM    4  C   UNL     1      40.684 -12.408   3.367  1.00  0.00     0.098 A 
HETATM    5  C   UNL     1      40.678 -11.387   4.242  1.00  0.00     0.112 A 
HETATM    6  N   UNL     1      40.826 -11.546   5.605  1.00  0.00    -0.360 N 
HETATM    7  C   UNL     1      41.129 -12.789   6.123  1.00  0.00     0.112 A 
ENDROOT
BRANCH   1   8
HETATM    8  C   UNL     1      41.536 -15.190   6.066  1.00  0.00     0.257 C 
HETATM    9  N   UNL     1      42.791 -15.664   5.785  1.00  0.00    -0.348 N 
HETATM   10  H   UNL     1      43.385 -15.122   5.162  1.00  0.00     0.163 HD
HETATM   11  O   UNL     1      40.762 -15.757   6.833  1.00  0.00    -0.267 OA
BRANCH   9  12
HETATM   12  C   UNL     1      43.371 -16.809   6.465  1.00  0.00     0.114 C 
HETATM   13  C   UNL     1      44.701 -16.437   7.124  1.00  0.00     0.037 C 
BRANCH  12  14
HETATM   14  C   UNL     1      43.543 -17.971   5.504  1.00  0.00    -0.036 A 
HETATM   15  C   UNL     1      43.547 -17.741   4.123  1.00  0.00     0.012 A 
HETATM   16  C   UNL     1      43.698 -18.801   3.224  1.00  0.00     0.037 A 
HETATM   17  C   UNL     1      43.856 -20.109   3.684  1.00  0.00     0.068 A 
HETATM   18  C   UNL     1      43.848 -20.351   5.057  1.00  0.00     0.037 A 
HETATM   19  C   UNL     1      43.690 -19.293   5.959  1.00  0.00     0.012 A 
BRANCH  17  20
HETATM   20  O   UNL     1      44.001 -21.048   2.700  1.00  0.00    -0.356 OA
HETATM   21  C   UNL     1      43.633 -20.660   1.383  1.00  0.00     0.210 C 
ENDBRANCH  17  20
ENDBRANCH  12  14
ENDBRANCH   9  12
ENDBRANCH   1   8
BRANCH   4  22
HETATM   22  C   UNL     1      40.520 -12.102   1.918  1.00  0.00     0.257 C 
HETATM   23  N   UNL     1      39.760 -13.005   1.217  1.00  0.00    -0.352 N 
HETATM   24  H   UNL     1      39.463 -13.846   1.710  1.00  0.00     0.163 HD
HETATM   25  O   UNL     1      41.042 -11.111   1.416  1.00  0.00    -0.267 OA
BRANCH  23  26
HETATM   26  C   UNL     1      39.565 -12.995  -0.233  1.00  0.00     0.084 C 
HETATM   27  C   UNL     1      39.647 -14.403  -0.835  1.00  0.00     0.025 C 
HETATM   28  C   UNL     1      39.542 -14.458  -2.360  1.00  0.00     0.002 C 
HETATM   29  C   UNL     1      38.132 -14.176  -2.866  1.00  0.00     0.000 C 
HETATM   30  C   UNL     1      37.805 -12.702  -3.086  1.00  0.00     0.000 C 
HETATM   31  C   UNL     1      38.323 -11.711  -2.050  1.00  0.00     0.002 C 
HETATM   32  C   UNL     1      38.302 -12.202  -0.605  1.00  0.00     0.025 C 
ENDBRANCH  23  26
ENDBRANCH   4  22
BRANCH   6  33
HETATM   33  C   UNL     1      40.895 -10.362   6.470  1.00  0.00     0.089 A 
HETATM   34  C   UNL     1      42.216  -9.800   6.931  1.00  0.00     0.028 A 
HETATM   35  C   UNL     1      41.379  -9.030   5.956  1.00  0.00     0.028 A 
ENDBRANCH   6  33
TORSDOF 7
ENDMDL
MODEL 10
REMARK VINA RESULT:      -8.5      3.409      8.702
REMARK  7 active torsions:
REMARK  status: ('A' for Active; 'I' for Inactive)
REMARK    1  A    between atoms: C_2  and  N_3 
REMARK    2  A    between atoms: C_2  and  C_26 
REMARK       I    between atoms: N_3  and  C_4 
REMARK    3  A    between atoms: C_4  and  C_5 
REMARK    4  A    between atoms: C_8  and  C_9 
REMARK       I    between atoms: C_9  and  N_10 
REMARK    5  A    between atoms: N_10  and  C_11 
REMARK    6  A    between atoms: N_20  and  C_21 
REMARK    7  A    between atoms: C_29  and  O_30 
ROOT
HETATM    1  C   UNL     1      42.245 -11.301   4.474  1.00  0.00     0.098 A 
HETATM    2  C   UNL     1      42.722 -10.623   5.719  1.00  0.00     0.206 A 
HETATM    3  O   UNL     1      43.881 -10.770   6.115  1.00  0.00    -0.286 OA
HETATM    4  C   UNL     1      41.753  -9.782   6.486  1.00  0.00     0.098 A 
HETATM    5  C   UNL     1      40.540  -9.599   5.936  1.00  0.00     0.112 A 
HETATM    6  N   UNL     1      40.161 -10.129   4.720  1.00  0.00    -0.360 N 
HETATM    7  C   UNL     1      40.998 -11.008   4.065  1.00  0.00     0.112 A 
ENDROOT
BRANCH   1   8
HETATM    8  C   UNL     1      43.038 -12.287   3.688  1.00  0.00     0.257 C 
HETATM    9  N   UNL     1      42.509 -13.549   3.629  1.00  0.00    -0.348 N 
HETATM   10  H   UNL     1      41.624 -13.726   4.099  1.00  0.00     0.163 HD
HETATM   11  O   UNL     1      44.082 -11.971   3.124  1.00  0.00    -0.267 OA
BRANCH   9  12
HETATM   12  C   UNL     1      43.063 -14.597   2.790  1.00  0.00     0.114 C 
HETATM   13  C   UNL     1      42.158 -14.869   1.586  1.00  0.00     0.037 C 
BRANCH  12  14
HETATM   14  C   UNL     1      43.293 -15.863   3.596  1.00  0.00    -0.036 A 
HETATM   15  C   UNL     1      43.389 -17.099   2.944  1.00  0.00     0.012 A 
HETATM   16  C   UNL     1      43.595 -18.274   3.672  1.00  0.00     0.037 A 
HETATM   17  C   UNL     1      43.716 -18.241   5.061  1.00  0.00     0.068 A 
HETATM   18  C   UNL     1      43.617 -17.018   5.722  1.00  0.00     0.037 A 
HETATM   19  C   UNL     1      43.403 -15.840   4.997  1.00  0.00     0.012 A 
BRANCH  17  20
HETATM   20  O   UNL     1      43.921 -19.460   5.648  1.00  0.00    -0.356 OA
HETATM   21  C   UNL     1      44.174 -20.556   4.779  1.00  0.00     0.210 C 
ENDBRANCH  17  20
ENDBRANCH  12  14
ENDBRANCH   9  12
ENDBRANCH   1   8
BRANCH   4  22
HETATM   22  C   UNL     1      42.035  -9.158   7.809  1.00  0.00     0.257 C 
HETATM   23  N   UNL     1      41.445  -9.781   8.882  1.00  0.00    -0.352 N 
HETATM   24  H   UNL     1      40.794 -10.538   8.680  1.00  0.00     0.163 HD
HETATM   25  O   UNL     1      42.742  -8.159   7.902  1.00  0.00    -0.267 OA
BRANCH  23  26
HETATM   26  C   UNL     1      41.464  -9.285  10.258  1.00  0.00     0.084 C 
HETATM   27  C   UNL     1      40.120  -9.499  10.965  1.00  0.00     0.025 C 
HETATM   28  C   UNL     1      40.039  -8.923  12.380  1.00  0.00     0.002 C 
HETATM   29  C   UNL     1      40.854  -9.721  13.392  1.00  0.00     0.000 C 
HETATM   30  C   UNL     1      42.318  -9.311  13.512  1.00  0.00     0.000 C 
HETATM   31  C   UNL     1      43.057  -8.971  12.222  1.00  0.00     0.002 C 
HETATM   32  C   UNL     1      42.689  -9.826  11.012  1.00  0.00     0.025 C 
ENDBRANCH  23  26
ENDBRANCH   4  22
BRANCH   6  33
HETATM   33  C   UNL     1      38.784  -9.946   4.247  1.00  0.00     0.089 A 
HETATM   34  C   UNL     1      38.431  -8.869   3.252  1.00  0.00     0.028 A 
HETATM   35  C   UNL     1      38.371 -10.309   2.844  1.00  0.00     0.028 A 
ENDBRANCH   6  33
TORSDOF 7
ENDMDL
