MODEL 1
REMARK VINA RESULT:     -10.0      0.000      0.000
REMARK  6 active torsions:
REMARK  status: ('A' for Active; 'I' for Inactive)
REMARK    1  A    between atoms: C_2  and  N_3 
REMARK    2  A    between atoms: C_11  and  C_12 
REMARK    3  A    between atoms: C_14  and  C_15 
REMARK    4  A    between atoms: C_15  and  O_16 
REMARK    5  A    between atoms: O_16  and  C_17 
REMARK    6  A    between atoms: C_19  and  C_20 
ROOT
HETATM    1  N   UNL     1      41.132 -12.477  -1.769  1.00  0.00    -0.067 N 
HETATM    2  H   UNL     1      42.051 -12.910  -1.610  1.00  0.00     0.280 HD
HETATM    3  C   UNL     1      41.036 -11.308  -0.788  1.00  0.00     0.281 C 
HETATM    4  C   UNL     1      40.855 -11.792   0.610  1.00  0.00     0.018 A 
HETATM    5  C   UNL     1      40.513 -13.082   0.971  1.00  0.00    -0.023 A 
HETATM    6  C   UNL     1      40.365 -13.202   2.389  1.00  0.00     0.073 A 
HETATM    7  C   UNL     1      40.583 -12.005   3.029  1.00  0.00     0.088 A 
HETATM    8  N   UNL     1      40.458 -11.847   4.361  1.00  0.00    -0.357 N 
HETATM    9  C   UNL     1      40.418 -13.019   5.219  1.00  0.00     0.243 C 
HETATM   10  N   UNL     1      39.834 -14.134   4.515  1.00  0.00    -0.330 N 
HETATM   11  C   UNL     1      39.990 -14.362   3.178  1.00  0.00     0.256 C 
HETATM   12  O   UNL     1      39.787 -15.463   2.676  1.00  0.00    -0.267 OA
HETATM   13  S   UNL     1      40.998 -10.755   1.953  1.00  0.00    -0.074 SA
HETATM   14  C   UNL     1      40.324 -14.155  -0.057  1.00  0.00     0.068 C 
HETATM   15  C   UNL     1      40.088 -13.555  -1.453  1.00  0.00     0.240 C 
HETATM   16  H   UNL     1      40.788 -10.999   4.813  1.00  0.00     0.162 HD
HETATM   17  H   UNL     1      39.668 -14.967   5.062  1.00  0.00     0.165 HD
ENDROOT
BRANCH   9  18
HETATM   18  C   UNL     1      41.726 -13.455   5.799  1.00  0.00     0.095 A 
HETATM   19  O   UNL     1      41.908 -14.806   5.914  1.00  0.00    -0.313 OA
HETATM   20  C   UNL     1      43.126 -15.007   6.495  1.00  0.00     0.077 A 
HETATM   21  C   UNL     1      43.732 -13.793   6.742  1.00  0.00     0.037 A 
HETATM   22  C   UNL     1      42.834 -12.795   6.290  1.00  0.00     0.039 A 
BRANCH  20  23
HETATM   23  C   UNL     1      43.526 -16.419   6.734  1.00  0.00     0.240 C 
BRANCH  23  24
HETATM   24  O   UNL     1      44.499 -16.736   5.742  1.00  0.00    -0.345 OA
BRANCH  24  25
HETATM   25  C   UNL     1      44.038 -17.188   4.537  1.00  0.00     0.070 A 
HETATM   26  C   UNL     1      43.971 -18.522   4.128  1.00  0.00     0.052 A 
HETATM   27  C   UNL     1      43.476 -18.856   2.853  1.00  0.00     0.050 A 
HETATM   28  C   UNL     1      43.046 -17.832   1.996  1.00  0.00     0.016 A 
HETATM   29  C   UNL     1      43.109 -16.502   2.403  1.00  0.00     0.004 A 
HETATM   30  C   UNL     1      43.601 -16.185   3.668  1.00  0.00     0.037 A 
BRANCH  27  31
HETATM   31  C   UNL     1      43.400 -20.294   2.401  1.00  0.00     0.417 C 
HETATM   32  F   UNL     1      44.342 -20.618   1.470  1.00  0.00    -0.166 F 
HETATM   33  F   UNL     1      43.572 -21.173   3.425  1.00  0.00    -0.166 F 
HETATM   34  F   UNL     1      42.199 -20.601   1.837  1.00  0.00    -0.166 F 
ENDBRANCH  27  31
ENDBRANCH  24  25
ENDBRANCH  23  24
ENDBRANCH  20  23
ENDBRANCH   9  18
BRANCH   1  35
HETATM   35  C   UNL     1      41.056 -12.052  -3.215  1.00  0.00     0.231 C 
HETATM   36  C   UNL     1      40.683 -10.586  -3.336  1.00  0.00     0.034 C 
ENDBRANCH   1  35
TORSDOF 6
ENDMDL
MODEL 2
REMARK VINA RESULT:      -9.7      4.097      7.541
REMARK  6 active torsions:
REMARK  status: ('A' for Active; 'I' for Inactive)
REMARK    1  A    between atoms: C_2  and  N_3 
REMARK    2  A    between atoms: C_11  and  C_12 
REMARK    3  A    between atoms: C_14  and  C_15 
REMARK    4  A    between atoms: C_15  and  O_16 
REMARK    5  A    between atoms: O_16  and  C_17 
REMARK    6  A    between atoms: C_19  and  C_20 
ROOT
HETATM    1  N   UNL     1      42.120  -8.819  12.069  1.00  0.00    -0.067 N 
HETATM    2  H   UNL     1      41.722  -9.757  12.208  1.00  0.00     0.280 HD
HETATM    3  C   UNL     1      41.379  -8.215  10.876  1.00  0.00     0.281 C 
HETATM    4  C   UNL     1      41.795  -8.863   9.599  1.00  0.00     0.018 A 
HETATM    5  C   UNL     1      42.902  -9.675   9.441  1.00  0.00    -0.023 A 
HETATM    6  C   UNL     1      43.050 -10.090   8.079  1.00  0.00     0.073 A 
HETATM    7  C   UNL     1      42.068  -9.563   7.275  1.00  0.00     0.088 A 
HETATM    8  N   UNL     1      42.015  -9.767   5.944  1.00  0.00    -0.357 N 
HETATM    9  C   UNL     1      42.803 -10.834   5.353  1.00  0.00     0.243 C 
HETATM   10  N   UNL     1      44.005 -11.052   6.121  1.00  0.00    -0.330 N 
HETATM   11  C   UNL     1      44.082 -10.916   7.478  1.00  0.00     0.256 C 
HETATM   12  O   UNL     1      44.985 -11.425   8.134  1.00  0.00    -0.267 OA
HETATM   13  S   UNL     1      40.955  -8.612   8.140  1.00  0.00    -0.074 SA
HETATM   14  C   UNL     1      43.792 -10.016  10.596  1.00  0.00     0.068 C 
HETATM   15  C   UNL     1      43.607  -9.022  11.755  1.00  0.00     0.240 C 
HETATM   16  H   UNL     1      41.189  -9.505   5.414  1.00  0.00     0.162 HD
HETATM   17  H   UNL     1      44.670 -11.705   5.731  1.00  0.00     0.165 HD
ENDROOT
BRANCH   9  18
HETATM   18  C   UNL     1      42.108 -12.146   5.177  1.00  0.00     0.095 A 
HETATM   19  O   UNL     1      42.373 -12.812   4.011  1.00  0.00    -0.313 OA
HETATM   20  C   UNL     1      41.624 -13.952   4.011  1.00  0.00     0.077 A 
HETATM   21  C   UNL     1      40.890 -14.029   5.175  1.00  0.00     0.037 A 
HETATM   22  C   UNL     1      41.204 -12.871   5.928  1.00  0.00     0.039 A 
BRANCH  20  23
HETATM   23  C   UNL     1      41.744 -14.829   2.816  1.00  0.00     0.240 C 
BRANCH  23  24
HETATM   24  O   UNL     1      43.104 -15.252   2.761  1.00  0.00    -0.345 OA
BRANCH  24  25
HETATM   25  C   UNL     1      43.394 -16.490   3.263  1.00  0.00     0.070 A 
HETATM   26  C   UNL     1      43.287 -17.703   2.577  1.00  0.00     0.052 A 
HETATM   27  C   UNL     1      43.614 -18.916   3.212  1.00  0.00     0.050 A 
HETATM   28  C   UNL     1      44.054 -18.894   4.544  1.00  0.00     0.016 A 
HETATM   29  C   UNL     1      44.165 -17.687   5.228  1.00  0.00     0.004 A 
HETATM   30  C   UNL     1      43.837 -16.492   4.587  1.00  0.00     0.037 A 
BRANCH  27  31
HETATM   31  C   UNL     1      43.501 -20.231   2.480  1.00  0.00     0.417 C 
HETATM   32  F   UNL     1      43.636 -21.315   3.296  1.00  0.00    -0.166 F 
HETATM   33  F   UNL     1      42.301 -20.381   1.857  1.00  0.00    -0.166 F 
HETATM   34  F   UNL     1      44.449 -20.373   1.514  1.00  0.00    -0.166 F 
ENDBRANCH  27  31
ENDBRANCH  24  25
ENDBRANCH  23  24
ENDBRANCH  20  23
ENDBRANCH   9  18
BRANCH   1  35
HETATM   35  C   UNL     1      41.934  -8.037  13.346  1.00  0.00     0.231 C 
HETATM   36  C   UNL     1      43.218  -7.337  13.751  1.00  0.00     0.034 C 
ENDBRANCH   1  35
TORSDOF 6
ENDMDL
MODEL 3
REMARK VINA RESULT:      -9.7      6.789      9.738
REMARK  6 active torsions:
REMARK  status: ('A' for Active; 'I' for Inactive)
REMARK    1  A    between atoms: C_2  and  N_3 
REMARK    2  A    between atoms: C_11  and  C_12 
REMARK    3  A    between atoms: C_14  and  C_15 
REMARK    4  A    between atoms: C_15  and  O_16 
REMARK    5  A    between atoms: O_16  and  C_17 
REMARK    6  A    between atoms: C_19  and  C_20 
ROOT
HETATM    1  N   UNL     1      44.310 -18.900   3.111  1.00  0.00    -0.067 N 
HETATM    2  H   UNL     1      45.286 -18.609   3.257  1.00  0.00     0.280 HD
HETATM    3  C   UNL     1      43.583 -17.679   2.546  1.00  0.00     0.281 C 
HETATM    4  C   UNL     1      43.388 -16.636   3.593  1.00  0.00     0.018 A 
HETATM    5  C   UNL     1      43.551 -16.829   4.952  1.00  0.00    -0.023 A 
HETATM    6  C   UNL     1      43.233 -15.642   5.686  1.00  0.00     0.073 A 
HETATM    7  C   UNL     1      42.832 -14.621   4.858  1.00  0.00     0.088 A 
HETATM    8  N   UNL     1      42.434 -13.416   5.311  1.00  0.00    -0.357 N 
HETATM    9  C   UNL     1      42.738 -13.032   6.679  1.00  0.00     0.243 C 
HETATM   10  N   UNL     1      42.787 -14.198   7.526  1.00  0.00    -0.330 N 
HETATM   11  C   UNL     1      43.242 -15.420   7.121  1.00  0.00     0.256 C 
HETATM   12  O   UNL     1      43.594 -16.282   7.920  1.00  0.00    -0.267 OA
HETATM   13  S   UNL     1      42.869 -15.059   3.215  1.00  0.00    -0.074 SA
HETATM   14  C   UNL     1      43.991 -18.149   5.505  1.00  0.00     0.068 C 
HETATM   15  C   UNL     1      43.764 -19.283   4.491  1.00  0.00     0.240 C 
HETATM   16  H   UNL     1      42.309 -12.639   4.669  1.00  0.00     0.162 HD
HETATM   17  H   UNL     1      42.890 -14.024   8.516  1.00  0.00     0.165 HD
ENDROOT
BRANCH   9  18
HETATM   18  C   UNL     1      43.994 -12.245   6.879  1.00  0.00     0.095 A 
HETATM   19  O   UNL     1      44.116 -11.610   8.084  1.00  0.00    -0.313 OA
HETATM   20  C   UNL     1      45.291 -10.918   8.065  1.00  0.00     0.077 A 
HETATM   21  C   UNL     1      45.931 -11.115   6.859  1.00  0.00     0.037 A 
HETATM   22  C   UNL     1      45.099 -11.972   6.098  1.00  0.00     0.039 A 
BRANCH  20  23
HETATM   23  C   UNL     1      45.622 -10.131   9.283  1.00  0.00     0.240 C 
BRANCH  23  24
HETATM   24  O   UNL     1      44.584 -10.389  10.224  1.00  0.00    -0.345 OA
BRANCH  24  25
HETATM   25  C   UNL     1      43.939  -9.306  10.756  1.00  0.00     0.070 A 
HETATM   26  C   UNL     1      43.605  -9.124  12.100  1.00  0.00     0.052 A 
HETATM   27  C   UNL     1      42.934  -7.960  12.520  1.00  0.00     0.050 A 
HETATM   28  C   UNL     1      42.609  -6.977  11.572  1.00  0.00     0.016 A 
HETATM   29  C   UNL     1      42.945  -7.155  10.232  1.00  0.00     0.004 A 
HETATM   30  C   UNL     1      43.609  -8.314   9.830  1.00  0.00     0.037 A 
BRANCH  27  31
HETATM   31  C   UNL     1      42.567  -7.754  13.969  1.00  0.00     0.417 C 
HETATM   32  F   UNL     1      41.400  -7.070  14.138  1.00  0.00    -0.166 F 
HETATM   33  F   UNL     1      42.412  -8.927  14.640  1.00  0.00    -0.166 F 
HETATM   34  F   UNL     1      43.512  -7.050  14.651  1.00  0.00    -0.166 F 
ENDBRANCH  27  31
ENDBRANCH  24  25
ENDBRANCH  23  24
ENDBRANCH  20  23
ENDBRANCH   9  18
BRANCH   1  35
HETATM   35  C   UNL     1      44.307 -20.084   2.175  1.00  0.00     0.231 C 
HETATM   36  C   UNL     1      42.891 -20.531   1.863  1.00  0.00     0.034 C 
ENDBRANCH   1  35
TORSDOF 6
ENDMDL
MODEL 4
REMARK VINA RESULT:      -9.5      5.651      8.917
REMARK  6 active torsions:
REMARK  status: ('A' for Active; 'I' for Inactive)
REMARK    1  A    between atoms: C_2  and  N_3 
REMARK    2  A    between atoms: C_11  and  C_12 
REMARK    3  A    between atoms: C_14  and  C_15 
REMARK    4  A    between atoms: C_15  and  O_16 
REMARK    5  A    between atoms: O_16  and  C_17 
REMARK    6  A    between atoms: C_19  and  C_20 
ROOT
HETATM    1  N   UNL     1      41.279  -6.957  13.281  1.00  0.00    -0.067 N 
HETATM    2  H   UNL     1      40.526  -7.571  12.945  1.00  0.00     0.280 HD
HETATM    3  C   UNL     1      41.834  -6.249  12.044  1.00  0.00     0.281 C 
HETATM    4  C   UNL     1      42.624  -7.188  11.197  1.00  0.00     0.018 A 
HETATM    5  C   UNL     1      43.069  -8.436  11.589  1.00  0.00    -0.023 A 
HETATM    6  C   UNL     1      43.846  -9.057  10.559  1.00  0.00     0.073 A 
HETATM    7  C   UNL     1      43.966  -8.250   9.453  1.00  0.00     0.088 A 
HETATM    8  N   UNL     1      44.689  -8.588   8.367  1.00  0.00    -0.357 N 
HETATM    9  C   UNL     1      45.094  -9.971   8.182  1.00  0.00     0.243 C 
HETATM   10  N   UNL     1      45.271 -10.616   9.460  1.00  0.00    -0.330 N 
HETATM   11  C   UNL     1      44.517 -10.344  10.566  1.00  0.00     0.256 C 
HETATM   12  O   UNL     1      44.449 -11.119  11.514  1.00  0.00    -0.267 OA
HETATM   13  S   UNL     1      43.130  -6.779   9.623  1.00  0.00    -0.074 SA
HETATM   14  C   UNL     1      42.748  -8.989  12.943  1.00  0.00     0.068 C 
HETATM   15  C   UNL     1      42.332  -7.873  13.916  1.00  0.00     0.240 C 
HETATM   16  H   UNL     1      44.617  -8.047   7.511  1.00  0.00     0.162 HD
HETATM   17  H   UNL     1      45.653 -11.551   9.437  1.00  0.00     0.165 HD
ENDROOT
BRANCH   9  18
HETATM   18  C   UNL     1      44.187 -10.816   7.346  1.00  0.00     0.095 A 
HETATM   19  O   UNL     1      44.436 -12.161   7.366  1.00  0.00    -0.313 OA
HETATM   20  C   UNL     1      43.545 -12.755   6.520  1.00  0.00     0.077 A 
HETATM   21  C   UNL     1      42.718 -11.801   5.967  1.00  0.00     0.037 A 
HETATM   22  C   UNL     1      43.127 -10.554   6.500  1.00  0.00     0.039 A 
BRANCH  20  23
HETATM   23  C   UNL     1      43.647 -14.232   6.373  1.00  0.00     0.240 C 
BRANCH  23  24
HETATM   24  O   UNL     1      42.541 -14.635   5.570  1.00  0.00    -0.345 OA
BRANCH  24  25
HETATM   25  C   UNL     1      42.823 -15.304   4.411  1.00  0.00     0.070 A 
HETATM   26  C   UNL     1      43.063 -16.674   4.288  1.00  0.00     0.052 A 
HETATM   27  C   UNL     1      43.347 -17.242   3.032  1.00  0.00     0.050 A 
HETATM   28  C   UNL     1      43.381 -16.415   1.899  1.00  0.00     0.016 A 
HETATM   29  C   UNL     1      43.138 -15.049   2.018  1.00  0.00     0.004 A 
HETATM   30  C   UNL     1      42.859 -14.500   3.270  1.00  0.00     0.037 A 
BRANCH  27  31
HETATM   31  C   UNL     1      43.609 -18.722   2.889  1.00  0.00     0.417 C 
HETATM   32  F   UNL     1      42.705 -19.355   2.088  1.00  0.00    -0.166 F 
HETATM   33  F   UNL     1      44.830 -18.986   2.352  1.00  0.00    -0.166 F 
HETATM   34  F   UNL     1      43.570 -19.376   4.082  1.00  0.00    -0.166 F 
ENDBRANCH  27  31
ENDBRANCH  24  25
ENDBRANCH  23  24
ENDBRANCH  20  23
ENDBRANCH   9  18
BRANCH   1  35
HETATM   35  C   UNL     1      40.694  -6.010  14.300  1.00  0.00     0.231 C 
HETATM   36  C   UNL     1      40.429  -6.716  15.615  1.00  0.00     0.034 C 
ENDBRANCH   1  35
TORSDOF 6
ENDMDL
MODEL 5
REMARK VINA RESULT:      -9.4      2.973      6.480
REMARK  6 active torsions:
REMARK  status: ('A' for Active; 'I' for Inactive)
REMARK    1  A    between atoms: C_2  and  N_3 
REMARK    2  A    between atoms: C_11  and  C_12 
REMARK    3  A    between atoms: C_14  and  C_15 
REMARK    4  A    between atoms: C_15  and  O_16 
REMARK    5  A    between atoms: O_16  and  C_17 
REMARK    6  A    between atoms: C_19  and  C_20 
ROOT
HETATM    1  N   UNL     1      43.206 -10.058   9.739  1.00  0.00    -0.067 N 
HETATM    2  H   UNL     1      43.018 -11.067   9.787  1.00  0.00     0.280 HD
HETATM    3  C   UNL     1      41.964  -9.422   9.114  1.00  0.00     0.281 C 
HETATM    4  C   UNL     1      41.873  -9.736   7.660  1.00  0.00     0.018 A 
HETATM    5  C   UNL     1      42.894 -10.260   6.891  1.00  0.00    -0.023 A 
HETATM    6  C   UNL     1      42.498 -10.391   5.521  1.00  0.00     0.073 A 
HETATM    7  C   UNL     1      41.213  -9.947   5.317  1.00  0.00     0.088 A 
HETATM    8  N   UNL     1      40.625  -9.922   4.104  1.00  0.00    -0.357 N 
HETATM    9  C   UNL     1      41.208 -10.683   3.013  1.00  0.00     0.243 C 
HETATM   10  N   UNL     1      42.638 -10.777   3.176  1.00  0.00    -0.330 N 
HETATM   11  C   UNL     1      43.267 -10.867   4.385  1.00  0.00     0.256 C 
HETATM   12  O   UNL     1      44.415 -11.284   4.494  1.00  0.00    -0.267 OA
HETATM   13  S   UNL     1      40.470  -9.414   6.750  1.00  0.00    -0.074 SA
HETATM   14  C   UNL     1      44.223 -10.605   7.489  1.00  0.00     0.068 C 
HETATM   15  C   UNL     1      44.432  -9.890   8.834  1.00  0.00     0.240 C 
HETATM   16  H   UNL     1      39.629  -9.749   4.019  1.00  0.00     0.162 HD
HETATM   17  H   UNL     1      43.146 -11.199   2.412  1.00  0.00     0.165 HD
ENDROOT
BRANCH   9  18
HETATM   18  C   UNL     1      40.662 -12.059   2.804  1.00  0.00     0.095 A 
HETATM   19  O   UNL     1      41.558 -12.999   2.372  1.00  0.00    -0.313 OA
HETATM   20  C   UNL     1      40.875 -14.167   2.200  1.00  0.00     0.077 A 
HETATM   21  C   UNL     1      39.549 -13.987   2.531  1.00  0.00     0.037 A 
HETATM   22  C   UNL     1      39.412 -12.633   2.925  1.00  0.00     0.039 A 
BRANCH  20  23
HETATM   23  C   UNL     1      41.659 -15.333   1.711  1.00  0.00     0.240 C 
BRANCH  23  24
HETATM   24  O   UNL     1      42.864 -15.356   2.473  1.00  0.00    -0.345 OA
BRANCH  24  25
HETATM   25  C   UNL     1      43.228 -16.551   3.028  1.00  0.00     0.070 A 
HETATM   26  C   UNL     1      43.172 -17.800   2.405  1.00  0.00     0.052 A 
HETATM   27  C   UNL     1      43.574 -18.962   3.090  1.00  0.00     0.050 A 
HETATM   28  C   UNL     1      44.040 -18.851   4.409  1.00  0.00     0.016 A 
HETATM   29  C   UNL     1      44.102 -17.607   5.031  1.00  0.00     0.004 A 
HETATM   30  C   UNL     1      43.698 -16.464   4.340  1.00  0.00     0.037 A 
BRANCH  27  31
HETATM   31  C   UNL     1      43.516 -20.316   2.427  1.00  0.00     0.417 C 
HETATM   32  F   UNL     1      42.318 -20.573   1.830  1.00  0.00    -0.166 F 
HETATM   33  F   UNL     1      44.456 -20.462   1.454  1.00  0.00    -0.166 F 
HETATM   34  F   UNL     1      43.720 -21.336   3.306  1.00  0.00    -0.166 F 
ENDBRANCH  27  31
ENDBRANCH  24  25
ENDBRANCH  23  24
ENDBRANCH  20  23
ENDBRANCH   9  18
BRANCH   1  35
HETATM   35  C   UNL     1      43.489  -9.566  11.138  1.00  0.00     0.231 C 
HETATM   36  C   UNL     1      42.388  -9.977  12.096  1.00  0.00     0.034 C 
ENDBRANCH   1  35
TORSDOF 6
ENDMDL
MODEL 6
REMARK VINA RESULT:      -9.2      5.939      8.851
REMARK  6 active torsions:
REMARK  status: ('A' for Active; 'I' for Inactive)
REMARK    1  A    between atoms: C_2  and  N_3 
REMARK    2  A    between atoms: C_11  and  C_12 
REMARK    3  A    between atoms: C_14  and  C_15 
REMARK    4  A    between atoms: C_15  and  O_16 
REMARK    5  A    between atoms: O_16  and  C_17 
REMARK    6  A    between atoms: C_19  and  C_20 
ROOT
HETATM    1  N   UNL     1      43.904 -18.249   3.091  1.00  0.00    -0.067 N 
HETATM    2  H   UNL     1      44.641 -17.538   3.000  1.00  0.00     0.280 HD
HETATM    3  C   UNL     1      42.654 -17.652   2.442  1.00  0.00     0.281 C 
HETATM    4  C   UNL     1      42.075 -16.569   3.287  1.00  0.00     0.018 A 
HETATM    5  C   UNL     1      42.406 -16.321   4.606  1.00  0.00    -0.023 A 
HETATM    6  C   UNL     1      41.628 -15.247   5.143  1.00  0.00     0.073 A 
HETATM    7  C   UNL     1      40.741 -14.747   4.220  1.00  0.00     0.088 A 
HETATM    8  N   UNL     1      39.864 -13.762   4.497  1.00  0.00    -0.357 N 
HETATM    9  C   UNL     1      40.052 -12.953   5.689  1.00  0.00     0.243 C 
HETATM   10  N   UNL     1      40.699 -13.725   6.721  1.00  0.00    -0.330 N 
HETATM   11  C   UNL     1      41.638 -14.688   6.483  1.00  0.00     0.256 C 
HETATM   12  O   UNL     1      42.406 -15.079   7.356  1.00  0.00    -0.267 OA
HETATM   13  S   UNL     1      40.858 -15.526   2.713  1.00  0.00    -0.074 SA
HETATM   14  C   UNL     1      43.447 -17.133   5.314  1.00  0.00     0.068 C 
HETATM   15  C   UNL     1      43.699 -18.468   4.594  1.00  0.00     0.240 C 
HETATM   16  H   UNL     1      39.346 -13.308   3.751  1.00  0.00     0.162 HD
HETATM   17  H   UNL     1      40.780 -13.280   7.624  1.00  0.00     0.165 HD
ENDROOT
BRANCH   9  18
HETATM   18  C   UNL     1      40.811 -11.677   5.504  1.00  0.00     0.095 A 
HETATM   19  O   UNL     1      40.718 -10.773   6.527  1.00  0.00    -0.313 OA
HETATM   20  C   UNL     1      41.433  -9.669   6.163  1.00  0.00     0.077 A 
HETATM   21  C   UNL     1      41.994  -9.864   4.919  1.00  0.00     0.037 A 
HETATM   22  C   UNL     1      41.599 -11.157   4.496  1.00  0.00     0.039 A 
BRANCH  20  23
HETATM   23  C   UNL     1      41.454  -8.540   7.131  1.00  0.00     0.240 C 
BRANCH  23  24
HETATM   24  O   UNL     1      42.822  -8.176   7.296  1.00  0.00    -0.345 OA
BRANCH  24  25
HETATM   25  C   UNL     1      43.433  -8.558   8.459  1.00  0.00     0.070 A 
HETATM   26  C   UNL     1      42.923  -8.396   9.749  1.00  0.00     0.052 A 
HETATM   27  C   UNL     1      43.656  -8.831  10.869  1.00  0.00     0.050 A 
HETATM   28  C   UNL     1      44.908  -9.436  10.675  1.00  0.00     0.016 A 
HETATM   29  C   UNL     1      45.416  -9.603   9.389  1.00  0.00     0.004 A 
HETATM   30  C   UNL     1      44.679  -9.166   8.289  1.00  0.00     0.037 A 
BRANCH  27  31
HETATM   31  C   UNL     1      43.115  -8.660  12.267  1.00  0.00     0.417 C 
HETATM   32  F   UNL     1      41.928  -7.990  12.309  1.00  0.00    -0.166 F 
HETATM   33  F   UNL     1      42.893  -9.849  12.890  1.00  0.00    -0.166 F 
HETATM   34  F   UNL     1      43.963  -7.964  13.073  1.00  0.00    -0.166 F 
ENDBRANCH  27  31
ENDBRANCH  24  25
ENDBRANCH  23  24
ENDBRANCH  20  23
ENDBRANCH   9  18
BRANCH   1  35
HETATM   35  C   UNL     1      44.382 -19.511   2.416  1.00  0.00     0.231 C 
HETATM   36  C   UNL     1      43.224 -20.277   1.803  1.00  0.00     0.034 C 
ENDBRANCH   1  35
TORSDOF 6
ENDMDL
MODEL 7
REMARK VINA RESULT:      -9.0      2.742      4.863
REMARK  6 active torsions:
REMARK  status: ('A' for Active; 'I' for Inactive)
REMARK    1  A    between atoms: C_2  and  N_3 
REMARK    2  A    between atoms: C_11  and  C_12 
REMARK    3  A    between atoms: C_14  and  C_15 
REMARK    4  A    between atoms: C_15  and  O_16 
REMARK    5  A    between atoms: O_16  and  C_17 
REMARK    6  A    between atoms: C_19  and  C_20 
ROOT
HETATM    1  N   UNL     1      38.689  -7.886  -3.914  1.00  0.00    -0.067 N 
HETATM    2  H   UNL     1      39.297  -7.592  -3.138  1.00  0.00     0.280 HD
HETATM    3  C   UNL     1      37.566  -8.711  -3.286  1.00  0.00     0.281 C 
HETATM    4  C   UNL     1      38.064 -10.040  -2.830  1.00  0.00     0.018 A 
HETATM    5  C   UNL     1      39.278 -10.600  -3.180  1.00  0.00    -0.023 A 
HETATM    6  C   UNL     1      39.427 -11.909  -2.618  1.00  0.00     0.073 A 
HETATM    7  C   UNL     1      38.322 -12.281  -1.890  1.00  0.00     0.088 A 
HETATM    8  N   UNL     1      38.198 -13.486  -1.300  1.00  0.00    -0.357 N 
HETATM    9  C   UNL     1      39.375 -14.319  -1.124  1.00  0.00     0.243 C 
HETATM   10  N   UNL     1      40.327 -14.069  -2.179  1.00  0.00    -0.330 N 
HETATM   11  C   UNL     1      40.525 -12.848  -2.758  1.00  0.00     0.256 C 
HETATM   12  O   UNL     1      41.544 -12.583  -3.387  1.00  0.00    -0.267 OA
HETATM   13  S   UNL     1      37.131 -11.067  -1.844  1.00  0.00    -0.074 SA
HETATM   14  C   UNL     1      40.250  -9.872  -4.055  1.00  0.00     0.068 C 
HETATM   15  C   UNL     1      39.558  -8.745  -4.840  1.00  0.00     0.240 C 
HETATM   16  H   UNL     1      37.450 -13.660  -0.636  1.00  0.00     0.162 HD
HETATM   17  H   UNL     1      41.134 -14.675  -2.201  1.00  0.00     0.165 HD
ENDROOT
BRANCH   9  18
HETATM   18  C   UNL     1      40.078 -14.195   0.190  1.00  0.00     0.095 A 
HETATM   19  O   UNL     1      41.347 -14.706   0.240  1.00  0.00    -0.313 OA
HETATM   20  C   UNL     1      41.804 -14.542   1.514  1.00  0.00     0.077 A 
HETATM   21  C   UNL     1      40.843 -13.917   2.280  1.00  0.00     0.037 A 
HETATM   22  C   UNL     1      39.734 -13.689   1.428  1.00  0.00     0.039 A 
BRANCH  20  23
HETATM   23  C   UNL     1      43.173 -15.048   1.802  1.00  0.00     0.240 C 
BRANCH  23  24
HETATM   24  O   UNL     1      43.216 -15.324   3.199  1.00  0.00    -0.345 OA
BRANCH  24  25
HETATM   25  C   UNL     1      43.474 -16.614   3.573  1.00  0.00     0.070 A 
HETATM   26  C   UNL     1      43.354 -17.746   2.762  1.00  0.00     0.052 A 
HETATM   27  C   UNL     1      43.647 -19.025   3.271  1.00  0.00     0.050 A 
HETATM   28  C   UNL     1      44.066 -19.152   4.604  1.00  0.00     0.016 A 
HETATM   29  C   UNL     1      44.190 -18.025   5.413  1.00  0.00     0.004 A 
HETATM   30  C   UNL     1      43.895 -16.764   4.896  1.00  0.00     0.037 A 
BRANCH  27  31
HETATM   31  C   UNL     1      43.521 -20.254   2.404  1.00  0.00     0.417 C 
HETATM   32  F   UNL     1      42.250 -20.474   1.962  1.00  0.00    -0.166 F 
HETATM   33  F   UNL     1      44.297 -20.189   1.289  1.00  0.00    -0.166 F 
HETATM   34  F   UNL     1      43.890 -21.392   3.055  1.00  0.00    -0.166 F 
ENDBRANCH  27  31
ENDBRANCH  24  25
ENDBRANCH  23  24
ENDBRANCH  20  23
ENDBRANCH   9  18
BRANCH   1  35
HETATM   35  C   UNL     1      38.197  -6.647  -4.621  1.00  0.00     0.231 C 
HETATM   36  C   UNL     1      37.340  -7.006  -5.821  1.00  0.00     0.034 C 
ENDBRANCH   1  35
TORSDOF 6
ENDMDL
MODEL 8
REMARK VINA RESULT:      -9.0      5.550      8.522
REMARK  6 active torsions:
REMARK  status: ('A' for Active; 'I' for Inactive)
REMARK    1  A    between atoms: C_2  and  N_3 
REMARK    2  A    between atoms: C_11  and  C_12 
REMARK    3  A    between atoms: C_14  and  C_15 
REMARK    4  A    between atoms: C_15  and  O_16 
REMARK    5  A    between atoms: O_16  and  C_17 
REMARK    6  A    between atoms: C_19  and  C_20 
ROOT
HETATM    1  N   UNL     1      39.209  -7.938  11.958  1.00  0.00    -0.067 N 
HETATM    2  H   UNL     1      38.842  -8.654  11.318  1.00  0.00     0.280 HD
HETATM    3  C   UNL     1      40.108  -7.032  11.115  1.00  0.00     0.281 C 
HETATM    4  C   UNL     1      41.376  -7.724  10.748  1.00  0.00     0.018 A 
HETATM    5  C   UNL     1      41.841  -8.894  11.320  1.00  0.00    -0.023 A 
HETATM    6  C   UNL     1      43.116  -9.262  10.782  1.00  0.00     0.073 A 
HETATM    7  C   UNL     1      43.559  -8.355   9.849  1.00  0.00     0.088 A 
HETATM    8  N   UNL     1      44.753  -8.453   9.232  1.00  0.00    -0.357 N 
HETATM    9  C   UNL     1      45.478  -9.711   9.277  1.00  0.00     0.243 C 
HETATM   10  N   UNL     1      45.178 -10.418  10.499  1.00  0.00    -0.330 N 
HETATM   11  C   UNL     1      43.962 -10.393  11.120  1.00  0.00     0.256 C 
HETATM   12  O   UNL     1      43.630 -11.245  11.936  1.00  0.00    -0.267 OA
HETATM   13  S   UNL     1      42.450  -7.092   9.588  1.00  0.00    -0.074 SA
HETATM   14  C   UNL     1      41.058  -9.612  12.374  1.00  0.00     0.068 C 
HETATM   15  C   UNL     1      40.017  -8.686  13.025  1.00  0.00     0.240 C 
HETATM   16  H   UNL     1      44.971  -7.864   8.434  1.00  0.00     0.162 HD
HETATM   17  H   UNL     1      45.715 -11.257  10.670  1.00  0.00     0.165 HD
ENDROOT
BRANCH   9  18
HETATM   18  C   UNL     1      45.257 -10.639   8.125  1.00  0.00     0.095 A 
HETATM   19  O   UNL     1      44.307 -11.606   8.310  1.00  0.00    -0.313 OA
HETATM   20  C   UNL     1      44.279 -12.372   7.181  1.00  0.00     0.077 A 
HETATM   21  C   UNL     1      45.196 -11.896   6.269  1.00  0.00     0.037 A 
HETATM   22  C   UNL     1      45.823 -10.779   6.873  1.00  0.00     0.039 A 
BRANCH  20  23
HETATM   23  C   UNL     1      43.317 -13.507   7.170  1.00  0.00     0.240 C 
BRANCH  23  24
HETATM   24  O   UNL     1      43.912 -14.532   6.378  1.00  0.00    -0.345 OA
BRANCH  24  25
HETATM   25  C   UNL     1      43.103 -15.181   5.487  1.00  0.00     0.070 A 
HETATM   26  C   UNL     1      43.522 -16.033   4.462  1.00  0.00     0.052 A 
HETATM   27  C   UNL     1      42.584 -16.639   3.605  1.00  0.00     0.050 A 
HETATM   28  C   UNL     1      41.217 -16.383   3.796  1.00  0.00     0.016 A 
HETATM   29  C   UNL     1      40.797 -15.537   4.820  1.00  0.00     0.004 A 
HETATM   30  C   UNL     1      41.738 -14.943   5.660  1.00  0.00     0.037 A 
BRANCH  27  31
HETATM   31  C   UNL     1      43.026 -17.560   2.494  1.00  0.00     0.417 C 
HETATM   32  F   UNL     1      44.046 -18.390   2.855  1.00  0.00    -0.166 F 
HETATM   33  F   UNL     1      42.024 -18.370   2.057  1.00  0.00    -0.166 F 
HETATM   34  F   UNL     1      43.469 -16.881   1.400  1.00  0.00    -0.166 F 
ENDBRANCH  27  31
ENDBRANCH  24  25
ENDBRANCH  23  24
ENDBRANCH  20  23
ENDBRANCH   9  18
BRANCH   1  35
HETATM   35  C   UNL     1      38.037  -7.211  12.572  1.00  0.00     0.231 C 
HETATM   36  C   UNL     1      38.046  -5.742  12.196  1.00  0.00     0.034 C 
ENDBRANCH   1  35
TORSDOF 6
ENDMDL
MODEL 9
REMARK VINA RESULT:      -9.0      3.408      6.748
REMARK  6 active torsions:
REMARK  status: ('A' for Active; 'I' for Inactive)
REMARK    1  A    between atoms: C_2  and  N_3 
REMARK    2  A    between atoms: C_11  and  C_12 
REMARK    3  A    between atoms: C_14  and  C_15 
REMARK    4  A    between atoms: C_15  and  O_16 
REMARK    5  A    between atoms: O_16  and  C_17 
REMARK    6  A    between atoms: C_19  and  C_20 
ROOT
HETATM    1  N   UNL     1      43.656 -10.696   9.208  1.00  0.00    -0.067 N 
HETATM    2  H   UNL     1      43.253 -11.641   9.234  1.00  0.00     0.280 HD
HETATM    3  C   UNL     1      42.569  -9.785   8.636  1.00  0.00     0.281 C 
HETATM    4  C   UNL     1      42.380 -10.024   7.176  1.00  0.00     0.018 A 
HETATM    5  C   UNL     1      43.245 -10.733   6.365  1.00  0.00    -0.023 A 
HETATM    6  C   UNL     1      42.801 -10.730   5.004  1.00  0.00     0.073 A 
HETATM    7  C   UNL     1      41.639 -10.011   4.848  1.00  0.00     0.088 A 
HETATM    8  N   UNL     1      41.044  -9.819   3.654  1.00  0.00    -0.357 N 
HETATM    9  C   UNL     1      41.423 -10.653   2.526  1.00  0.00     0.243 C 
HETATM   10  N   UNL     1      42.802 -11.061   2.646  1.00  0.00    -0.330 N 
HETATM   11  C   UNL     1      43.422 -11.325   3.834  1.00  0.00     0.256 C 
HETATM   12  O   UNL     1      44.453 -11.984   3.899  1.00  0.00    -0.267 OA
HETATM   13  S   UNL     1      41.062  -9.376   6.316  1.00  0.00    -0.074 SA
HETATM   14  C   UNL     1      44.480 -11.378   6.916  1.00  0.00     0.068 C 
HETATM   15  C   UNL     1      44.869 -10.769   8.273  1.00  0.00     0.240 C 
HETATM   16  H   UNL     1      40.108  -9.431   3.601  1.00  0.00     0.162 HD
HETATM   17  H   UNL     1      43.189 -11.558   1.857  1.00  0.00     0.165 HD
ENDROOT
BRANCH   9  18
HETATM   18  C   UNL     1      40.586 -11.870   2.296  1.00  0.00     0.095 A 
HETATM   19  O   UNL     1      41.268 -13.017   1.996  1.00  0.00    -0.313 OA
HETATM   20  C   UNL     1      40.344 -13.998   1.781  1.00  0.00     0.077 A 
HETATM   21  C   UNL     1      39.074 -13.491   1.953  1.00  0.00     0.037 A 
HETATM   22  C   UNL     1      39.228 -12.123   2.289  1.00  0.00     0.039 A 
BRANCH  20  23
HETATM   23  C   UNL     1      40.870 -15.342   1.419  1.00  0.00     0.240 C 
BRANCH  23  24
HETATM   24  O   UNL     1      42.283 -15.283   1.597  1.00  0.00    -0.345 OA
BRANCH  24  25
HETATM   25  C   UNL     1      42.815 -16.028   2.614  1.00  0.00     0.070 A 
HETATM   26  C   UNL     1      43.064 -15.586   3.916  1.00  0.00     0.052 A 
HETATM   27  C   UNL     1      43.621 -16.454   4.873  1.00  0.00     0.050 A 
HETATM   28  C   UNL     1      43.921 -17.775   4.506  1.00  0.00     0.016 A 
HETATM   29  C   UNL     1      43.670 -18.219   3.210  1.00  0.00     0.004 A 
HETATM   30  C   UNL     1      43.119 -17.347   2.271  1.00  0.00     0.037 A 
BRANCH  27  31
HETATM   31  C   UNL     1      43.895 -15.987   6.282  1.00  0.00     0.417 C 
HETATM   32  F   UNL     1      42.942 -16.380   7.175  1.00  0.00    -0.166 F 
HETATM   33  F   UNL     1      45.076 -16.455   6.767  1.00  0.00    -0.166 F 
HETATM   34  F   UNL     1      43.957 -14.630   6.378  1.00  0.00    -0.166 F 
ENDBRANCH  27  31
ENDBRANCH  24  25
ENDBRANCH  23  24
ENDBRANCH  20  23
ENDBRANCH   9  18
BRANCH   1  35
HETATM   35  C   UNL     1      44.070 -10.323  10.611  1.00  0.00     0.231 C 
HETATM   36  C   UNL     1      45.449  -9.692  10.625  1.00  0.00     0.034 C 
ENDBRANCH   1  35
TORSDOF 6
ENDMDL
MODEL 10
REMARK VINA RESULT:      -9.0      5.339      7.243
REMARK  6 active torsions:
REMARK  status: ('A' for Active; 'I' for Inactive)
REMARK    1  A    between atoms: C_2  and  N_3 
REMARK    2  A    between atoms: C_11  and  C_12 
REMARK    3  A    between atoms: C_14  and  C_15 
REMARK    4  A    between atoms: C_15  and  O_16 
REMARK    5  A    between atoms: O_16  and  C_17 
REMARK    6  A    between atoms: C_19  and  C_20 
ROOT
HETATM    1  N   UNL     1      39.906 -13.104  -1.093  1.00  0.00    -0.067 N 
HETATM    2  H   UNL     1      40.932 -13.030  -1.065  1.00  0.00     0.280 HD
HETATM    3  C   UNL     1      39.383 -12.193   0.018  1.00  0.00     0.281 C 
HETATM    4  C   UNL     1      39.647 -12.780   1.363  1.00  0.00     0.018 A 
HETATM    5  C   UNL     1      40.027 -14.087   1.604  1.00  0.00    -0.023 A 
HETATM    6  C   UNL     1      40.144 -14.343   3.007  1.00  0.00     0.073 A 
HETATM    7  C   UNL     1      39.833 -13.233   3.757  1.00  0.00     0.088 A 
HETATM    8  N   UNL     1      39.823 -13.232   5.105  1.00  0.00    -0.357 N 
HETATM    9  C   UNL     1      40.472 -14.314   5.824  1.00  0.00     0.243 C 
HETATM   10  N   UNL     1      40.418 -15.531   5.052  1.00  0.00    -0.330 N 
HETATM   11  C   UNL     1      40.489 -15.578   3.689  1.00  0.00     0.256 C 
HETATM   12  O   UNL     1      40.783 -16.604   3.086  1.00  0.00    -0.267 OA
HETATM   13  S   UNL     1      39.441 -11.885   2.797  1.00  0.00    -0.074 SA
HETATM   14  C   UNL     1      40.250 -15.053   0.482  1.00  0.00     0.068 C 
HETATM   15  C   UNL     1      39.571 -14.573  -0.812  1.00  0.00     0.240 C 
HETATM   16  H   UNL     1      39.755 -12.359   5.619  1.00  0.00     0.162 HD
HETATM   17  H   UNL     1      40.752 -16.366   5.514  1.00  0.00     0.165 HD
ENDROOT
BRANCH   9  18
HETATM   18  C   UNL     1      41.890 -14.074   6.235  1.00  0.00     0.095 A 
HETATM   19  O   UNL     1      42.285 -12.765   6.284  1.00  0.00    -0.313 OA
HETATM   20  C   UNL     1      43.604 -12.748   6.632  1.00  0.00     0.077 A 
HETATM   21  C   UNL     1      44.055 -14.038   6.819  1.00  0.00     0.037 A 
HETATM   22  C   UNL     1      42.952 -14.891   6.568  1.00  0.00     0.039 A 
BRANCH  20  23
HETATM   23  C   UNL     1      44.251 -11.413   6.730  1.00  0.00     0.240 C 
BRANCH  23  24
HETATM   24  O   UNL     1      44.828 -11.338   8.031  1.00  0.00    -0.345 OA
BRANCH  24  25
HETATM   25  C   UNL     1      44.371 -10.350   8.860  1.00  0.00     0.070 A 
HETATM   26  C   UNL     1      43.842 -10.529  10.140  1.00  0.00     0.052 A 
HETATM   27  C   UNL     1      43.401  -9.424  10.894  1.00  0.00     0.050 A 
HETATM   28  C   UNL     1      43.503  -8.137  10.345  1.00  0.00     0.016 A 
HETATM   29  C   UNL     1      44.034  -7.956   9.070  1.00  0.00     0.004 A 
HETATM   30  C   UNL     1      44.466  -9.060   8.334  1.00  0.00     0.037 A 
BRANCH  27  31
HETATM   31  C   UNL     1      42.827  -9.606  12.277  1.00  0.00     0.417 C 
HETATM   32  F   UNL     1      43.262  -8.671  13.169  1.00  0.00    -0.166 F 
HETATM   33  F   UNL     1      41.469  -9.532  12.293  1.00  0.00    -0.166 F 
HETATM   34  F   UNL     1      43.147 -10.813  12.820  1.00  0.00    -0.166 F 
ENDBRANCH  27  31
ENDBRANCH  24  25
ENDBRANCH  23  24
ENDBRANCH  20  23
ENDBRANCH   9  18
BRANCH   1  35
HETATM   35  C   UNL     1      39.444 -12.693  -2.469  1.00  0.00     0.231 C 
HETATM   36  C   UNL     1      38.834 -13.865  -3.215  1.00  0.00     0.034 C 
ENDBRANCH   1  35
TORSDOF 6
ENDMDL
