MODEL 1
REMARK VINA RESULT:      -9.3      0.000      0.000
REMARK  7 active torsions:
REMARK  status: ('A' for Active; 'I' for Inactive)
REMARK    1  A    between atoms: C_4  and  N_5 
REMARK    2  A    between atoms: N_5  and  C_6 
REMARK    3  A    between atoms: C_6  and  C_7 
REMARK    4  A    between atoms: C_7  and  N_8 
REMARK       I    between atoms: N_8  and  C_9 
REMARK    5  A    between atoms: C_9  and  C_10 
REMARK       I    between atoms: C_10  and  N_11 
REMARK    6  A    between atoms: N_11  and  C_12 
REMARK    7  A    between atoms: N_15  and  C_16 
ROOT
HETATM    1  C   UNL     1      44.056 -12.051   6.887  1.00  0.00     0.314 C 
HETATM    2  N   UNL     1      43.247 -13.090   7.274  1.00  0.00    -0.313 N 
HETATM    3  O   UNL     1      44.438 -11.744   5.767  1.00  0.00    -0.262 OA
HETATM    4  H   UNL     1      43.062 -13.139   8.280  1.00  0.00     0.169 HD
ENDROOT
BRANCH   1   5
HETATM    5  C   UNL     1      44.487 -11.168   8.081  1.00  0.00     0.309 C 
HETATM    6  N   UNL     1      43.557 -11.113   9.094  1.00  0.00    -0.351 N 
HETATM    7  H   UNL     1      42.685 -11.614   8.939  1.00  0.00     0.162 HD
HETATM    8  O   UNL     1      45.577 -10.618   8.071  1.00  0.00    -0.262 OA
BRANCH   6   9
HETATM    9  C   UNL     1      43.794 -10.413  10.337  1.00  0.00     0.142 C 
BRANCH   9  10
HETATM   10  C   UNL     1      42.605  -9.549  10.789  1.00  0.00     0.139 C 
BRANCH  10  11
HETATM   11  N   UNL     1      42.211  -9.910  12.150  1.00  0.00    -0.388 N 
HETATM   12  H   UNL     1      41.318 -10.394  12.206  1.00  0.00     0.159 HD
BRANCH  11  13
HETATM   13  C   UNL     1      42.352  -8.992  13.195  1.00  0.00     0.028 A 
HETATM   14  C   UNL     1      41.542  -8.973  14.337  1.00  0.00     0.035 A 
HETATM   15  C   UNL     1      41.686  -7.984  15.326  1.00  0.00    -0.060 A 
HETATM   16  C   UNL     1      40.838  -8.001  16.563  1.00  0.00     0.048 C 
HETATM   17  C   UNL     1      42.644  -6.980  15.155  1.00  0.00     0.007 A 
HETATM   18  C   UNL     1      43.427  -6.954  14.006  1.00  0.00     0.003 A 
HETATM   19  C   UNL     1      43.270  -7.943  13.033  1.00  0.00     0.029 A 
ENDBRANCH  11  13
ENDBRANCH  10  11
ENDBRANCH   9  10
ENDBRANCH   6   9
ENDBRANCH   1   5
BRANCH   2  20
HETATM   20  C   UNL     1      42.644 -14.069   6.535  1.00  0.00     0.124 A 
HETATM   21  C   UNL     1      43.416 -15.315   6.219  1.00  0.00     0.291 A 
HETATM   22  O   UNL     1      44.576 -15.468   6.575  1.00  0.00    -0.264 OA
HETATM   23  N   UNL     1      42.580 -16.117   5.441  1.00  0.00    -0.234 N 
HETATM   24  N   UNL     1      41.317 -15.475   5.302  1.00  0.00    -0.193 NA
HETATM   25  C   UNL     1      40.179 -16.338   5.667  1.00  0.00     0.143 C 
HETATM   26  C   UNL     1      41.441 -14.230   5.956  1.00  0.00     0.037 A 
HETATM   27  C   UNL     1      40.289 -13.278   5.956  1.00  0.00     0.066 C 
BRANCH  23  28
HETATM   28  C   UNL     1      43.013 -17.123   4.537  1.00  0.00     0.055 A 
HETATM   29  C   UNL     1      43.732 -18.236   4.993  1.00  0.00     0.031 A 
HETATM   30  C   UNL     1      44.158 -19.231   4.106  1.00  0.00     0.002 A 
HETATM   31  C   UNL     1      43.878 -19.123   2.748  1.00  0.00     0.000 A 
HETATM   32  C   UNL     1      43.174 -18.021   2.274  1.00  0.00     0.002 A 
HETATM   33  C   UNL     1      42.744 -17.030   3.163  1.00  0.00     0.031 A 
ENDBRANCH  23  28
ENDBRANCH   2  20
TORSDOF 7
ENDMDL
MODEL 2
REMARK VINA RESULT:      -9.1      5.903      9.412
REMARK  7 active torsions:
REMARK  status: ('A' for Active; 'I' for Inactive)
REMARK    1  A    between atoms: C_4  and  N_5 
REMARK    2  A    between atoms: N_5  and  C_6 
REMARK    3  A    between atoms: C_6  and  C_7 
REMARK    4  A    between atoms: C_7  and  N_8 
REMARK       I    between atoms: N_8  and  C_9 
REMARK    5  A    between atoms: C_9  and  C_10 
REMARK       I    between atoms: C_10  and  N_11 
REMARK    6  A    between atoms: N_11  and  C_12 
REMARK    7  A    between atoms: N_15  and  C_16 
ROOT
HETATM    1  C   UNL     1      40.587 -13.923   5.361  1.00  0.00     0.314 C 
HETATM    2  N   UNL     1      41.239 -14.043   4.160  1.00  0.00    -0.313 N 
HETATM    3  O   UNL     1      39.717 -13.130   5.694  1.00  0.00    -0.262 OA
HETATM    4  H   UNL     1      41.933 -14.796   4.120  1.00  0.00     0.169 HD
ENDROOT
BRANCH   1   5
HETATM    5  C   UNL     1      41.044 -14.988   6.385  1.00  0.00     0.309 C 
HETATM    6  N   UNL     1      42.327 -14.801   6.844  1.00  0.00    -0.351 N 
HETATM    7  H   UNL     1      42.847 -14.023   6.441  1.00  0.00     0.162 HD
HETATM    8  O   UNL     1      40.276 -15.873   6.730  1.00  0.00    -0.262 OA
BRANCH   6   9
HETATM    9  C   UNL     1      42.922 -15.632   7.867  1.00  0.00     0.142 C 
BRANCH   9  10
HETATM   10  C   UNL     1      44.023 -16.565   7.335  1.00  0.00     0.139 C 
BRANCH  10  11
HETATM   11  N   UNL     1      43.425 -17.770   6.762  1.00  0.00    -0.388 N 
HETATM   12  H   UNL     1      43.555 -18.605   7.330  1.00  0.00     0.159 HD
BRANCH  11  13
HETATM   13  C   UNL     1      43.578 -18.059   5.402  1.00  0.00     0.028 A 
HETATM   14  C   UNL     1      43.259 -17.167   4.371  1.00  0.00     0.035 A 
HETATM   15  C   UNL     1      43.370 -17.535   3.019  1.00  0.00    -0.060 A 
HETATM   16  C   UNL     1      43.064 -16.556   1.925  1.00  0.00     0.048 C 
HETATM   17  C   UNL     1      43.786 -18.830   2.694  1.00  0.00     0.007 A 
HETATM   18  C   UNL     1      44.063 -19.746   3.704  1.00  0.00     0.003 A 
HETATM   19  C   UNL     1      43.947 -19.364   5.042  1.00  0.00     0.029 A 
ENDBRANCH  11  13
ENDBRANCH  10  11
ENDBRANCH   9  10
ENDBRANCH   6   9
ENDBRANCH   1   5
BRANCH   2  20
HETATM   20  C   UNL     1      41.112 -13.324   3.005  1.00  0.00     0.124 A 
HETATM   21  C   UNL     1      40.013 -13.681   2.049  1.00  0.00     0.291 A 
HETATM   22  O   UNL     1      39.250 -14.614   2.256  1.00  0.00    -0.264 OA
HETATM   23  N   UNL     1      40.133 -12.818   0.959  1.00  0.00    -0.234 N 
HETATM   24  N   UNL     1      41.200 -11.908   1.204  1.00  0.00    -0.193 NA
HETATM   25  C   UNL     1      40.815 -10.495   1.033  1.00  0.00     0.143 C 
HETATM   26  C   UNL     1      41.766 -12.296   2.437  1.00  0.00     0.037 A 
HETATM   27  C   UNL     1      42.955 -11.560   2.968  1.00  0.00     0.066 C 
BRANCH  23  28
HETATM   28  C   UNL     1      39.653 -13.074  -0.351  1.00  0.00     0.055 A 
HETATM   29  C   UNL     1      38.453 -12.505  -0.801  1.00  0.00     0.031 A 
HETATM   30  C   UNL     1      37.977 -12.754  -2.093  1.00  0.00     0.002 A 
HETATM   31  C   UNL     1      38.689 -13.583  -2.953  1.00  0.00     0.000 A 
HETATM   32  C   UNL     1      39.878 -14.165  -2.523  1.00  0.00     0.002 A 
HETATM   33  C   UNL     1      40.354 -13.912  -1.232  1.00  0.00     0.031 A 
ENDBRANCH  23  28
ENDBRANCH   2  20
TORSDOF 7
ENDMDL
MODEL 3
REMARK VINA RESULT:      -8.9      1.161      1.858
REMARK  7 active torsions:
REMARK  status: ('A' for Active; 'I' for Inactive)
REMARK    1  A    between atoms: C_4  and  N_5 
REMARK    2  A    between atoms: N_5  and  C_6 
REMARK    3  A    between atoms: C_6  and  C_7 
REMARK    4  A    between atoms: C_7  and  N_8 
REMARK       I    between atoms: N_8  and  C_9 
REMARK    5  A    between atoms: C_9  and  C_10 
REMARK       I    between atoms: C_10  and  N_11 
REMARK    6  A    between atoms: N_11  and  C_12 
REMARK    7  A    between atoms: N_15  and  C_16 
ROOT
HETATM    1  C   UNL     1      44.048 -12.066   6.705  1.00  0.00     0.314 C 
HETATM    2  N   UNL     1      43.366 -13.174   7.140  1.00  0.00    -0.313 N 
HETATM    3  O   UNL     1      44.273 -11.694   5.562  1.00  0.00    -0.262 OA
HETATM    4  H   UNL     1      43.305 -13.269   8.158  1.00  0.00     0.169 HD
ENDROOT
BRANCH   1   5
HETATM    5  C   UNL     1      44.553 -11.192   7.876  1.00  0.00     0.309 C 
HETATM    6  N   UNL     1      45.218 -10.056   7.475  1.00  0.00    -0.351 N 
HETATM    7  H   UNL     1      45.342  -9.932   6.472  1.00  0.00     0.162 HD
HETATM    8  O   UNL     1      44.327 -11.526   9.030  1.00  0.00    -0.262 OA
BRANCH   6   9
HETATM    9  C   UNL     1      45.699  -9.059   8.406  1.00  0.00     0.142 C 
BRANCH   9  10
HETATM   10  C   UNL     1      44.572  -8.320   9.148  1.00  0.00     0.139 C 
BRANCH  10  11
HETATM   11  N   UNL     1      44.492  -8.788  10.531  1.00  0.00    -0.388 N 
HETATM   12  H   UNL     1      45.040  -9.625  10.716  1.00  0.00     0.159 HD
BRANCH  11  13
HETATM   13  C   UNL     1      43.260  -8.839  11.191  1.00  0.00     0.028 A 
HETATM   14  C   UNL     1      43.103  -8.675  12.572  1.00  0.00     0.035 A 
HETATM   15  C   UNL     1      41.847  -8.802  13.190  1.00  0.00    -0.060 A 
HETATM   16  C   UNL     1      41.688  -8.583  14.666  1.00  0.00     0.048 C 
HETATM   17  C   UNL     1      40.731  -9.125  12.413  1.00  0.00     0.007 A 
HETATM   18  C   UNL     1      40.873  -9.338  11.046  1.00  0.00     0.003 A 
HETATM   19  C   UNL     1      42.128  -9.208  10.448  1.00  0.00     0.029 A 
ENDBRANCH  11  13
ENDBRANCH  10  11
ENDBRANCH   9  10
ENDBRANCH   6   9
ENDBRANCH   1   5
BRANCH   2  20
HETATM   20  C   UNL     1      42.751 -14.171   6.436  1.00  0.00     0.124 A 
HETATM   21  C   UNL     1      43.516 -15.427   6.142  1.00  0.00     0.291 A 
HETATM   22  O   UNL     1      44.681 -15.572   6.484  1.00  0.00    -0.264 OA
HETATM   23  N   UNL     1      42.668 -16.247   5.397  1.00  0.00    -0.234 N 
HETATM   24  N   UNL     1      41.404 -15.606   5.261  1.00  0.00    -0.193 NA
HETATM   25  C   UNL     1      40.270 -16.457   5.665  1.00  0.00     0.143 C 
HETATM   26  C   UNL     1      41.539 -14.345   5.880  1.00  0.00     0.037 A 
HETATM   27  C   UNL     1      40.388 -13.392   5.872  1.00  0.00     0.066 C 
BRANCH  23  28
HETATM   28  C   UNL     1      43.085 -17.277   4.514  1.00  0.00     0.055 A 
HETATM   29  C   UNL     1      43.790 -18.390   4.991  1.00  0.00     0.031 A 
HETATM   30  C   UNL     1      44.201 -19.409   4.125  1.00  0.00     0.002 A 
HETATM   31  C   UNL     1      43.921 -19.325   2.765  1.00  0.00     0.000 A 
HETATM   32  C   UNL     1      43.231 -18.223   2.269  1.00  0.00     0.002 A 
HETATM   33  C   UNL     1      42.816 -17.208   3.138  1.00  0.00     0.031 A 
ENDBRANCH  23  28
ENDBRANCH   2  20
TORSDOF 7
ENDMDL
MODEL 4
REMARK VINA RESULT:      -8.7      2.425      3.756
REMARK  7 active torsions:
REMARK  status: ('A' for Active; 'I' for Inactive)
REMARK    1  A    between atoms: C_4  and  N_5 
REMARK    2  A    between atoms: N_5  and  C_6 
REMARK    3  A    between atoms: C_6  and  C_7 
REMARK    4  A    between atoms: C_7  and  N_8 
REMARK       I    between atoms: N_8  and  C_9 
REMARK    5  A    between atoms: C_9  and  C_10 
REMARK       I    between atoms: C_10  and  N_11 
REMARK    6  A    between atoms: N_11  and  C_12 
REMARK    7  A    between atoms: N_15  and  C_16 
ROOT
HETATM    1  C   UNL     1      41.316 -12.726   5.874  1.00  0.00     0.314 C 
HETATM    2  N   UNL     1      41.005 -13.657   4.915  1.00  0.00    -0.313 N 
HETATM    3  O   UNL     1      42.413 -12.369   6.280  1.00  0.00    -0.262 OA
HETATM    4  H   UNL     1      40.003 -13.780   4.743  1.00  0.00     0.169 HD
ENDROOT
BRANCH   1   5
HETATM    5  C   UNL     1      40.056 -12.051   6.465  1.00  0.00     0.309 C 
HETATM    6  N   UNL     1      40.312 -10.858   7.100  1.00  0.00    -0.351 N 
HETATM    7  H   UNL     1      41.287 -10.569   7.151  1.00  0.00     0.162 HD
HETATM    8  O   UNL     1      38.960 -12.572   6.322  1.00  0.00    -0.262 OA
BRANCH   6   9
HETATM    9  C   UNL     1      39.267 -10.022   7.649  1.00  0.00     0.142 C 
BRANCH   9  10
HETATM   10  C   UNL     1      39.763  -9.060   8.742  1.00  0.00     0.139 C 
BRANCH  10  11
HETATM   11  N   UNL     1      40.296  -9.818   9.873  1.00  0.00    -0.388 N 
HETATM   12  H   UNL     1      39.589 -10.109  10.545  1.00  0.00     0.159 HD
BRANCH  11  13
HETATM   13  C   UNL     1      41.461  -9.397  10.520  1.00  0.00     0.028 A 
HETATM   14  C   UNL     1      42.756  -9.687  10.072  1.00  0.00     0.035 A 
HETATM   15  C   UNL     1      43.892  -9.294  10.801  1.00  0.00    -0.060 A 
HETATM   16  C   UNL     1      45.273  -9.576  10.288  1.00  0.00     0.048 C 
HETATM   17  C   UNL     1      43.727  -8.619  12.014  1.00  0.00     0.007 A 
HETATM   18  C   UNL     1      42.450  -8.362  12.500  1.00  0.00     0.003 A 
HETATM   19  C   UNL     1      41.332  -8.760  11.764  1.00  0.00     0.029 A 
ENDBRANCH  11  13
ENDBRANCH  10  11
ENDBRANCH   9  10
ENDBRANCH   6   9
ENDBRANCH   1   5
BRANCH   2  20
HETATM   20  C   UNL     1      41.816 -14.445   4.147  1.00  0.00     0.124 A 
HETATM   21  C   UNL     1      41.609 -15.931   4.167  1.00  0.00     0.291 A 
HETATM   22  O   UNL     1      40.760 -16.459   4.872  1.00  0.00    -0.264 OA
HETATM   23  N   UNL     1      42.578 -16.482   3.328  1.00  0.00    -0.234 N 
HETATM   24  N   UNL     1      43.337 -15.429   2.742  1.00  0.00    -0.193 NA
HETATM   25  C   UNL     1      43.418 -15.515   1.272  1.00  0.00     0.143 C 
HETATM   26  C   UNL     1      42.845 -14.234   3.309  1.00  0.00     0.037 A 
HETATM   27  C   UNL     1      43.469 -12.928   2.934  1.00  0.00     0.066 C 
BRANCH  23  28
HETATM   28  C   UNL     1      43.072 -17.810   3.401  1.00  0.00     0.055 A 
HETATM   29  C   UNL     1      43.762 -18.258   4.536  1.00  0.00     0.031 A 
HETATM   30  C   UNL     1      44.248 -19.568   4.614  1.00  0.00     0.002 A 
HETATM   31  C   UNL     1      44.059 -20.448   3.554  1.00  0.00     0.000 A 
HETATM   32  C   UNL     1      43.384 -20.020   2.414  1.00  0.00     0.002 A 
HETATM   33  C   UNL     1      42.895 -18.712   2.340  1.00  0.00     0.031 A 
ENDBRANCH  23  28
ENDBRANCH   2  20
TORSDOF 7
ENDMDL
MODEL 5
REMARK VINA RESULT:      -8.6      5.852      9.549
REMARK  7 active torsions:
REMARK  status: ('A' for Active; 'I' for Inactive)
REMARK    1  A    between atoms: C_4  and  N_5 
REMARK    2  A    between atoms: N_5  and  C_6 
REMARK    3  A    between atoms: C_6  and  C_7 
REMARK    4  A    between atoms: C_7  and  N_8 
REMARK       I    between atoms: N_8  and  C_9 
REMARK    5  A    between atoms: C_9  and  C_10 
REMARK       I    between atoms: C_10  and  N_11 
REMARK    6  A    between atoms: N_11  and  C_12 
REMARK    7  A    between atoms: N_15  and  C_16 
ROOT
HETATM    1  C   UNL     1      42.690 -12.122   3.281  1.00  0.00     0.314 C 
HETATM    2  N   UNL     1      42.195 -13.397   3.390  1.00  0.00    -0.313 N 
HETATM    3  O   UNL     1      43.717 -11.647   3.745  1.00  0.00    -0.262 OA
HETATM    4  H   UNL     1      41.308 -13.558   2.905  1.00  0.00     0.169 HD
ENDROOT
BRANCH   1   5
HETATM    5  C   UNL     1      41.785 -11.216   2.414  1.00  0.00     0.309 C 
HETATM    6  N   UNL     1      40.528 -11.024   2.938  1.00  0.00    -0.351 N 
HETATM    7  H   UNL     1      40.313 -11.521   3.800  1.00  0.00     0.162 HD
HETATM    8  O   UNL     1      42.220 -10.727   1.382  1.00  0.00    -0.262 OA
BRANCH   6   9
HETATM    9  C   UNL     1      39.552 -10.145   2.331  1.00  0.00     0.142 C 
BRANCH   9  10
HETATM   10  C   UNL     1      38.603 -10.863   1.357  1.00  0.00     0.139 C 
BRANCH  10  11
HETATM   11  N   UNL     1      39.288 -11.127   0.092  1.00  0.00    -0.388 N 
HETATM   12  H   UNL     1      39.084 -10.447  -0.637  1.00  0.00     0.159 HD
BRANCH  11  13
HETATM   13  C   UNL     1      39.337 -12.423  -0.430  1.00  0.00     0.028 A 
HETATM   14  C   UNL     1      38.734 -12.807  -1.634  1.00  0.00     0.035 A 
HETATM   15  C   UNL     1      38.759 -14.141  -2.077  1.00  0.00    -0.060 A 
HETATM   16  C   UNL     1      38.145 -14.529  -3.389  1.00  0.00     0.048 C 
HETATM   17  C   UNL     1      39.377 -15.114  -1.285  1.00  0.00     0.007 A 
HETATM   18  C   UNL     1      39.940 -14.762  -0.063  1.00  0.00     0.003 A 
HETATM   19  C   UNL     1      39.906 -13.432   0.362  1.00  0.00     0.029 A 
ENDBRANCH  11  13
ENDBRANCH  10  11
ENDBRANCH   9  10
ENDBRANCH   6   9
ENDBRANCH   1   5
BRANCH   2  20
HETATM   20  C   UNL     1      42.697 -14.491   4.039  1.00  0.00     0.124 A 
HETATM   21  C   UNL     1      43.173 -15.658   3.226  1.00  0.00     0.291 A 
HETATM   22  O   UNL     1      43.097 -15.673   2.005  1.00  0.00    -0.264 OA
HETATM   23  N   UNL     1      43.600 -16.630   4.131  1.00  0.00    -0.234 N 
HETATM   24  N   UNL     1      43.474 -16.119   5.454  1.00  0.00    -0.193 NA
HETATM   25  C   UNL     1      44.712 -16.235   6.246  1.00  0.00     0.143 C 
HETATM   26  C   UNL     1      42.890 -14.840   5.322  1.00  0.00     0.037 A 
HETATM   27  C   UNL     1      42.578 -14.042   6.547  1.00  0.00     0.066 C 
BRANCH  23  28
HETATM   28  C   UNL     1      43.673 -18.023   3.870  1.00  0.00     0.055 A 
HETATM   29  C   UNL     1      43.332 -18.536   2.611  1.00  0.00     0.031 A 
HETATM   30  C   UNL     1      43.405 -19.908   2.348  1.00  0.00     0.002 A 
HETATM   31  C   UNL     1      43.812 -20.790   3.344  1.00  0.00     0.000 A 
HETATM   32  C   UNL     1      44.145 -20.302   4.604  1.00  0.00     0.002 A 
HETATM   33  C   UNL     1      44.076 -18.929   4.863  1.00  0.00     0.031 A 
ENDBRANCH  23  28
ENDBRANCH   2  20
TORSDOF 7
ENDMDL
MODEL 6
REMARK VINA RESULT:      -8.6      1.553     10.894
REMARK  7 active torsions:
REMARK  status: ('A' for Active; 'I' for Inactive)
REMARK    1  A    between atoms: C_4  and  N_5 
REMARK    2  A    between atoms: N_5  and  C_6 
REMARK    3  A    between atoms: C_6  and  C_7 
REMARK    4  A    between atoms: C_7  and  N_8 
REMARK       I    between atoms: N_8  and  C_9 
REMARK    5  A    between atoms: C_9  and  C_10 
REMARK       I    between atoms: C_10  and  N_11 
REMARK    6  A    between atoms: N_11  and  C_12 
REMARK    7  A    between atoms: N_15  and  C_16 
ROOT
HETATM    1  C   UNL     1      44.235 -10.352   8.010  1.00  0.00     0.314 C 
HETATM    2  N   UNL     1      43.081 -10.429   8.748  1.00  0.00    -0.313 N 
HETATM    3  O   UNL     1      45.014  -9.418   7.886  1.00  0.00    -0.262 OA
HETATM    4  H   UNL     1      42.596 -11.330   8.696  1.00  0.00     0.169 HD
ENDROOT
BRANCH   1   5
HETATM    5  C   UNL     1      44.551 -11.677   7.278  1.00  0.00     0.309 C 
HETATM    6  N   UNL     1      43.580 -12.640   7.430  1.00  0.00    -0.351 N 
HETATM    7  H   UNL     1      42.792 -12.402   8.028  1.00  0.00     0.162 HD
HETATM    8  O   UNL     1      45.576 -11.783   6.621  1.00  0.00    -0.262 OA
BRANCH   6   9
HETATM    9  C   UNL     1      43.637 -13.922   6.761  1.00  0.00     0.142 C 
BRANCH   9  10
HETATM   10  C   UNL     1      42.993 -13.912   5.364  1.00  0.00     0.139 C 
BRANCH  10  11
HETATM   11  N   UNL     1      42.179 -15.113   5.179  1.00  0.00    -0.388 N 
HETATM   12  H   UNL     1      41.715 -15.431   6.027  1.00  0.00     0.159 HD
BRANCH  11  13
HETATM   13  C   UNL     1      42.670 -16.193   4.440  1.00  0.00     0.028 A 
HETATM   14  C   UNL     1      43.183 -17.365   5.009  1.00  0.00     0.035 A 
HETATM   15  C   UNL     1      43.725 -18.392   4.217  1.00  0.00    -0.060 A 
HETATM   16  C   UNL     1      44.234 -19.658   4.839  1.00  0.00     0.048 C 
HETATM   17  C   UNL     1      43.776 -18.231   2.829  1.00  0.00     0.007 A 
HETATM   18  C   UNL     1      43.315 -17.056   2.247  1.00  0.00     0.003 A 
HETATM   19  C   UNL     1      42.780 -16.045   3.048  1.00  0.00     0.029 A 
ENDBRANCH  11  13
ENDBRANCH  10  11
ENDBRANCH   9  10
ENDBRANCH   6   9
ENDBRANCH   1   5
BRANCH   2  20
HETATM   20  C   UNL     1      42.473  -9.500   9.545  1.00  0.00     0.124 A 
HETATM   21  C   UNL     1      43.070  -9.200  10.888  1.00  0.00     0.291 A 
HETATM   22  O   UNL     1      44.062  -9.782  11.302  1.00  0.00    -0.264 OA
HETATM   23  N   UNL     1      42.243  -8.251  11.491  1.00  0.00    -0.234 N 
HETATM   24  N   UNL     1      41.203  -7.899  10.585  1.00  0.00    -0.193 NA
HETATM   25  C   UNL     1      41.077  -6.445  10.376  1.00  0.00     0.143 C 
HETATM   26  C   UNL     1      41.385  -8.717   9.449  1.00  0.00     0.037 A 
HETATM   27  C   UNL     1      40.418  -8.627   8.312  1.00  0.00     0.066 C 
BRANCH  23  28
HETATM   28  C   UNL     1      42.127  -8.030  12.888  1.00  0.00     0.055 A 
HETATM   29  C   UNL     1      41.138  -8.680  13.638  1.00  0.00     0.031 A 
HETATM   30  C   UNL     1      41.020  -8.467  15.016  1.00  0.00     0.002 A 
HETATM   31  C   UNL     1      41.886  -7.592  15.664  1.00  0.00     0.000 A 
HETATM   32  C   UNL     1      42.870  -6.929  14.936  1.00  0.00     0.002 A 
HETATM   33  C   UNL     1      42.988  -7.148  13.559  1.00  0.00     0.031 A 
ENDBRANCH  23  28
ENDBRANCH   2  20
TORSDOF 7
ENDMDL
MODEL 7
REMARK VINA RESULT:      -8.5      2.962     10.413
REMARK  7 active torsions:
REMARK  status: ('A' for Active; 'I' for Inactive)
REMARK    1  A    between atoms: C_4  and  N_5 
REMARK    2  A    between atoms: N_5  and  C_6 
REMARK    3  A    between atoms: C_6  and  C_7 
REMARK    4  A    between atoms: C_7  and  N_8 
REMARK       I    between atoms: N_8  and  C_9 
REMARK    5  A    between atoms: C_9  and  C_10 
REMARK       I    between atoms: C_10  and  N_11 
REMARK    6  A    between atoms: N_11  and  C_12 
REMARK    7  A    between atoms: N_15  and  C_16 
ROOT
HETATM    1  C   UNL     1      39.852 -12.487   5.047  1.00  0.00     0.314 C 
HETATM    2  N   UNL     1      40.657 -11.392   4.854  1.00  0.00    -0.313 N 
HETATM    3  O   UNL     1      39.294 -12.868   6.067  1.00  0.00    -0.262 OA
HETATM    4  H   UNL     1      41.007 -11.279   3.898  1.00  0.00     0.169 HD
ENDROOT
BRANCH   1   5
HETATM    5  C   UNL     1      39.642 -13.296   3.746  1.00  0.00     0.309 C 
HETATM    6  N   UNL     1      40.189 -14.557   3.783  1.00  0.00    -0.351 N 
HETATM    7  H   UNL     1      40.700 -14.808   4.626  1.00  0.00     0.162 HD
HETATM    8  O   UNL     1      39.015 -12.807   2.818  1.00  0.00    -0.262 OA
BRANCH   6   9
HETATM    9  C   UNL     1      40.035 -15.510   2.704  1.00  0.00     0.142 C 
BRANCH   9  10
HETATM   10  C   UNL     1      41.119 -15.388   1.620  1.00  0.00     0.139 C 
BRANCH  10  11
HETATM   11  N   UNL     1      42.445 -15.362   2.238  1.00  0.00    -0.388 N 
HETATM   12  H   UNL     1      43.133 -14.824   1.716  1.00  0.00     0.159 HD
BRANCH  11  13
HETATM   13  C   UNL     1      43.008 -16.534   2.752  1.00  0.00     0.028 A 
HETATM   14  C   UNL     1      42.977 -17.772   2.097  1.00  0.00     0.035 A 
HETATM   15  C   UNL     1      43.501 -18.932   2.692  1.00  0.00    -0.060 A 
HETATM   16  C   UNL     1      43.498 -20.242   1.962  1.00  0.00     0.048 C 
HETATM   17  C   UNL     1      44.044 -18.857   3.978  1.00  0.00     0.007 A 
HETATM   18  C   UNL     1      44.042 -17.647   4.665  1.00  0.00     0.003 A 
HETATM   19  C   UNL     1      43.517 -16.504   4.059  1.00  0.00     0.029 A 
ENDBRANCH  11  13
ENDBRANCH  10  11
ENDBRANCH   9  10
ENDBRANCH   6   9
ENDBRANCH   1   5
BRANCH   2  20
HETATM   20  C   UNL     1      41.063 -10.424   5.729  1.00  0.00     0.124 A 
HETATM   21  C   UNL     1      42.315 -10.647   6.523  1.00  0.00     0.291 A 
HETATM   22  O   UNL     1      42.964 -11.680   6.436  1.00  0.00    -0.264 OA
HETATM   23  N   UNL     1      42.474  -9.529   7.343  1.00  0.00    -0.234 N 
HETATM   24  N   UNL     1      41.433  -8.599   7.066  1.00  0.00    -0.193 NA
HETATM   25  C   UNL     1      41.926  -7.240   6.775  1.00  0.00     0.143 C 
HETATM   26  C   UNL     1      40.601  -9.220   6.110  1.00  0.00     0.037 A 
HETATM   27  C   UNL     1      39.372  -8.516   5.632  1.00  0.00     0.066 C 
BRANCH  23  28
HETATM   28  C   UNL     1      43.202  -9.499   8.561  1.00  0.00     0.055 A 
HETATM   29  C   UNL     1      44.601  -9.585   8.564  1.00  0.00     0.031 A 
HETATM   30  C   UNL     1      45.323  -9.552   9.762  1.00  0.00     0.002 A 
HETATM   31  C   UNL     1      44.655  -9.442  10.977  1.00  0.00     0.000 A 
HETATM   32  C   UNL     1      43.266  -9.365  10.997  1.00  0.00     0.002 A 
HETATM   33  C   UNL     1      42.547  -9.392   9.798  1.00  0.00     0.031 A 
ENDBRANCH  23  28
ENDBRANCH   2  20
TORSDOF 7
ENDMDL
MODEL 8
REMARK VINA RESULT:      -8.5      1.749      2.734
REMARK  7 active torsions:
REMARK  status: ('A' for Active; 'I' for Inactive)
REMARK    1  A    between atoms: C_4  and  N_5 
REMARK    2  A    between atoms: N_5  and  C_6 
REMARK    3  A    between atoms: C_6  and  C_7 
REMARK    4  A    between atoms: C_7  and  N_8 
REMARK       I    between atoms: N_8  and  C_9 
REMARK    5  A    between atoms: C_9  and  C_10 
REMARK       I    between atoms: C_10  and  N_11 
REMARK    6  A    between atoms: N_11  and  C_12 
REMARK    7  A    between atoms: N_15  and  C_16 
ROOT
HETATM    1  C   UNL     1      44.619 -11.829   7.259  1.00  0.00     0.314 C 
HETATM    2  N   UNL     1      43.539 -12.674   7.288  1.00  0.00    -0.313 N 
HETATM    3  O   UNL     1      45.577 -11.822   6.499  1.00  0.00    -0.262 OA
HETATM    4  H   UNL     1      42.855 -12.474   8.024  1.00  0.00     0.169 HD
ENDROOT
BRANCH   1   5
HETATM    5  C   UNL     1      44.538 -10.737   8.351  1.00  0.00     0.309 C 
HETATM    6  N   UNL     1      43.362 -10.754   9.065  1.00  0.00    -0.351 N 
HETATM    7  H   UNL     1      42.665 -11.439   8.780  1.00  0.00     0.162 HD
HETATM    8  O   UNL     1      45.479  -9.979   8.529  1.00  0.00    -0.262 OA
BRANCH   6   9
HETATM    9  C   UNL     1      43.113  -9.874  10.186  1.00  0.00     0.142 C 
BRANCH   9  10
HETATM   10  C   UNL     1      43.484 -10.493  11.544  1.00  0.00     0.139 C 
BRANCH  10  11
HETATM   11  N   UNL     1      42.287 -10.636  12.373  1.00  0.00    -0.388 N 
HETATM   12  H   UNL     1      41.574 -11.238  11.968  1.00  0.00     0.159 HD
BRANCH  11  13
HETATM   13  C   UNL     1      41.712  -9.517  12.984  1.00  0.00     0.028 A 
HETATM   14  C   UNL     1      42.308  -8.801  14.029  1.00  0.00     0.035 A 
HETATM   15  C   UNL     1      41.653  -7.724  14.650  1.00  0.00    -0.060 A 
HETATM   16  C   UNL     1      42.321  -6.941  15.741  1.00  0.00     0.048 C 
HETATM   17  C   UNL     1      40.366  -7.372  14.233  1.00  0.00     0.007 A 
HETATM   18  C   UNL     1      39.737  -8.100  13.228  1.00  0.00     0.003 A 
HETATM   19  C   UNL     1      40.402  -9.168  12.622  1.00  0.00     0.029 A 
ENDBRANCH  11  13
ENDBRANCH  10  11
ENDBRANCH   9  10
ENDBRANCH   6   9
ENDBRANCH   1   5
BRANCH   2  20
HETATM   20  C   UNL     1      43.223 -13.738   6.491  1.00  0.00     0.124 A 
HETATM   21  C   UNL     1      42.912 -13.491   5.044  1.00  0.00     0.291 A 
HETATM   22  O   UNL     1      42.901 -12.365   4.566  1.00  0.00    -0.264 OA
HETATM   23  N   UNL     1      42.601 -14.730   4.483  1.00  0.00    -0.234 N 
HETATM   24  N   UNL     1      42.756 -15.740   5.475  1.00  0.00    -0.193 NA
HETATM   25  C   UNL     1      43.616 -16.857   5.042  1.00  0.00     0.143 C 
HETATM   26  C   UNL     1      43.097 -15.065   6.667  1.00  0.00     0.037 A 
HETATM   27  C   UNL     1      43.288 -15.845   7.927  1.00  0.00     0.066 C 
BRANCH  23  28
HETATM   28  C   UNL     1      41.807 -14.933   3.325  1.00  0.00     0.055 A 
HETATM   29  C   UNL     1      40.520 -15.478   3.422  1.00  0.00     0.031 A 
HETATM   30  C   UNL     1      39.733 -15.678   2.283  1.00  0.00     0.002 A 
HETATM   31  C   UNL     1      40.225 -15.342   1.026  1.00  0.00     0.000 A 
HETATM   32  C   UNL     1      41.505 -14.808   0.906  1.00  0.00     0.002 A 
HETATM   33  C   UNL     1      42.288 -14.605   2.047  1.00  0.00     0.031 A 
ENDBRANCH  23  28
ENDBRANCH   2  20
TORSDOF 7
ENDMDL
MODEL 9
REMARK VINA RESULT:      -8.0      2.814      3.668
REMARK  7 active torsions:
REMARK  status: ('A' for Active; 'I' for Inactive)
REMARK    1  A    between atoms: C_4  and  N_5 
REMARK    2  A    between atoms: N_5  and  C_6 
REMARK    3  A    between atoms: C_6  and  C_7 
REMARK    4  A    between atoms: C_7  and  N_8 
REMARK       I    between atoms: N_8  and  C_9 
REMARK    5  A    between atoms: C_9  and  C_10 
REMARK       I    between atoms: C_10  and  N_11 
REMARK    6  A    between atoms: N_11  and  C_12 
REMARK    7  A    between atoms: N_15  and  C_16 
ROOT
HETATM    1  C   UNL     1      40.192  -9.505   7.000  1.00  0.00     0.314 C 
HETATM    2  N   UNL     1      40.992 -10.604   7.190  1.00  0.00    -0.313 N 
HETATM    3  O   UNL     1      39.928  -8.909   5.966  1.00  0.00    -0.262 OA
HETATM    4  H   UNL     1      41.054 -10.929   8.160  1.00  0.00     0.169 HD
ENDROOT
BRANCH   1   5
HETATM    5  C   UNL     1      39.541  -9.021   8.316  1.00  0.00     0.309 C 
HETATM    6  N   UNL     1      40.116  -9.552   9.448  1.00  0.00    -0.351 N 
HETATM    7  H   UNL     1      40.866 -10.225   9.304  1.00  0.00     0.162 HD
HETATM    8  O   UNL     1      38.619  -8.220   8.284  1.00  0.00    -0.262 OA
BRANCH   6   9
HETATM    9  C   UNL     1      39.716  -9.168  10.784  1.00  0.00     0.142 C 
BRANCH   9  10
HETATM   10  C   UNL     1      39.953 -10.267  11.834  1.00  0.00     0.139 C 
BRANCH  10  11
HETATM   11  N   UNL     1      41.355 -10.266  12.252  1.00  0.00    -0.388 N 
HETATM   12  H   UNL     1      41.713 -11.187  12.496  1.00  0.00     0.159 HD
BRANCH  11  13
HETATM   13  C   UNL     1      41.829  -9.292  13.136  1.00  0.00     0.028 A 
HETATM   14  C   UNL     1      41.231  -8.993  14.366  1.00  0.00     0.035 A 
HETATM   15  C   UNL     1      41.712  -7.957  15.186  1.00  0.00    -0.060 A 
HETATM   16  C   UNL     1      41.087  -7.675  16.520  1.00  0.00     0.048 C 
HETATM   17  C   UNL     1      42.797  -7.189  14.752  1.00  0.00     0.007 A 
HETATM   18  C   UNL     1      43.375  -7.439  13.512  1.00  0.00     0.003 A 
HETATM   19  C   UNL     1      42.885  -8.472  12.711  1.00  0.00     0.029 A 
ENDBRANCH  11  13
ENDBRANCH  10  11
ENDBRANCH   9  10
ENDBRANCH   6   9
ENDBRANCH   1   5
BRANCH   2  20
HETATM   20  C   UNL     1      41.717 -11.339   6.295  1.00  0.00     0.124 A 
HETATM   21  C   UNL     1      40.996 -12.297   5.394  1.00  0.00     0.291 A 
HETATM   22  O   UNL     1      39.786 -12.463   5.459  1.00  0.00    -0.264 OA
HETATM   23  N   UNL     1      41.969 -12.925   4.616  1.00  0.00    -0.234 N 
HETATM   24  N   UNL     1      43.243 -12.376   4.934  1.00  0.00    -0.193 NA
HETATM   25  C   UNL     1      43.992 -11.913   3.751  1.00  0.00     0.143 C 
HETATM   26  C   UNL     1      43.019 -11.453   5.978  1.00  0.00     0.037 A 
HETATM   27  C   UNL     1      44.176 -10.725   6.581  1.00  0.00     0.066 C 
BRANCH  23  28
HETATM   28  C   UNL     1      41.834 -14.194   3.995  1.00  0.00     0.055 A 
HETATM   29  C   UNL     1      42.542 -15.306   4.471  1.00  0.00     0.031 A 
HETATM   30  C   UNL     1      42.410 -16.559   3.863  1.00  0.00     0.002 A 
HETATM   31  C   UNL     1      41.573 -16.718   2.764  1.00  0.00     0.000 A 
HETATM   32  C   UNL     1      40.867 -15.625   2.270  1.00  0.00     0.002 A 
HETATM   33  C   UNL     1      40.997 -14.374   2.882  1.00  0.00     0.031 A 
ENDBRANCH  23  28
ENDBRANCH   2  20
TORSDOF 7
ENDMDL
MODEL 10
REMARK VINA RESULT:      -7.8      3.281     11.272
REMARK  7 active torsions:
REMARK  status: ('A' for Active; 'I' for Inactive)
REMARK    1  A    between atoms: C_4  and  N_5 
REMARK    2  A    between atoms: N_5  and  C_6 
REMARK    3  A    between atoms: C_6  and  C_7 
REMARK    4  A    between atoms: C_7  and  N_8 
REMARK       I    between atoms: N_8  and  C_9 
REMARK    5  A    between atoms: C_9  and  C_10 
REMARK       I    between atoms: C_10  and  N_11 
REMARK    6  A    between atoms: N_11  and  C_12 
REMARK    7  A    between atoms: N_15  and  C_16 
ROOT
HETATM    1  C   UNL     1      45.015  -9.107   8.176  1.00  0.00     0.314 C 
HETATM    2  N   UNL     1      43.793  -9.018   8.795  1.00  0.00    -0.313 N 
HETATM    3  O   UNL     1      45.956  -8.327   8.204  1.00  0.00    -0.262 OA
HETATM    4  H   UNL     1      43.165  -9.808   8.624  1.00  0.00     0.169 HD
ENDROOT
BRANCH   1   5
HETATM    5  C   UNL     1      45.166 -10.417   7.368  1.00  0.00     0.309 C 
HETATM    6  N   UNL     1      44.006 -10.827   6.754  1.00  0.00    -0.351 N 
HETATM    7  H   UNL     1      43.176 -10.262   6.924  1.00  0.00     0.162 HD
HETATM    8  O   UNL     1      46.253 -10.972   7.302  1.00  0.00    -0.262 OA
BRANCH   6   9
HETATM    9  C   UNL     1      43.946 -11.980   5.881  1.00  0.00     0.142 C 
BRANCH   9  10
HETATM   10  C   UNL     1      42.972 -13.066   6.368  1.00  0.00     0.139 C 
BRANCH  10  11
HETATM   11  N   UNL     1      42.520 -13.876   5.238  1.00  0.00    -0.388 N 
HETATM   12  H   UNL     1      41.509 -13.893   5.121  1.00  0.00     0.159 HD
BRANCH  11  13
HETATM   13  C   UNL     1      43.074 -15.139   5.006  1.00  0.00     0.028 A 
HETATM   14  C   UNL     1      42.855 -15.890   3.845  1.00  0.00     0.035 A 
HETATM   15  C   UNL     1      43.384 -17.184   3.694  1.00  0.00    -0.060 A 
HETATM   16  C   UNL     1      43.175 -17.960   2.428  1.00  0.00     0.048 C 
HETATM   17  C   UNL     1      44.125 -17.746   4.738  1.00  0.00     0.007 A 
HETATM   18  C   UNL     1      44.315 -17.035   5.918  1.00  0.00     0.003 A 
HETATM   19  C   UNL     1      43.782 -15.751   6.051  1.00  0.00     0.029 A 
ENDBRANCH  11  13
ENDBRANCH  10  11
ENDBRANCH   9  10
ENDBRANCH   6   9
ENDBRANCH   1   5
BRANCH   2  20
HETATM   20  C   UNL     1      43.280  -8.047   9.609  1.00  0.00     0.124 A 
HETATM   21  C   UNL     1      42.763  -6.783   8.988  1.00  0.00     0.291 A 
HETATM   22  O   UNL     1      42.817  -6.582   7.783  1.00  0.00    -0.264 OA
HETATM   23  N   UNL     1      42.331  -5.969  10.036  1.00  0.00    -0.234 N 
HETATM   24  N   UNL     1      42.491  -6.671  11.265  1.00  0.00    -0.193 NA
HETATM   25  C   UNL     1      41.265  -6.706  12.083  1.00  0.00     0.143 C 
HETATM   26  C   UNL     1      43.101  -7.900  10.933  1.00  0.00     0.037 A 
HETATM   27  C   UNL     1      43.453  -8.866  12.018  1.00  0.00     0.066 C 
BRANCH  23  28
HETATM   28  C   UNL     1      42.223  -4.555   9.990  1.00  0.00     0.055 A 
HETATM   29  C   UNL     1      43.117  -3.743  10.699  1.00  0.00     0.031 A 
HETATM   30  C   UNL     1      43.016  -2.348  10.654  1.00  0.00     0.002 A 
HETATM   31  C   UNL     1      42.011  -1.744   9.905  1.00  0.00     0.000 A 
HETATM   32  C   UNL     1      41.107  -2.533   9.200  1.00  0.00     0.002 A 
HETATM   33  C   UNL     1      41.214  -3.927   9.243  1.00  0.00     0.031 A 
ENDBRANCH  23  28
ENDBRANCH   2  20
TORSDOF 7
ENDMDL
