MODEL 1
REMARK VINA RESULT:      -8.9      0.000      0.000
REMARK  7 active torsions:
REMARK  status: ('A' for Active; 'I' for Inactive)
REMARK       I    between atoms: C_2  and  N_3 
REMARK    1  A    between atoms: N_3  and  C_4 
REMARK    2  A    between atoms: N_9  and  C_10 
REMARK    3  A    between atoms: C_10  and  C_11 
REMARK    4  A    between atoms: C_11  and  C_12 
REMARK    5  A    between atoms: C_12  and  O_13 
REMARK    6  A    between atoms: O_13  and  C_14 
REMARK    7  A    between atoms: C_17  and  C_18 
REMARK       I    between atoms: N_30  and  C_31 
ROOT
HETATM    1  C   UNL     1      42.403 -16.499   3.378  1.00  0.00     0.191 C 
HETATM    2  S   UNL     1      43.040 -14.994   2.800  1.00  0.00    -0.042 SA
HETATM    3  C   UNL     1      42.290 -14.182   4.269  1.00  0.00     0.224 A 
HETATM    4  C   UNL     1      43.440 -13.860   5.265  1.00  0.00     0.271 A 
HETATM    5  O   UNL     1      44.125 -14.689   5.851  1.00  0.00    -0.269 OA
HETATM    6  N   UNL     1      43.547 -12.458   5.328  1.00  0.00    -0.314 N 
HETATM    7  C   UNL     1      42.517 -11.855   4.577  1.00  0.00     0.047 A 
HETATM    8  C   UNL     1      41.738 -12.830   3.940  1.00  0.00     0.019 A 
HETATM    9  C   UNL     1      42.228 -10.508   4.444  1.00  0.00     0.030 A 
HETATM   10  C   UNL     1      41.134 -10.145   3.652  1.00  0.00     0.002 A 
HETATM   11  C   UNL     1      40.351 -11.120   3.014  1.00  0.00     0.001 A 
HETATM   12  C   UNL     1      40.650 -12.477   3.154  1.00  0.00     0.013 A 
HETATM   13  N   UNL     1      41.390 -15.190   4.821  1.00  0.00    -0.201 N 
HETATM   14  C   UNL     1      40.606 -14.940   5.935  1.00  0.00     0.238 C 
HETATM   15  C   UNL     1      39.811 -16.114   6.448  1.00  0.00     0.119 C 
HETATM   16  O   UNL     1      40.554 -13.845   6.496  1.00  0.00    -0.272 OA
HETATM   17  N   UNL     1      41.560 -16.484   4.354  1.00  0.00    -0.141 NA
ENDROOT
BRANCH   6  18
HETATM   18  C   UNL     1      44.448 -11.687   6.175  1.00  0.00     0.134 C 
BRANCH  18  19
HETATM   19  C   UNL     1      43.917 -11.340   7.563  1.00  0.00     0.047 C 
BRANCH  19  20
HETATM   20  C   UNL     1      44.893 -10.476   8.355  1.00  0.00     0.177 C 
BRANCH  20  21
HETATM   21  O   UNL     1      44.950 -11.020   9.673  1.00  0.00    -0.351 OA
BRANCH  21  22
HETATM   22  C   UNL     1      44.245 -10.389  10.654  1.00  0.00     0.068 A 
HETATM   23  C   UNL     1      43.508 -10.999  11.663  1.00  0.00     0.037 A 
HETATM   24  C   UNL     1      42.814 -10.221  12.603  1.00  0.00     0.011 A 
HETATM   25  C   UNL     1      42.841  -8.817  12.560  1.00  0.00    -0.050 A 
HETATM   26  C   UNL     1      43.602  -8.223  11.536  1.00  0.00     0.011 A 
HETATM   27  C   UNL     1      44.290  -8.998  10.599  1.00  0.00     0.037 A 
BRANCH  25  28
HETATM   28  C   UNL     1      42.087  -7.935  13.569  1.00  0.00    -0.024 C 
HETATM   29  C   UNL     1      42.897  -6.716  14.061  1.00  0.00     0.019 C 
HETATM   30  C   UNL     1      40.795  -7.397  12.918  1.00  0.00     0.019 C 
HETATM   31  C   UNL     1      41.717  -8.769  14.816  1.00  0.00     0.019 C 
ENDBRANCH  25  28
ENDBRANCH  21  22
ENDBRANCH  20  21
ENDBRANCH  19  20
ENDBRANCH  18  19
ENDBRANCH   6  18
BRANCH   1  32
HETATM   32  N   UNL     1      42.869 -17.591   2.707  1.00  0.00    -0.305 N 
HETATM   33  C   UNL     1      43.730 -18.586   3.107  1.00  0.00     0.219 C 
HETATM   34  C   UNL     1      44.365 -18.495   4.466  1.00  0.00     0.117 C 
HETATM   35  O   UNL     1      43.962 -19.525   2.345  1.00  0.00    -0.274 OA
HETATM   36  H   UNL     1      42.549 -17.698   1.756  1.00  0.00     0.171 HD
ENDBRANCH   1  32
TORSDOF 7
ENDMDL
MODEL 2
REMARK VINA RESULT:      -8.9      2.271      4.381
REMARK  7 active torsions:
REMARK  status: ('A' for Active; 'I' for Inactive)
REMARK       I    between atoms: C_2  and  N_3 
REMARK    1  A    between atoms: N_3  and  C_4 
REMARK    2  A    between atoms: N_9  and  C_10 
REMARK    3  A    between atoms: C_10  and  C_11 
REMARK    4  A    between atoms: C_11  and  C_12 
REMARK    5  A    between atoms: C_12  and  O_13 
REMARK    6  A    between atoms: O_13  and  C_14 
REMARK    7  A    between atoms: C_17  and  C_18 
REMARK       I    between atoms: N_30  and  C_31 
ROOT
HETATM    1  C   UNL     1      39.449 -13.183   2.791  1.00  0.00     0.191 C 
HETATM    2  S   UNL     1      39.667 -12.928   4.492  1.00  0.00    -0.042 SA
HETATM    3  C   UNL     1      41.367 -13.605   4.313  1.00  0.00     0.224 A 
HETATM    4  C   UNL     1      42.358 -12.408   4.384  1.00  0.00     0.271 A 
HETATM    5  O   UNL     1      42.440 -11.505   3.562  1.00  0.00    -0.269 OA
HETATM    6  N   UNL     1      43.099 -12.560   5.572  1.00  0.00    -0.314 N 
HETATM    7  C   UNL     1      42.772 -13.780   6.200  1.00  0.00     0.047 A 
HETATM    8  C   UNL     1      41.761 -14.442   5.491  1.00  0.00     0.019 A 
HETATM    9  C   UNL     1      43.327 -14.332   7.341  1.00  0.00     0.030 A 
HETATM   10  C   UNL     1      42.849 -15.574   7.769  1.00  0.00     0.002 A 
HETATM   11  C   UNL     1      41.837 -16.241   7.059  1.00  0.00     0.001 A 
HETATM   12  C   UNL     1      41.283 -15.676   5.909  1.00  0.00     0.013 A 
HETATM   13  N   UNL     1      41.378 -14.213   2.987  1.00  0.00    -0.201 N 
HETATM   14  C   UNL     1      42.494 -14.867   2.491  1.00  0.00     0.238 C 
HETATM   15  C   UNL     1      42.387 -15.348   1.066  1.00  0.00     0.119 C 
HETATM   16  O   UNL     1      43.522 -15.046   3.145  1.00  0.00    -0.272 OA
HETATM   17  N   UNL     1      40.331 -13.870   2.147  1.00  0.00    -0.141 NA
ENDROOT
BRANCH   6  18
HETATM   18  C   UNL     1      44.188 -11.711   6.036  1.00  0.00     0.134 C 
BRANCH  18  19
HETATM   19  C   UNL     1      43.947 -10.985   7.356  1.00  0.00     0.047 C 
BRANCH  19  20
HETATM   20  C   UNL     1      45.234 -10.428   7.954  1.00  0.00     0.177 C 
BRANCH  20  21
HETATM   21  O   UNL     1      45.347 -10.969   9.269  1.00  0.00    -0.351 OA
BRANCH  21  22
HETATM   22  C   UNL     1      44.601 -10.399  10.258  1.00  0.00     0.068 A 
HETATM   23  C   UNL     1      43.899 -11.071  11.252  1.00  0.00     0.037 A 
HETATM   24  C   UNL     1      43.155 -10.353  12.203  1.00  0.00     0.011 A 
HETATM   25  C   UNL     1      43.097  -8.949  12.184  1.00  0.00    -0.050 A 
HETATM   26  C   UNL     1      43.824  -8.293  11.175  1.00  0.00     0.011 A 
HETATM   27  C   UNL     1      44.561  -9.008  10.228  1.00  0.00     0.037 A 
BRANCH  25  28
HETATM   28  C   UNL     1      42.286  -8.134  13.205  1.00  0.00    -0.024 C 
HETATM   29  C   UNL     1      41.550  -8.999  14.251  1.00  0.00     0.019 C 
HETATM   30  C   UNL     1      43.231  -7.186  13.975  1.00  0.00     0.019 C 
HETATM   31  C   UNL     1      41.215  -7.296  12.471  1.00  0.00     0.019 C 
ENDBRANCH  25  28
ENDBRANCH  21  22
ENDBRANCH  20  21
ENDBRANCH  19  20
ENDBRANCH  18  19
ENDBRANCH   6  18
BRANCH   1  32
HETATM   32  N   UNL     1      38.314 -12.618   2.287  1.00  0.00    -0.305 N 
HETATM   33  C   UNL     1      38.143 -11.498   1.509  1.00  0.00     0.219 C 
HETATM   34  C   UNL     1      39.343 -10.657   1.171  1.00  0.00     0.117 C 
HETATM   35  O   UNL     1      37.015 -11.208   1.109  1.00  0.00    -0.274 OA
HETATM   36  H   UNL     1      37.447 -13.078   2.522  1.00  0.00     0.171 HD
ENDBRANCH   1  32
TORSDOF 7
ENDMDL
MODEL 3
REMARK VINA RESULT:      -8.6      2.714      5.201
REMARK  7 active torsions:
REMARK  status: ('A' for Active; 'I' for Inactive)
REMARK       I    between atoms: C_2  and  N_3 
REMARK    1  A    between atoms: N_3  and  C_4 
REMARK    2  A    between atoms: N_9  and  C_10 
REMARK    3  A    between atoms: C_10  and  C_11 
REMARK    4  A    between atoms: C_11  and  C_12 
REMARK    5  A    between atoms: C_12  and  O_13 
REMARK    6  A    between atoms: O_13  and  C_14 
REMARK    7  A    between atoms: C_17  and  C_18 
REMARK       I    between atoms: N_30  and  C_31 
ROOT
HETATM    1  C   UNL     1      38.843 -10.821   4.971  1.00  0.00     0.191 C 
HETATM    2  S   UNL     1      39.673 -11.344   6.400  1.00  0.00    -0.042 SA
HETATM    3  C   UNL     1      40.813 -12.295   5.316  1.00  0.00     0.224 A 
HETATM    4  C   UNL     1      42.163 -11.524   5.264  1.00  0.00     0.271 A 
HETATM    5  O   UNL     1      42.329 -10.417   4.767  1.00  0.00    -0.269 OA
HETATM    6  N   UNL     1      43.119 -12.328   5.913  1.00  0.00    -0.314 N 
HETATM    7  C   UNL     1      42.555 -13.572   6.266  1.00  0.00     0.047 A 
HETATM    8  C   UNL     1      41.196 -13.609   5.925  1.00  0.00     0.019 A 
HETATM    9  C   UNL     1      43.178 -14.661   6.849  1.00  0.00     0.030 A 
HETATM   10  C   UNL     1      42.410 -15.805   7.091  1.00  0.00     0.002 A 
HETATM   11  C   UNL     1      41.050 -15.845   6.748  1.00  0.00     0.001 A 
HETATM   12  C   UNL     1      40.430 -14.741   6.160  1.00  0.00     0.013 A 
HETATM   13  N   UNL     1      40.160 -12.292   4.011  1.00  0.00    -0.201 N 
HETATM   14  C   UNL     1      40.705 -12.947   2.919  1.00  0.00     0.238 C 
HETATM   15  C   UNL     1      39.968 -12.762   1.615  1.00  0.00     0.119 C 
HETATM   16  O   UNL     1      41.728 -13.629   2.978  1.00  0.00    -0.272 OA
HETATM   17  N   UNL     1      39.126 -11.385   3.846  1.00  0.00    -0.141 NA
ENDROOT
BRANCH   6  18
HETATM   18  C   UNL     1      44.541 -12.047   6.060  1.00  0.00     0.134 C 
BRANCH  18  19
HETATM   19  C   UNL     1      44.915 -11.098   7.195  1.00  0.00     0.047 C 
BRANCH  19  20
HETATM   20  C   UNL     1      43.968 -11.215   8.384  1.00  0.00     0.177 C 
BRANCH  20  21
HETATM   21  O   UNL     1      44.704 -10.818   9.540  1.00  0.00    -0.351 OA
BRANCH  21  22
HETATM   22  C   UNL     1      44.079 -10.015  10.447  1.00  0.00     0.068 A 
HETATM   23  C   UNL     1      43.895  -8.641  10.343  1.00  0.00     0.037 A 
HETATM   24  C   UNL     1      43.244  -7.934  11.367  1.00  0.00     0.011 A 
HETATM   25  C   UNL     1      42.761  -8.582  12.516  1.00  0.00    -0.050 A 
HETATM   26  C   UNL     1      42.951  -9.974  12.593  1.00  0.00     0.011 A 
HETATM   27  C   UNL     1      43.601 -10.676  11.575  1.00  0.00     0.037 A 
BRANCH  25  28
HETATM   28  C   UNL     1      42.051  -7.836  13.659  1.00  0.00    -0.024 C 
HETATM   29  C   UNL     1      43.010  -7.059  14.587  1.00  0.00     0.019 C 
HETATM   30  C   UNL     1      41.055  -6.816  13.068  1.00  0.00     0.019 C 
HETATM   31  C   UNL     1      41.282  -8.845  14.541  1.00  0.00     0.019 C 
ENDBRANCH  25  28
ENDBRANCH  21  22
ENDBRANCH  20  21
ENDBRANCH  19  20
ENDBRANCH  18  19
ENDBRANCH   6  18
BRANCH   1  32
HETATM   32  N   UNL     1      37.929  -9.833   5.192  1.00  0.00    -0.305 N 
HETATM   33  C   UNL     1      38.070  -8.465   5.181  1.00  0.00     0.219 C 
HETATM   34  C   UNL     1      39.438  -7.878   4.973  1.00  0.00     0.117 C 
HETATM   35  O   UNL     1      37.077  -7.755   5.345  1.00  0.00    -0.274 OA
HETATM   36  H   UNL     1      36.991 -10.137   5.410  1.00  0.00     0.171 HD
ENDBRANCH   1  32
TORSDOF 7
ENDMDL
MODEL 4
REMARK VINA RESULT:      -8.5      3.582      9.289
REMARK  7 active torsions:
REMARK  status: ('A' for Active; 'I' for Inactive)
REMARK       I    between atoms: C_2  and  N_3 
REMARK    1  A    between atoms: N_3  and  C_4 
REMARK    2  A    between atoms: N_9  and  C_10 
REMARK    3  A    between atoms: C_10  and  C_11 
REMARK    4  A    between atoms: C_11  and  C_12 
REMARK    5  A    between atoms: C_12  and  O_13 
REMARK    6  A    between atoms: O_13  and  C_14 
REMARK    7  A    between atoms: C_17  and  C_18 
REMARK       I    between atoms: N_30  and  C_31 
ROOT
HETATM    1  C   UNL     1      44.673 -12.053   6.337  1.00  0.00     0.191 C 
HETATM    2  S   UNL     1      43.973 -11.615   4.813  1.00  0.00    -0.042 SA
HETATM    3  C   UNL     1      42.669 -12.874   5.120  1.00  0.00     0.224 A 
HETATM    4  C   UNL     1      41.369 -12.118   5.515  1.00  0.00     0.271 A 
HETATM    5  O   UNL     1      41.215 -11.453   6.531  1.00  0.00    -0.269 OA
HETATM    6  N   UNL     1      40.442 -12.325   4.476  1.00  0.00    -0.314 N 
HETATM    7  C   UNL     1      40.967 -13.226   3.525  1.00  0.00     0.047 A 
HETATM    8  C   UNL     1      42.277 -13.590   3.864  1.00  0.00     0.019 A 
HETATM    9  C   UNL     1      40.348 -13.743   2.401  1.00  0.00     0.030 A 
HETATM   10  C   UNL     1      41.068 -14.643   1.609  1.00  0.00     0.002 A 
HETATM   11  C   UNL     1      42.380 -15.011   1.948  1.00  0.00     0.001 A 
HETATM   12  C   UNL     1      42.997 -14.484   3.084  1.00  0.00     0.013 A 
HETATM   13  N   UNL     1      43.178 -13.657   6.242  1.00  0.00    -0.201 N 
HETATM   14  C   UNL     1      42.482 -14.740   6.754  1.00  0.00     0.238 C 
HETATM   15  C   UNL     1      43.083 -15.379   7.980  1.00  0.00     0.119 C 
HETATM   16  O   UNL     1      41.433 -15.163   6.268  1.00  0.00    -0.272 OA
HETATM   17  N   UNL     1      44.239 -13.106   6.941  1.00  0.00    -0.141 NA
ENDROOT
BRANCH   6  18
HETATM   18  C   UNL     1      39.063 -11.858   4.428  1.00  0.00     0.134 C 
BRANCH  18  19
HETATM   19  C   UNL     1      38.878 -10.348   4.321  1.00  0.00     0.047 C 
BRANCH  19  20
HETATM   20  C   UNL     1      39.836  -9.718   3.315  1.00  0.00     0.177 C 
BRANCH  20  21
HETATM   21  O   UNL     1      39.051  -9.317   2.193  1.00  0.00    -0.351 OA
BRANCH  21  22
HETATM   22  C   UNL     1      38.867 -10.221   1.189  1.00  0.00     0.068 A 
HETATM   23  C   UNL     1      37.648 -10.704   0.728  1.00  0.00     0.037 A 
HETATM   24  C   UNL     1      37.607 -11.651  -0.309  1.00  0.00     0.011 A 
HETATM   25  C   UNL     1      38.781 -12.135  -0.910  1.00  0.00    -0.050 A 
HETATM   26  C   UNL     1      40.001 -11.623  -0.432  1.00  0.00     0.011 A 
HETATM   27  C   UNL     1      40.041 -10.684   0.601  1.00  0.00     0.037 A 
BRANCH  25  28
HETATM   28  C   UNL     1      38.772 -13.176  -2.041  1.00  0.00    -0.024 C 
HETATM   29  C   UNL     1      37.395 -13.352  -2.717  1.00  0.00     0.019 C 
HETATM   30  C   UNL     1      39.772 -12.754  -3.139  1.00  0.00     0.019 C 
HETATM   31  C   UNL     1      39.184 -14.557  -1.482  1.00  0.00     0.019 C 
ENDBRANCH  25  28
ENDBRANCH  21  22
ENDBRANCH  20  21
ENDBRANCH  19  20
ENDBRANCH  18  19
ENDBRANCH   6  18
BRANCH   1  32
HETATM   32  N   UNL     1      45.663 -11.211   6.754  1.00  0.00    -0.305 N 
HETATM   33  C   UNL     1      45.639 -10.191   7.675  1.00  0.00     0.219 C 
HETATM   34  C   UNL     1      44.333  -9.829   8.325  1.00  0.00     0.117 C 
HETATM   35  O   UNL     1      46.684  -9.598   7.945  1.00  0.00    -0.274 OA
HETATM   36  H   UNL     1      46.565 -11.336   6.318  1.00  0.00     0.171 HD
ENDBRANCH   1  32
TORSDOF 7
ENDMDL
MODEL 5
REMARK VINA RESULT:      -8.2      2.606      3.307
REMARK  7 active torsions:
REMARK  status: ('A' for Active; 'I' for Inactive)
REMARK       I    between atoms: C_2  and  N_3 
REMARK    1  A    between atoms: N_3  and  C_4 
REMARK    2  A    between atoms: N_9  and  C_10 
REMARK    3  A    between atoms: C_10  and  C_11 
REMARK    4  A    between atoms: C_11  and  C_12 
REMARK    5  A    between atoms: C_12  and  O_13 
REMARK    6  A    between atoms: O_13  and  C_14 
REMARK    7  A    between atoms: C_17  and  C_18 
REMARK       I    between atoms: N_30  and  C_31 
ROOT
HETATM    1  C   UNL     1      40.962 -13.558   1.007  1.00  0.00     0.191 C 
HETATM    2  S   UNL     1      41.179 -11.934   1.572  1.00  0.00    -0.042 SA
HETATM    3  C   UNL     1      41.407 -12.619   3.263  1.00  0.00     0.224 A 
HETATM    4  C   UNL     1      42.923 -12.544   3.599  1.00  0.00     0.271 A 
HETATM    5  O   UNL     1      43.808 -13.174   3.033  1.00  0.00    -0.269 OA
HETATM    6  N   UNL     1      43.067 -11.607   4.640  1.00  0.00    -0.314 N 
HETATM    7  C   UNL     1      41.801 -11.169   5.081  1.00  0.00     0.047 A 
HETATM    8  C   UNL     1      40.784 -11.745   4.308  1.00  0.00     0.019 A 
HETATM    9  C   UNL     1      41.507 -10.311   6.126  1.00  0.00     0.030 A 
HETATM   10  C   UNL     1      40.162 -10.033   6.391  1.00  0.00     0.002 A 
HETATM   11  C   UNL     1      39.142 -10.611   5.619  1.00  0.00     0.001 A 
HETATM   12  C   UNL     1      39.448 -11.476   4.566  1.00  0.00     0.013 A 
HETATM   13  N   UNL     1      40.964 -14.006   3.156  1.00  0.00    -0.201 N 
HETATM   14  C   UNL     1      40.954 -14.857   4.248  1.00  0.00     0.238 C 
HETATM   15  C   UNL     1      40.573 -16.287   3.956  1.00  0.00     0.119 C 
HETATM   16  O   UNL     1      41.245 -14.499   5.390  1.00  0.00    -0.272 OA
HETATM   17  N   UNL     1      40.820 -14.505   1.872  1.00  0.00    -0.141 NA
ENDROOT
BRANCH   6  18
HETATM   18  C   UNL     1      44.300 -11.246   5.327  1.00  0.00     0.134 C 
BRANCH  18  19
HETATM   19  C   UNL     1      44.426 -11.739   6.764  1.00  0.00     0.047 C 
BRANCH  19  20
HETATM   20  C   UNL     1      45.066 -10.700   7.679  1.00  0.00     0.177 C 
BRANCH  20  21
HETATM   21  O   UNL     1      44.969 -11.205   9.010  1.00  0.00    -0.351 OA
BRANCH  21  22
HETATM   22  C   UNL     1      44.350 -10.427   9.943  1.00  0.00     0.068 A 
HETATM   23  C   UNL     1      43.876 -10.846  11.181  1.00  0.00     0.037 A 
HETATM   24  C   UNL     1      43.241  -9.935  12.041  1.00  0.00     0.011 A 
HETATM   25  C   UNL     1      43.066  -8.587  11.685  1.00  0.00    -0.050 A 
HETATM   26  C   UNL     1      43.564  -8.187  10.432  1.00  0.00     0.011 A 
HETATM   27  C   UNL     1      44.193  -9.094   9.576  1.00  0.00     0.037 A 
BRANCH  25  28
HETATM   28  C   UNL     1      42.368  -7.565  12.599  1.00  0.00    -0.024 C 
HETATM   29  C   UNL     1      42.184  -6.175  11.954  1.00  0.00     0.019 C 
HETATM   30  C   UNL     1      40.966  -8.087  12.978  1.00  0.00     0.019 C 
HETATM   31  C   UNL     1      43.200  -7.364  13.886  1.00  0.00     0.019 C 
ENDBRANCH  25  28
ENDBRANCH  21  22
ENDBRANCH  20  21
ENDBRANCH  19  20
ENDBRANCH  18  19
ENDBRANCH   6  18
BRANCH   1  32
HETATM   32  N   UNL     1      40.949 -13.674  -0.353  1.00  0.00    -0.305 N 
HETATM   33  C   UNL     1      40.001 -13.295  -1.274  1.00  0.00     0.219 C 
HETATM   34  C   UNL     1      38.703 -12.717  -0.784  1.00  0.00     0.117 C 
HETATM   35  O   UNL     1      40.235 -13.441  -2.474  1.00  0.00    -0.274 OA
HETATM   36  H   UNL     1      41.756 -14.118  -0.768  1.00  0.00     0.171 HD
ENDBRANCH   1  32
TORSDOF 7
ENDMDL
MODEL 6
REMARK VINA RESULT:      -8.2     19.055     21.283
REMARK  7 active torsions:
REMARK  status: ('A' for Active; 'I' for Inactive)
REMARK       I    between atoms: C_2  and  N_3 
REMARK    1  A    between atoms: N_3  and  C_4 
REMARK    2  A    between atoms: N_9  and  C_10 
REMARK    3  A    between atoms: C_10  and  C_11 
REMARK    4  A    between atoms: C_11  and  C_12 
REMARK    5  A    between atoms: C_12  and  O_13 
REMARK    6  A    between atoms: O_13  and  C_14 
REMARK    7  A    between atoms: C_17  and  C_18 
REMARK       I    between atoms: N_30  and  C_31 
ROOT
HETATM    1  C   UNL     1      49.710 -31.512  -1.762  1.00  0.00     0.191 C 
HETATM    2  S   UNL     1      49.954 -32.376  -0.279  1.00  0.00    -0.042 SA
HETATM    3  C   UNL     1      48.871 -31.141   0.547  1.00  0.00     0.224 A 
HETATM    4  C   UNL     1      47.497 -31.821   0.808  1.00  0.00     0.271 A 
HETATM    5  O   UNL     1      46.713 -32.194  -0.056  1.00  0.00    -0.269 OA
HETATM    6  N   UNL     1      47.359 -31.944   2.203  1.00  0.00    -0.314 N 
HETATM    7  C   UNL     1      48.436 -31.310   2.859  1.00  0.00     0.047 A 
HETATM    8  C   UNL     1      49.352 -30.809   1.925  1.00  0.00     0.019 A 
HETATM    9  C   UNL     1      48.633 -31.144   4.218  1.00  0.00     0.030 A 
HETATM   10  C   UNL     1      49.779 -30.459   4.637  1.00  0.00     0.002 A 
HETATM   11  C   UNL     1      50.698 -29.954   3.703  1.00  0.00     0.001 A 
HETATM   12  C   UNL     1      50.490 -30.127   2.333  1.00  0.00     0.013 A 
HETATM   13  N   UNL     1      48.741 -30.062  -0.428  1.00  0.00    -0.201 N 
HETATM   14  C   UNL     1      48.015 -28.915  -0.158  1.00  0.00     0.238 C 
HETATM   15  C   UNL     1      47.885 -27.942  -1.303  1.00  0.00     0.119 C 
HETATM   16  O   UNL     1      47.489 -28.686   0.932  1.00  0.00    -0.272 OA
HETATM   17  N   UNL     1      49.141 -30.356  -1.722  1.00  0.00    -0.141 NA
ENDROOT
BRANCH   6  18
HETATM   18  C   UNL     1      46.207 -32.468   2.925  1.00  0.00     0.134 C 
BRANCH  18  19
HETATM   19  C   UNL     1      45.034 -31.507   3.088  1.00  0.00     0.047 C 
BRANCH  19  20
HETATM   20  C   UNL     1      43.752 -32.048   2.462  1.00  0.00     0.177 C 
BRANCH  20  21
HETATM   21  O   UNL     1      43.082 -30.937   1.868  1.00  0.00    -0.351 OA
BRANCH  21  22
HETATM   22  C   UNL     1      43.526 -30.500   0.655  1.00  0.00     0.068 A 
HETATM   23  C   UNL     1      43.927 -29.206   0.341  1.00  0.00     0.037 A 
HETATM   24  C   UNL     1      44.349 -28.892  -0.961  1.00  0.00     0.011 A 
HETATM   25  C   UNL     1      44.383 -29.861  -1.978  1.00  0.00    -0.050 A 
HETATM   26  C   UNL     1      43.982 -31.164  -1.632  1.00  0.00     0.011 A 
HETATM   27  C   UNL     1      43.560 -31.476  -0.338  1.00  0.00     0.037 A 
BRANCH  25  28
HETATM   28  C   UNL     1      44.832 -29.548  -3.415  1.00  0.00    -0.024 C 
HETATM   29  C   UNL     1      43.803 -29.955  -4.492  1.00  0.00     0.019 C 
HETATM   30  C   UNL     1      45.074 -28.030  -3.560  1.00  0.00     0.019 C 
HETATM   31  C   UNL     1      46.143 -30.303  -3.728  1.00  0.00     0.019 C 
ENDBRANCH  25  28
ENDBRANCH  21  22
ENDBRANCH  20  21
ENDBRANCH  19  20
ENDBRANCH  18  19
ENDBRANCH   6  18
BRANCH   1  32
HETATM   32  N   UNL     1      50.176 -32.165  -2.866  1.00  0.00    -0.305 N 
HETATM   33  C   UNL     1      51.441 -32.222  -3.404  1.00  0.00     0.219 C 
HETATM   34  C   UNL     1      52.533 -31.401  -2.778  1.00  0.00     0.117 C 
HETATM   35  O   UNL     1      51.647 -32.938  -4.383  1.00  0.00    -0.274 OA
HETATM   36  H   UNL     1      49.493 -32.690  -3.393  1.00  0.00     0.171 HD
ENDBRANCH   1  32
TORSDOF 7
ENDMDL
MODEL 7
REMARK VINA RESULT:      -8.2      3.596      9.860
REMARK  7 active torsions:
REMARK  status: ('A' for Active; 'I' for Inactive)
REMARK       I    between atoms: C_2  and  N_3 
REMARK    1  A    between atoms: N_3  and  C_4 
REMARK    2  A    between atoms: N_9  and  C_10 
REMARK    3  A    between atoms: C_10  and  C_11 
REMARK    4  A    between atoms: C_11  and  C_12 
REMARK    5  A    between atoms: C_12  and  O_13 
REMARK    6  A    between atoms: O_13  and  C_14 
REMARK    7  A    between atoms: C_17  and  C_18 
REMARK       I    between atoms: N_30  and  C_31 
ROOT
HETATM    1  C   UNL     1      43.426 -10.832   6.681  1.00  0.00     0.191 C 
HETATM    2  S   UNL     1      44.423 -12.201   6.312  1.00  0.00    -0.042 SA
HETATM    3  C   UNL     1      42.919 -13.048   5.678  1.00  0.00     0.224 A 
HETATM    4  C   UNL     1      42.996 -13.041   4.125  1.00  0.00     0.271 A 
HETATM    5  O   UNL     1      42.949 -12.044   3.416  1.00  0.00    -0.269 OA
HETATM    6  N   UNL     1      43.157 -14.379   3.717  1.00  0.00    -0.314 N 
HETATM    7  C   UNL     1      43.070 -15.243   4.829  1.00  0.00     0.047 A 
HETATM    8  C   UNL     1      42.918 -14.508   6.012  1.00  0.00     0.019 A 
HETATM    9  C   UNL     1      43.102 -16.626   4.843  1.00  0.00     0.030 A 
HETATM   10  C   UNL     1      42.979 -17.274   6.077  1.00  0.00     0.002 A 
HETATM   11  C   UNL     1      42.825 -16.539   7.264  1.00  0.00     0.001 A 
HETATM   12  C   UNL     1      42.794 -15.144   7.239  1.00  0.00     0.013 A 
HETATM   13  N   UNL     1      41.812 -12.222   6.149  1.00  0.00    -0.201 N 
HETATM   14  C   UNL     1      40.492 -12.555   5.897  1.00  0.00     0.238 C 
HETATM   15  C   UNL     1      39.467 -11.547   6.355  1.00  0.00     0.119 C 
HETATM   16  O   UNL     1      40.151 -13.592   5.328  1.00  0.00    -0.272 OA
HETATM   17  N   UNL     1      42.145 -10.959   6.614  1.00  0.00    -0.141 NA
ENDROOT
BRANCH   6  18
HETATM   18  C   UNL     1      43.217 -14.874   2.348  1.00  0.00     0.134 C 
BRANCH  18  19
HETATM   19  C   UNL     1      42.015 -15.691   1.885  1.00  0.00     0.047 C 
BRANCH  19  20
HETATM   20  C   UNL     1      40.770 -14.833   1.695  1.00  0.00     0.177 C 
BRANCH  20  21
HETATM   21  O   UNL     1      40.314 -15.055   0.361  1.00  0.00    -0.351 OA
BRANCH  21  22
HETATM   22  C   UNL     1      40.119 -13.966  -0.436  1.00  0.00     0.068 A 
HETATM   23  C   UNL     1      39.464 -13.949  -1.662  1.00  0.00     0.037 A 
HETATM   24  C   UNL     1      39.350 -12.752  -2.386  1.00  0.00     0.011 A 
HETATM   25  C   UNL     1      39.885 -11.545  -1.904  1.00  0.00    -0.050 A 
HETATM   26  C   UNL     1      40.535 -11.588  -0.657  1.00  0.00     0.011 A 
HETATM   27  C   UNL     1      40.650 -12.780   0.062  1.00  0.00     0.037 A 
BRANCH  25  28
HETATM   28  C   UNL     1      39.784 -10.219  -2.676  1.00  0.00    -0.024 C 
HETATM   29  C   UNL     1      40.869 -10.045  -3.762  1.00  0.00     0.019 C 
HETATM   30  C   UNL     1      38.413 -10.135  -3.379  1.00  0.00     0.019 C 
HETATM   31  C   UNL     1      39.927  -9.033  -1.696  1.00  0.00     0.019 C 
ENDBRANCH  25  28
ENDBRANCH  21  22
ENDBRANCH  20  21
ENDBRANCH  19  20
ENDBRANCH  18  19
ENDBRANCH   6  18
BRANCH   1  32
HETATM   32  N   UNL     1      44.127  -9.715   7.033  1.00  0.00    -0.305 N 
HETATM   33  C   UNL     1      44.605  -9.308   8.256  1.00  0.00     0.219 C 
HETATM   34  C   UNL     1      44.285 -10.132   9.472  1.00  0.00     0.117 C 
HETATM   35  O   UNL     1      45.279  -8.280   8.328  1.00  0.00    -0.274 OA
HETATM   36  H   UNL     1      44.329  -9.065   6.287  1.00  0.00     0.171 HD
ENDBRANCH   1  32
TORSDOF 7
ENDMDL
MODEL 8
REMARK VINA RESULT:      -8.1      3.223      8.081
REMARK  7 active torsions:
REMARK  status: ('A' for Active; 'I' for Inactive)
REMARK       I    between atoms: C_2  and  N_3 
REMARK    1  A    between atoms: N_3  and  C_4 
REMARK    2  A    between atoms: N_9  and  C_10 
REMARK    3  A    between atoms: C_10  and  C_11 
REMARK    4  A    between atoms: C_11  and  C_12 
REMARK    5  A    between atoms: C_12  and  O_13 
REMARK    6  A    between atoms: O_13  and  C_14 
REMARK    7  A    between atoms: C_17  and  C_18 
REMARK       I    between atoms: N_30  and  C_31 
ROOT
HETATM    1  C   UNL     1      43.455 -10.680   6.761  1.00  0.00     0.191 C 
HETATM    2  S   UNL     1      44.388 -12.071   6.313  1.00  0.00    -0.042 SA
HETATM    3  C   UNL     1      42.825 -12.861   5.752  1.00  0.00     0.224 A 
HETATM    4  C   UNL     1      42.815 -12.829   4.198  1.00  0.00     0.271 A 
HETATM    5  O   UNL     1      42.759 -11.818   3.509  1.00  0.00    -0.269 OA
HETATM    6  N   UNL     1      42.911 -14.163   3.759  1.00  0.00    -0.314 N 
HETATM    7  C   UNL     1      42.861 -15.044   4.860  1.00  0.00     0.047 A 
HETATM    8  C   UNL     1      42.798 -14.326   6.061  1.00  0.00     0.019 A 
HETATM    9  C   UNL     1      42.851 -16.428   4.850  1.00  0.00     0.030 A 
HETATM   10  C   UNL     1      42.778 -17.093   6.078  1.00  0.00     0.002 A 
HETATM   11  C   UNL     1      42.714 -16.376   7.283  1.00  0.00     0.001 A 
HETATM   12  C   UNL     1      42.724 -14.980   7.283  1.00  0.00     0.013 A 
HETATM   13  N   UNL     1      41.772 -12.011   6.298  1.00  0.00    -0.201 N 
HETATM   14  C   UNL     1      40.430 -12.301   6.116  1.00  0.00     0.238 C 
HETATM   15  C   UNL     1      39.464 -11.271   6.647  1.00  0.00     0.119 C 
HETATM   16  O   UNL     1      40.026 -13.316   5.550  1.00  0.00    -0.272 OA
HETATM   17  N   UNL     1      42.169 -10.768   6.764  1.00  0.00    -0.141 NA
ENDROOT
BRANCH   6  18
HETATM   18  C   UNL     1      42.879 -14.634   2.381  1.00  0.00     0.134 C 
BRANCH  18  19
HETATM   19  C   UNL     1      41.535 -15.166   1.894  1.00  0.00     0.047 C 
BRANCH  19  20
HETATM   20  C   UNL     1      41.128 -14.567   0.551  1.00  0.00     0.177 C 
BRANCH  20  21
HETATM   21  O   UNL     1      39.868 -13.928   0.749  1.00  0.00    -0.351 OA
BRANCH  21  22
HETATM   22  C   UNL     1      39.869 -12.654   1.233  1.00  0.00     0.068 A 
HETATM   23  C   UNL     1      40.603 -11.583   0.735  1.00  0.00     0.037 A 
HETATM   24  C   UNL     1      40.519 -10.322   1.346  1.00  0.00     0.011 A 
HETATM   25  C   UNL     1      39.700 -10.099   2.466  1.00  0.00    -0.050 A 
HETATM   26  C   UNL     1      38.960 -11.196   2.945  1.00  0.00     0.011 A 
HETATM   27  C   UNL     1      39.046 -12.451   2.338  1.00  0.00     0.037 A 
BRANCH  25  28
HETATM   28  C   UNL     1      39.591  -8.733   3.163  1.00  0.00    -0.024 C 
HETATM   29  C   UNL     1      40.625  -8.524   4.291  1.00  0.00     0.019 C 
HETATM   30  C   UNL     1      39.806  -7.608   2.128  1.00  0.00     0.019 C 
HETATM   31  C   UNL     1      38.190  -8.580   3.796  1.00  0.00     0.019 C 
ENDBRANCH  25  28
ENDBRANCH  21  22
ENDBRANCH  20  21
ENDBRANCH  19  20
ENDBRANCH  18  19
ENDBRANCH   6  18
BRANCH   1  32
HETATM   32  N   UNL     1      44.209  -9.591   7.090  1.00  0.00    -0.305 N 
HETATM   33  C   UNL     1      44.781  -9.228   8.287  1.00  0.00     0.219 C 
HETATM   34  C   UNL     1      44.524 -10.076   9.501  1.00  0.00     0.117 C 
HETATM   35  O   UNL     1      45.486  -8.220   8.337  1.00  0.00    -0.274 OA
HETATM   36  H   UNL     1      44.376  -8.926   6.349  1.00  0.00     0.171 HD
ENDBRANCH   1  32
TORSDOF 7
ENDMDL
MODEL 9
REMARK VINA RESULT:      -8.1     18.174     20.868
REMARK  7 active torsions:
REMARK  status: ('A' for Active; 'I' for Inactive)
REMARK       I    between atoms: C_2  and  N_3 
REMARK    1  A    between atoms: N_3  and  C_4 
REMARK    2  A    between atoms: N_9  and  C_10 
REMARK    3  A    between atoms: C_10  and  C_11 
REMARK    4  A    between atoms: C_11  and  C_12 
REMARK    5  A    between atoms: C_12  and  O_13 
REMARK    6  A    between atoms: O_13  and  C_14 
REMARK    7  A    between atoms: C_17  and  C_18 
REMARK       I    between atoms: N_30  and  C_31 
ROOT
HETATM    1  C   UNL     1      44.652 -30.933   1.700  1.00  0.00     0.191 C 
HETATM    2  S   UNL     1      44.227 -31.722   0.216  1.00  0.00    -0.042 SA
HETATM    3  C   UNL     1      45.570 -30.770  -0.604  1.00  0.00     0.224 A 
HETATM    4  C   UNL     1      46.753 -31.747  -0.854  1.00  0.00     0.271 A 
HETATM    5  O   UNL     1      47.425 -32.287   0.015  1.00  0.00    -0.269 OA
HETATM    6  N   UNL     1      46.868 -31.901  -2.249  1.00  0.00    -0.314 N 
HETATM    7  C   UNL     1      45.969 -31.040  -2.912  1.00  0.00     0.047 A 
HETATM    8  C   UNL     1      45.186 -30.340  -1.986  1.00  0.00     0.019 A 
HETATM    9  C   UNL     1      45.824 -30.836  -4.273  1.00  0.00     0.030 A 
HETATM   10  C   UNL     1      44.868 -29.909  -4.701  1.00  0.00     0.002 A 
HETATM   11  C   UNL     1      44.083 -29.205  -3.774  1.00  0.00     0.001 A 
HETATM   12  C   UNL     1      44.237 -29.417  -2.403  1.00  0.00     0.013 A 
HETATM   13  N   UNL     1      45.936 -29.747   0.371  1.00  0.00    -0.201 N 
HETATM   14  C   UNL     1      46.907 -28.797   0.104  1.00  0.00     0.238 C 
HETATM   15  C   UNL     1      47.250 -27.876   1.249  1.00  0.00     0.119 C 
HETATM   16  O   UNL     1      47.479 -28.697  -0.982  1.00  0.00    -0.272 OA
HETATM   17  N   UNL     1      45.472 -29.938   1.663  1.00  0.00    -0.141 NA
ENDROOT
BRANCH   6  18
HETATM   18  C   UNL     1      47.874 -32.678  -2.962  1.00  0.00     0.134 C 
BRANCH  18  19
HETATM   19  C   UNL     1      49.268 -32.062  -3.019  1.00  0.00     0.047 C 
BRANCH  19  20
HETATM   20  C   UNL     1      50.292 -32.875  -2.234  1.00  0.00     0.177 C 
BRANCH  20  21
HETATM   21  O   UNL     1      51.109 -31.942  -1.528  1.00  0.00    -0.351 OA
BRANCH  21  22
HETATM   22  C   UNL     1      50.852 -31.746  -0.204  1.00  0.00     0.068 A 
HETATM   23  C   UNL     1      50.935 -32.702   0.803  1.00  0.00     0.037 A 
HETATM   24  C   UNL     1      50.625 -32.362   2.129  1.00  0.00     0.011 A 
HETATM   25  C   UNL     1      50.229 -31.061   2.483  1.00  0.00    -0.050 A 
HETATM   26  C   UNL     1      50.163 -30.110   1.448  1.00  0.00     0.011 A 
HETATM   27  C   UNL     1      50.468 -30.449   0.128  1.00  0.00     0.037 A 
BRANCH  25  28
HETATM   28  C   UNL     1      49.876 -30.658   3.924  1.00  0.00    -0.024 C 
HETATM   29  C   UNL     1      51.074 -30.705   4.896  1.00  0.00     0.019 C 
HETATM   30  C   UNL     1      49.329 -29.214   3.937  1.00  0.00     0.019 C 
HETATM   31  C   UNL     1      48.798 -31.614   4.484  1.00  0.00     0.019 C 
ENDBRANCH  25  28
ENDBRANCH  21  22
ENDBRANCH  20  21
ENDBRANCH  19  20
ENDBRANCH  18  19
ENDBRANCH   6  18
BRANCH   1  32
HETATM   32  N   UNL     1      44.042 -31.459   2.801  1.00  0.00    -0.305 N 
HETATM   33  C   UNL     1      42.855 -31.126   3.410  1.00  0.00     0.219 C 
HETATM   34  C   UNL     1      42.073 -29.954   2.885  1.00  0.00     0.117 C 
HETATM   35  O   UNL     1      42.462 -31.790   4.369  1.00  0.00    -0.274 OA
HETATM   36  H   UNL     1      44.532 -32.210   3.264  1.00  0.00     0.171 HD
ENDBRANCH   1  32
TORSDOF 7
ENDMDL
MODEL 10
REMARK VINA RESULT:      -8.0      3.814      8.412
REMARK  7 active torsions:
REMARK  status: ('A' for Active; 'I' for Inactive)
REMARK       I    between atoms: C_2  and  N_3 
REMARK    1  A    between atoms: N_3  and  C_4 
REMARK    2  A    between atoms: N_9  and  C_10 
REMARK    3  A    between atoms: C_10  and  C_11 
REMARK    4  A    between atoms: C_11  and  C_12 
REMARK    5  A    between atoms: C_12  and  O_13 
REMARK    6  A    between atoms: O_13  and  C_14 
REMARK    7  A    between atoms: C_17  and  C_18 
REMARK       I    between atoms: N_30  and  C_31 
ROOT
HETATM    1  C   UNL     1      42.631 -14.369   7.047  1.00  0.00     0.191 C 
HETATM    2  S   UNL     1      41.241 -14.094   6.050  1.00  0.00    -0.042 SA
HETATM    3  C   UNL     1      41.854 -12.383   5.773  1.00  0.00     0.224 A 
HETATM    4  C   UNL     1      42.438 -12.321   4.334  1.00  0.00     0.271 A 
HETATM    5  O   UNL     1      43.426 -12.928   3.941  1.00  0.00    -0.269 OA
HETATM    6  N   UNL     1      41.601 -11.469   3.588  1.00  0.00    -0.314 N 
HETATM    7  C   UNL     1      40.622 -10.891   4.424  1.00  0.00     0.047 A 
HETATM    8  C   UNL     1      40.734 -11.389   5.729  1.00  0.00     0.019 A 
HETATM    9  C   UNL     1      39.663  -9.949   4.096  1.00  0.00     0.030 A 
HETATM   10  C   UNL     1      38.804  -9.507   5.107  1.00  0.00     0.002 A 
HETATM   11  C   UNL     1      38.916 -10.003   6.416  1.00  0.00     0.001 A 
HETATM   12  C   UNL     1      39.887 -10.953   6.737  1.00  0.00     0.013 A 
HETATM   13  N   UNL     1      42.905 -12.208   6.771  1.00  0.00    -0.201 N 
HETATM   14  C   UNL     1      43.597 -11.016   6.903  1.00  0.00     0.238 C 
HETATM   15  C   UNL     1      44.726 -11.026   7.904  1.00  0.00     0.119 C 
HETATM   16  O   UNL     1      43.338 -10.005   6.250  1.00  0.00    -0.272 OA
HETATM   17  N   UNL     1      43.364 -13.363   7.384  1.00  0.00    -0.141 NA
ENDROOT
BRANCH   6  18
HETATM   18  C   UNL     1      41.782 -11.059   2.202  1.00  0.00     0.134 C 
BRANCH  18  19
HETATM   19  C   UNL     1      40.819 -11.682   1.196  1.00  0.00     0.047 C 
BRANCH  19  20
HETATM   20  C   UNL     1      41.300 -13.041   0.700  1.00  0.00     0.177 C 
BRANCH  20  21
HETATM   21  O   UNL     1      40.797 -14.016   1.613  1.00  0.00    -0.351 OA
BRANCH  21  22
HETATM   22  C   UNL     1      41.559 -15.122   1.847  1.00  0.00     0.068 A 
HETATM   23  C   UNL     1      42.900 -15.284   1.518  1.00  0.00     0.037 A 
HETATM   24  C   UNL     1      43.559 -16.490   1.806  1.00  0.00     0.011 A 
HETATM   25  C   UNL     1      42.896 -17.560   2.431  1.00  0.00    -0.050 A 
HETATM   26  C   UNL     1      41.543 -17.367   2.762  1.00  0.00     0.011 A 
HETATM   27  C   UNL     1      40.887 -16.168   2.473  1.00  0.00     0.037 A 
BRANCH  25  28
HETATM   28  C   UNL     1      43.586 -18.896   2.753  1.00  0.00    -0.024 C 
HETATM   29  C   UNL     1      43.523 -19.286   4.246  1.00  0.00     0.019 C 
HETATM   30  C   UNL     1      42.913 -20.030   1.952  1.00  0.00     0.019 C 
HETATM   31  C   UNL     1      45.080 -18.818   2.366  1.00  0.00     0.019 C 
ENDBRANCH  25  28
ENDBRANCH  21  22
ENDBRANCH  20  21
ENDBRANCH  19  20
ENDBRANCH  18  19
ENDBRANCH   6  18
BRANCH   1  32
HETATM   32  N   UNL     1      42.810 -15.675   7.400  1.00  0.00    -0.305 N 
HETATM   33  C   UNL     1      43.649 -16.634   6.883  1.00  0.00     0.219 C 
HETATM   34  C   UNL     1      44.490 -16.293   5.684  1.00  0.00     0.117 C 
HETATM   35  O   UNL     1      43.691 -17.746   7.410  1.00  0.00    -0.274 OA
HETATM   36  H   UNL     1      42.233 -16.014   8.156  1.00  0.00     0.171 HD
ENDBRANCH   1  32
TORSDOF 7
ENDMDL
