MODEL 1
REMARK VINA RESULT:      -9.4      0.000      0.000
REMARK  7 active torsions:
REMARK  status: ('A' for Active; 'I' for Inactive)
REMARK    1  A    between atoms: C_2  and  C_3 
REMARK    2  A    between atoms: C_4  and  N_5 
REMARK       I    between atoms: N_5  and  C_6 
REMARK    3  A    between atoms: C_6  and  C_7 
REMARK    4  A    between atoms: C_8  and  N_9 
REMARK       I    between atoms: N_9  and  C_10 
REMARK    5  A    between atoms: C_10  and  C_11 
REMARK    6  A    between atoms: C_11  and  N_12 
REMARK    7  A    between atoms: C_25  and  C_26 
ROOT
HETATM    1  C   UNL     1      42.389 -13.490   3.972  1.00  0.00     0.073 A 
HETATM    2  C   UNL     1      41.826 -12.574   3.098  1.00  0.00     0.093 A 
HETATM    3  S   UNL     1      42.031 -10.957   3.568  1.00  0.00    -0.075 SA
HETATM    4  C   UNL     1      42.961 -11.414   4.913  1.00  0.00    -0.008 A 
HETATM    5  C   UNL     1      43.076 -12.785   5.043  1.00  0.00    -0.026 A 
HETATM    6  C   UNL     1      43.777 -13.379   6.231  1.00  0.00     0.041 C 
HETATM    7  C   UNL     1      43.865 -12.383   7.401  1.00  0.00     0.010 C 
HETATM    8  C   UNL     1      44.410 -11.001   6.950  1.00  0.00    -0.002 C 
HETATM    9  C   UNL     1      43.472 -10.383   5.878  1.00  0.00     0.052 C 
ENDROOT
BRANCH   1  10
HETATM   10  C   UNL     1      42.161 -14.941   3.870  1.00  0.00     0.259 C 
HETATM   11  N   UNL     1      43.283 -15.653   3.495  1.00  0.00    -0.322 N 
HETATM   12  H   UNL     1      44.063 -15.093   3.181  1.00  0.00     0.169 HD
HETATM   13  O   UNL     1      41.044 -15.409   4.083  1.00  0.00    -0.267 OA
BRANCH  11  14
HETATM   14  C   UNL     1      43.436 -17.057   3.408  1.00  0.00     0.041 A 
HETATM   15  C   UNL     1      43.955 -17.769   4.514  1.00  0.00    -0.032 A 
HETATM   16  C   UNL     1      44.116 -19.166   4.419  1.00  0.00     0.009 A 
HETATM   17  C   UNL     1      43.749 -19.856   3.266  1.00  0.00     0.001 A 
HETATM   18  C   UNL     1      43.214 -19.161   2.191  1.00  0.00     0.002 A 
HETATM   19  C   UNL     1      43.058 -17.774   2.263  1.00  0.00     0.030 A 
BRANCH  15  20
HETATM   20  C   UNL     1      44.378 -17.112   5.811  1.00  0.00     0.036 C 
HETATM   21  C   UNL     1      43.252 -17.089   6.835  1.00  0.00     0.010 C 
ENDBRANCH  15  20
ENDBRANCH  11  14
ENDBRANCH   1  10
BRANCH   2  22
HETATM   22  N   UNL     1      41.075 -12.691   1.950  1.00  0.00    -0.319 N 
HETATM   23  C   UNL     1      39.699 -12.697   1.974  1.00  0.00     0.248 C 
HETATM   24  O   UNL     1      38.988 -13.014   2.928  1.00  0.00    -0.271 OA
HETATM   25  H   UNL     1      41.582 -12.981   1.122  1.00  0.00     0.169 HD
BRANCH  23  26
HETATM   26  C   UNL     1      39.056 -12.297   0.649  1.00  0.00     0.337 C 
BRANCH  26  27
HETATM   27  N   UNL     1      39.896 -12.742  -0.543  1.00  0.00    -0.059 N 
HETATM   28  H   UNL     1      40.707 -13.233  -0.133  1.00  0.00     0.280 HD
HETATM   29  C   UNL     1      39.183 -13.789  -1.404  1.00  0.00     0.261 C 
HETATM   30  C   UNL     1      40.094 -14.189  -2.571  1.00  0.00     0.195 C 
HETATM   31  O   UNL     1      40.473 -13.042  -3.343  1.00  0.00    -0.388 OA
HETATM   32  C   UNL     1      41.212 -12.100  -2.559  1.00  0.00     0.195 C 
HETATM   33  C   UNL     1      40.371 -11.581  -1.390  1.00  0.00     0.261 C 
ENDBRANCH  26  27
ENDBRANCH  23  26
ENDBRANCH   2  22
BRANCH   8  34
HETATM   34  C   UNL     1      44.706 -10.017   8.146  1.00  0.00    -0.047 C 
HETATM   35  C   UNL     1      46.131  -9.435   8.015  1.00  0.00     0.015 C 
HETATM   36  C   UNL     1      43.723  -8.826   8.122  1.00  0.00     0.015 C 
HETATM   37  C   UNL     1      44.596 -10.704   9.520  1.00  0.00     0.015 C 
ENDBRANCH   8  34
TORSDOF 7
ENDMDL
MODEL 2
REMARK VINA RESULT:      -9.0      2.461      7.662
REMARK  7 active torsions:
REMARK  status: ('A' for Active; 'I' for Inactive)
REMARK    1  A    between atoms: C_2  and  C_3 
REMARK    2  A    between atoms: C_4  and  N_5 
REMARK       I    between atoms: N_5  and  C_6 
REMARK    3  A    between atoms: C_6  and  C_7 
REMARK    4  A    between atoms: C_8  and  N_9 
REMARK       I    between atoms: N_9  and  C_10 
REMARK    5  A    between atoms: C_10  and  C_11 
REMARK    6  A    between atoms: C_11  and  N_12 
REMARK    7  A    between atoms: C_25  and  C_26 
ROOT
HETATM    1  C   UNL     1      41.683 -14.354   3.427  1.00  0.00     0.073 A 
HETATM    2  C   UNL     1      42.453 -13.228   3.664  1.00  0.00     0.093 A 
HETATM    3  S   UNL     1      42.408 -12.086   2.411  1.00  0.00    -0.075 SA
HETATM    4  C   UNL     1      41.283 -13.013   1.539  1.00  0.00    -0.008 A 
HETATM    5  C   UNL     1      40.979 -14.208   2.163  1.00  0.00    -0.026 A 
HETATM    6  C   UNL     1      40.080 -15.207   1.491  1.00  0.00     0.041 C 
HETATM    7  C   UNL     1      39.993 -14.969  -0.027  1.00  0.00     0.010 C 
HETATM    8  C   UNL     1      39.684 -13.486  -0.368  1.00  0.00    -0.002 C 
HETATM    9  C   UNL     1      40.806 -12.567   0.187  1.00  0.00     0.052 C 
ENDROOT
BRANCH   1  10
HETATM   10  C   UNL     1      41.732 -15.553   4.280  1.00  0.00     0.259 C 
HETATM   11  N   UNL     1      42.745 -16.430   3.946  1.00  0.00    -0.322 N 
HETATM   12  H   UNL     1      43.215 -16.234   3.075  1.00  0.00     0.169 HD
HETATM   13  O   UNL     1      40.901 -15.712   5.172  1.00  0.00    -0.267 OA
BRANCH  11  14
HETATM   14  C   UNL     1      43.133 -17.612   4.622  1.00  0.00     0.041 A 
HETATM   15  C   UNL     1      43.520 -18.745   3.869  1.00  0.00    -0.032 A 
HETATM   16  C   UNL     1      43.895 -19.924   4.545  1.00  0.00     0.009 A 
HETATM   17  C   UNL     1      43.913 -19.981   5.936  1.00  0.00     0.001 A 
HETATM   18  C   UNL     1      43.559 -18.861   6.674  1.00  0.00     0.002 A 
HETATM   19  C   UNL     1      43.174 -17.687   6.021  1.00  0.00     0.030 A 
BRANCH  15  20
HETATM   20  C   UNL     1      43.539 -18.782   2.356  1.00  0.00     0.036 C 
HETATM   21  C   UNL     1      43.446 -20.202   1.816  1.00  0.00     0.010 C 
ENDBRANCH  15  20
ENDBRANCH  11  14
ENDBRANCH   1  10
BRANCH   2  22
HETATM   22  N   UNL     1      43.305 -12.852   4.679  1.00  0.00    -0.319 N 
HETATM   23  C   UNL     1      42.854 -12.226   5.818  1.00  0.00     0.248 C 
HETATM   24  O   UNL     1      41.817 -11.570   5.927  1.00  0.00    -0.271 OA
HETATM   25  H   UNL     1      44.292 -12.869   4.451  1.00  0.00     0.169 HD
BRANCH  23  26
HETATM   26  C   UNL     1      43.790 -12.370   7.014  1.00  0.00     0.337 C 
BRANCH  26  27
HETATM   27  N   UNL     1      44.300 -11.017   7.497  1.00  0.00    -0.059 N 
HETATM   28  H   UNL     1      43.849 -10.323   6.879  1.00  0.00     0.280 HD
HETATM   29  C   UNL     1      43.816 -10.677   8.909  1.00  0.00     0.261 C 
HETATM   30  C   UNL     1      44.363  -9.304   9.315  1.00  0.00     0.195 C 
HETATM   31  O   UNL     1      45.793  -9.274   9.228  1.00  0.00    -0.388 OA
HETATM   32  C   UNL     1      46.245  -9.510   7.891  1.00  0.00     0.195 C 
HETATM   33  C   UNL     1      45.805 -10.891   7.400  1.00  0.00     0.261 C 
ENDBRANCH  26  27
ENDBRANCH  23  26
ENDBRANCH   2  22
BRANCH   8  34
HETATM   34  C   UNL     1      39.387 -13.237  -1.896  1.00  0.00    -0.047 C 
HETATM   35  C   UNL     1      40.652 -12.703  -2.602  1.00  0.00     0.015 C 
HETATM   36  C   UNL     1      38.997 -14.558  -2.594  1.00  0.00     0.015 C 
HETATM   37  C   UNL     1      38.250 -12.220  -2.121  1.00  0.00     0.015 C 
ENDBRANCH   8  34
TORSDOF 7
ENDMDL
MODEL 3
REMARK VINA RESULT:      -8.8      2.234      7.228
REMARK  7 active torsions:
REMARK  status: ('A' for Active; 'I' for Inactive)
REMARK    1  A    between atoms: C_2  and  C_3 
REMARK    2  A    between atoms: C_4  and  N_5 
REMARK       I    between atoms: N_5  and  C_6 
REMARK    3  A    between atoms: C_6  and  C_7 
REMARK    4  A    between atoms: C_8  and  N_9 
REMARK       I    between atoms: N_9  and  C_10 
REMARK    5  A    between atoms: C_10  and  C_11 
REMARK    6  A    between atoms: C_11  and  N_12 
REMARK    7  A    between atoms: C_25  and  C_26 
ROOT
HETATM    1  C   UNL     1      41.445 -14.654   2.733  1.00  0.00     0.073 A 
HETATM    2  C   UNL     1      42.067 -13.543   3.277  1.00  0.00     0.093 A 
HETATM    3  S   UNL     1      41.916 -12.140   2.336  1.00  0.00    -0.075 SA
HETATM    4  C   UNL     1      40.933 -12.942   1.208  1.00  0.00    -0.008 A 
HETATM    5  C   UNL     1      40.759 -14.280   1.506  1.00  0.00    -0.026 A 
HETATM    6  C   UNL     1      40.004 -15.176   0.566  1.00  0.00     0.041 C 
HETATM    7  C   UNL     1      39.926 -14.582  -0.852  1.00  0.00     0.010 C 
HETATM    8  C   UNL     1      39.450 -13.104  -0.841  1.00  0.00    -0.002 C 
HETATM    9  C   UNL     1      40.440 -12.232  -0.020  1.00  0.00     0.052 C 
ENDROOT
BRANCH   1  10
HETATM   10  C   UNL     1      41.616 -16.014   3.273  1.00  0.00     0.259 C 
HETATM   11  N   UNL     1      42.693 -16.691   2.736  1.00  0.00    -0.322 N 
HETATM   12  H   UNL     1      43.125 -16.250   1.937  1.00  0.00     0.169 HD
HETATM   13  O   UNL     1      40.822 -16.455   4.101  1.00  0.00    -0.267 OA
BRANCH  11  14
HETATM   14  C   UNL     1      43.197 -17.961   3.107  1.00  0.00     0.041 A 
HETATM   15  C   UNL     1      43.817 -18.120   4.367  1.00  0.00    -0.032 A 
HETATM   16  C   UNL     1      44.327 -19.384   4.728  1.00  0.00     0.009 A 
HETATM   17  C   UNL     1      44.207 -20.478   3.876  1.00  0.00     0.001 A 
HETATM   18  C   UNL     1      43.574 -20.329   2.651  1.00  0.00     0.002 A 
HETATM   19  C   UNL     1      43.072 -19.081   2.271  1.00  0.00     0.030 A 
BRANCH  15  20
HETATM   20  C   UNL     1      43.992 -16.995   5.366  1.00  0.00     0.036 C 
HETATM   21  C   UNL     1      43.324 -17.302   6.698  1.00  0.00     0.010 C 
ENDBRANCH  15  20
ENDBRANCH  11  14
ENDBRANCH   1  10
BRANCH   2  22
HETATM   22  N   UNL     1      42.842 -13.337   4.396  1.00  0.00    -0.319 N 
HETATM   23  C   UNL     1      42.303 -13.295   5.661  1.00  0.00     0.248 C 
HETATM   24  O   UNL     1      41.138 -13.019   5.948  1.00  0.00    -0.271 OA
HETATM   25  H   UNL     1      43.786 -13.011   4.222  1.00  0.00     0.169 HD
BRANCH  23  26
HETATM   26  C   UNL     1      43.306 -13.598   6.771  1.00  0.00     0.337 C 
BRANCH  26  27
HETATM   27  N   UNL     1      43.884 -12.321   7.372  1.00  0.00    -0.059 N 
HETATM   28  H   UNL     1      44.075 -12.551   8.361  1.00  0.00     0.280 HD
HETATM   29  C   UNL     1      45.244 -11.955   6.772  1.00  0.00     0.261 C 
HETATM   30  C   UNL     1      45.759 -10.671   7.433  1.00  0.00     0.195 C 
HETATM   31  O   UNL     1      44.814  -9.602   7.286  1.00  0.00    -0.388 OA
HETATM   32  C   UNL     1      43.567  -9.911   7.918  1.00  0.00     0.195 C 
HETATM   33  C   UNL     1      42.927 -11.151   7.290  1.00  0.00     0.261 C 
ENDBRANCH  26  27
ENDBRANCH  23  26
ENDBRANCH   2  22
BRANCH   8  34
HETATM   34  C   UNL     1      39.163 -12.520  -2.276  1.00  0.00    -0.047 C 
HETATM   35  C   UNL     1      38.696 -13.646  -3.224  1.00  0.00     0.015 C 
HETATM   36  C   UNL     1      38.030 -11.472  -2.218  1.00  0.00     0.015 C 
HETATM   37  C   UNL     1      40.403 -11.853  -2.903  1.00  0.00     0.015 C 
ENDBRANCH   8  34
TORSDOF 7
ENDMDL
MODEL 4
REMARK VINA RESULT:      -8.7      1.531      1.987
REMARK  7 active torsions:
REMARK  status: ('A' for Active; 'I' for Inactive)
REMARK    1  A    between atoms: C_2  and  C_3 
REMARK    2  A    between atoms: C_4  and  N_5 
REMARK       I    between atoms: N_5  and  C_6 
REMARK    3  A    between atoms: C_6  and  C_7 
REMARK    4  A    between atoms: C_8  and  N_9 
REMARK       I    between atoms: N_9  and  C_10 
REMARK    5  A    between atoms: C_10  and  C_11 
REMARK    6  A    between atoms: C_11  and  N_12 
REMARK    7  A    between atoms: C_25  and  C_26 
ROOT
HETATM    1  C   UNL     1      41.496 -12.408   5.023  1.00  0.00     0.073 A 
HETATM    2  C   UNL     1      40.478 -11.513   4.742  1.00  0.00     0.093 A 
HETATM    3  S   UNL     1      40.636 -10.018   5.528  1.00  0.00    -0.075 SA
HETATM    4  C   UNL     1      42.125 -10.476   6.205  1.00  0.00    -0.008 A 
HETATM    5  C   UNL     1      42.481 -11.773   5.885  1.00  0.00    -0.026 A 
HETATM    6  C   UNL     1      43.716 -12.389   6.478  1.00  0.00     0.041 C 
HETATM    7  C   UNL     1      44.174 -11.647   7.747  1.00  0.00     0.010 C 
HETATM    8  C   UNL     1      44.255 -10.112   7.528  1.00  0.00    -0.002 C 
HETATM    9  C   UNL     1      42.859  -9.556   7.137  1.00  0.00     0.052 C 
ENDROOT
BRANCH   1  10
HETATM   10  C   UNL     1      41.458 -13.822   4.614  1.00  0.00     0.259 C 
HETATM   11  N   UNL     1      42.666 -14.294   4.140  1.00  0.00    -0.322 N 
HETATM   12  H   UNL     1      43.370 -13.589   3.976  1.00  0.00     0.169 HD
HETATM   13  O   UNL     1      40.409 -14.459   4.686  1.00  0.00    -0.267 OA
BRANCH  11  14
HETATM   14  C   UNL     1      42.998 -15.619   3.768  1.00  0.00     0.041 A 
HETATM   15  C   UNL     1      43.592 -16.478   4.721  1.00  0.00    -0.032 A 
HETATM   16  C   UNL     1      43.932 -17.793   4.343  1.00  0.00     0.009 A 
HETATM   17  C   UNL     1      43.670 -18.264   3.060  1.00  0.00     0.001 A 
HETATM   18  C   UNL     1      43.062 -17.430   2.133  1.00  0.00     0.002 A 
HETATM   19  C   UNL     1      42.728 -16.119   2.486  1.00  0.00     0.030 A 
BRANCH  15  20
HETATM   20  C   UNL     1      43.913 -16.064   6.141  1.00  0.00     0.036 C 
HETATM   21  C   UNL     1      42.759 -16.340   7.093  1.00  0.00     0.010 C 
ENDBRANCH  15  20
ENDBRANCH  11  14
ENDBRANCH   1  10
BRANCH   2  22
HETATM   22  N   UNL     1      39.318 -11.591   4.003  1.00  0.00    -0.319 N 
HETATM   23  C   UNL     1      39.260 -11.188   2.689  1.00  0.00     0.248 C 
HETATM   24  O   UNL     1      40.007 -10.376   2.142  1.00  0.00    -0.271 OA
HETATM   25  H   UNL     1      38.471 -11.759   4.534  1.00  0.00     0.169 HD
BRANCH  23  26
HETATM   26  C   UNL     1      38.118 -11.820   1.899  1.00  0.00     0.337 C 
BRANCH  26  27
HETATM   27  N   UNL     1      38.635 -12.759   0.813  1.00  0.00    -0.059 N 
HETATM   28  H   UNL     1      37.880 -13.449   0.672  1.00  0.00     0.280 HD
HETATM   29  C   UNL     1      38.801 -12.058  -0.537  1.00  0.00     0.261 C 
HETATM   30  C   UNL     1      39.313 -13.067  -1.572  1.00  0.00     0.195 C 
HETATM   31  O   UNL     1      40.540 -13.670  -1.138  1.00  0.00    -0.388 OA
HETATM   32  C   UNL     1      40.367 -14.396   0.084  1.00  0.00     0.195 C 
HETATM   33  C   UNL     1      39.912 -13.467   1.212  1.00  0.00     0.261 C 
ENDBRANCH  26  27
ENDBRANCH  23  26
ENDBRANCH   2  22
BRANCH   8  34
HETATM   34  C   UNL     1      44.909  -9.334   8.733  1.00  0.00    -0.047 C 
HETATM   35  C   UNL     1      44.788 -10.164  10.029  1.00  0.00     0.015 C 
HETATM   36  C   UNL     1      46.415  -9.106   8.476  1.00  0.00     0.015 C 
HETATM   37  C   UNL     1      44.250  -7.963   8.981  1.00  0.00     0.015 C 
ENDBRANCH   8  34
TORSDOF 7
ENDMDL
MODEL 5
REMARK VINA RESULT:      -8.7      2.389      7.428
REMARK  7 active torsions:
REMARK  status: ('A' for Active; 'I' for Inactive)
REMARK    1  A    between atoms: C_2  and  C_3 
REMARK    2  A    between atoms: C_4  and  N_5 
REMARK       I    between atoms: N_5  and  C_6 
REMARK    3  A    between atoms: C_6  and  C_7 
REMARK    4  A    between atoms: C_8  and  N_9 
REMARK       I    between atoms: N_9  and  C_10 
REMARK    5  A    between atoms: C_10  and  C_11 
REMARK    6  A    between atoms: C_11  and  N_12 
REMARK    7  A    between atoms: C_25  and  C_26 
ROOT
HETATM    1  C   UNL     1      42.087 -13.640   2.095  1.00  0.00     0.073 A 
HETATM    2  C   UNL     1      42.230 -12.503   2.872  1.00  0.00     0.093 A 
HETATM    3  S   UNL     1      41.257 -11.204   2.378  1.00  0.00    -0.075 SA
HETATM    4  C   UNL     1      40.537 -12.142   1.159  1.00  0.00    -0.008 A 
HETATM    5  C   UNL     1      41.064 -13.418   1.085  1.00  0.00    -0.026 A 
HETATM    6  C   UNL     1      40.624 -14.359   0.000  1.00  0.00     0.041 C 
HETATM    7  C   UNL     1      39.985 -13.610  -1.183  1.00  0.00     0.010 C 
HETATM    8  C   UNL     1      38.899 -12.603  -0.718  1.00  0.00    -0.002 C 
HETATM    9  C   UNL     1      39.527 -11.541   0.225  1.00  0.00     0.052 C 
ENDROOT
BRANCH   1  10
HETATM   10  C   UNL     1      42.972 -14.810   2.216  1.00  0.00     0.259 C 
HETATM   11  N   UNL     1      42.479 -15.793   3.052  1.00  0.00    -0.322 N 
HETATM   12  H   UNL     1      41.672 -15.530   3.598  1.00  0.00     0.169 HD
HETATM   13  O   UNL     1      44.050 -14.836   1.625  1.00  0.00    -0.267 OA
BRANCH  11  14
HETATM   14  C   UNL     1      43.022 -17.076   3.304  1.00  0.00     0.041 A 
HETATM   15  C   UNL     1      43.611 -17.346   4.561  1.00  0.00    -0.032 A 
HETATM   16  C   UNL     1      44.160 -18.621   4.804  1.00  0.00     0.009 A 
HETATM   17  C   UNL     1      44.108 -19.623   3.838  1.00  0.00     0.001 A 
HETATM   18  C   UNL     1      43.506 -19.367   2.615  1.00  0.00     0.002 A 
HETATM   19  C   UNL     1      42.967 -18.105   2.352  1.00  0.00     0.030 A 
BRANCH  15  20
HETATM   20  C   UNL     1      43.711 -16.327   5.677  1.00  0.00     0.036 C 
HETATM   21  C   UNL     1      43.123 -16.847   6.981  1.00  0.00     0.010 C 
ENDBRANCH  15  20
ENDBRANCH  11  14
ENDBRANCH   1  10
BRANCH   2  22
HETATM   22  N   UNL     1      43.041 -12.170   3.934  1.00  0.00    -0.319 N 
HETATM   23  C   UNL     1      42.732 -12.519   5.228  1.00  0.00     0.248 C 
HETATM   24  O   UNL     1      41.607 -12.762   5.669  1.00  0.00    -0.271 OA
HETATM   25  H   UNL     1      43.758 -11.480   3.738  1.00  0.00     0.169 HD
BRANCH  23  26
HETATM   26  C   UNL     1      43.937 -12.558   6.163  1.00  0.00     0.337 C 
BRANCH  26  27
HETATM   27  N   UNL     1      44.319 -11.164   6.649  1.00  0.00    -0.059 N 
HETATM   28  H   UNL     1      44.294 -10.568   5.805  1.00  0.00     0.280 HD
HETATM   29  C   UNL     1      43.276 -10.567   7.597  1.00  0.00     0.261 C 
HETATM   30  C   UNL     1      43.729  -9.168   8.031  1.00  0.00     0.195 C 
HETATM   31  O   UNL     1      45.027  -9.213   8.638  1.00  0.00    -0.388 OA
HETATM   32  C   UNL     1      46.019  -9.694   7.726  1.00  0.00     0.195 C 
HETATM   33  C   UNL     1      45.699 -11.120   7.271  1.00  0.00     0.261 C 
ENDBRANCH  26  27
ENDBRANCH  23  26
ENDBRANCH   2  22
BRANCH   8  34
HETATM   34  C   UNL     1      38.080 -11.963  -1.903  1.00  0.00    -0.047 C 
HETATM   35  C   UNL     1      37.213 -13.039  -2.592  1.00  0.00     0.015 C 
HETATM   36  C   UNL     1      37.122 -10.874  -1.373  1.00  0.00     0.015 C 
HETATM   37  C   UNL     1      38.988 -11.325  -2.973  1.00  0.00     0.015 C 
ENDBRANCH   8  34
TORSDOF 7
ENDMDL
MODEL 6
REMARK VINA RESULT:      -8.5      1.567      2.314
REMARK  7 active torsions:
REMARK  status: ('A' for Active; 'I' for Inactive)
REMARK    1  A    between atoms: C_2  and  C_3 
REMARK    2  A    between atoms: C_4  and  N_5 
REMARK       I    between atoms: N_5  and  C_6 
REMARK    3  A    between atoms: C_6  and  C_7 
REMARK    4  A    between atoms: C_8  and  N_9 
REMARK       I    between atoms: N_9  and  C_10 
REMARK    5  A    between atoms: C_10  and  C_11 
REMARK    6  A    between atoms: C_11  and  N_12 
REMARK    7  A    between atoms: C_25  and  C_26 
ROOT
HETATM    1  C   UNL     1      42.418 -12.457   4.308  1.00  0.00     0.073 A 
HETATM    2  C   UNL     1      41.154 -11.952   4.051  1.00  0.00     0.093 A 
HETATM    3  S   UNL     1      40.665 -10.739   5.131  1.00  0.00    -0.075 SA
HETATM    4  C   UNL     1      42.163 -10.776   5.930  1.00  0.00    -0.008 A 
HETATM    5  C   UNL     1      43.016 -11.737   5.422  1.00  0.00    -0.026 A 
HETATM    6  C   UNL     1      44.348 -11.988   6.068  1.00  0.00     0.041 C 
HETATM    7  C   UNL     1      44.392 -11.461   7.514  1.00  0.00     0.010 C 
HETATM    8  C   UNL     1      43.886  -9.996   7.616  1.00  0.00    -0.002 C 
HETATM    9  C   UNL     1      42.414  -9.906   7.128  1.00  0.00     0.052 C 
ENDROOT
BRANCH   1  10
HETATM   10  C   UNL     1      42.961 -13.645   3.628  1.00  0.00     0.259 C 
HETATM   11  N   UNL     1      42.710 -14.828   4.296  1.00  0.00    -0.322 N 
HETATM   12  H   UNL     1      42.341 -14.725   5.230  1.00  0.00     0.169 HD
HETATM   13  O   UNL     1      43.593 -13.525   2.581  1.00  0.00    -0.267 OA
BRANCH  11  14
HETATM   14  C   UNL     1      42.997 -16.147   3.870  1.00  0.00     0.041 A 
HETATM   15  C   UNL     1      42.340 -16.666   2.730  1.00  0.00    -0.032 A 
HETATM   16  C   UNL     1      42.619 -17.984   2.316  1.00  0.00     0.009 A 
HETATM   17  C   UNL     1      43.547 -18.770   2.994  1.00  0.00     0.001 A 
HETATM   18  C   UNL     1      44.212 -18.251   4.095  1.00  0.00     0.002 A 
HETATM   19  C   UNL     1      43.939 -16.951   4.528  1.00  0.00     0.030 A 
BRANCH  15  20
HETATM   20  C   UNL     1      41.320 -15.890   1.923  1.00  0.00     0.036 C 
HETATM   21  C   UNL     1      39.914 -16.033   2.486  1.00  0.00     0.010 C 
ENDBRANCH  15  20
ENDBRANCH  11  14
ENDBRANCH   1  10
BRANCH   2  22
HETATM   22  N   UNL     1      40.171 -12.264   3.139  1.00  0.00    -0.319 N 
HETATM   23  C   UNL     1      40.332 -12.050   1.789  1.00  0.00     0.248 C 
HETATM   24  O   UNL     1      41.094 -11.237   1.266  1.00  0.00    -0.271 OA
HETATM   25  H   UNL     1      39.256 -12.458   3.530  1.00  0.00     0.169 HD
BRANCH  23  26
HETATM   26  C   UNL     1      39.426 -12.912   0.915  1.00  0.00     0.337 C 
BRANCH  26  27
HETATM   27  N   UNL     1      39.642 -12.633  -0.569  1.00  0.00    -0.059 N 
HETATM   28  H   UNL     1      40.286 -11.825  -0.599  1.00  0.00     0.280 HD
HETATM   29  C   UNL     1      40.383 -13.769  -1.277  1.00  0.00     0.261 C 
HETATM   30  C   UNL     1      40.568 -13.408  -2.756  1.00  0.00     0.195 C 
HETATM   31  O   UNL     1      39.306 -13.134  -3.379  1.00  0.00    -0.388 OA
HETATM   32  C   UNL     1      38.649 -12.017  -2.770  1.00  0.00     0.195 C 
HETATM   33  C   UNL     1      38.357 -12.294  -1.293  1.00  0.00     0.261 C 
ENDBRANCH  26  27
ENDBRANCH  23  26
ENDBRANCH   2  22
BRANCH   8  34
HETATM   34  C   UNL     1      44.100  -9.350   9.038  1.00  0.00    -0.047 C 
HETATM   35  C   UNL     1      42.900  -9.671   9.954  1.00  0.00     0.015 C 
HETATM   36  C   UNL     1      45.360  -9.936   9.714  1.00  0.00     0.015 C 
HETATM   37  C   UNL     1      44.257  -7.818   8.975  1.00  0.00     0.015 C 
ENDBRANCH   8  34
TORSDOF 7
ENDMDL
MODEL 7
REMARK VINA RESULT:      -8.5      2.371      7.673
REMARK  7 active torsions:
REMARK  status: ('A' for Active; 'I' for Inactive)
REMARK    1  A    between atoms: C_2  and  C_3 
REMARK    2  A    between atoms: C_4  and  N_5 
REMARK       I    between atoms: N_5  and  C_6 
REMARK    3  A    between atoms: C_6  and  C_7 
REMARK    4  A    between atoms: C_8  and  N_9 
REMARK       I    between atoms: N_9  and  C_10 
REMARK    5  A    between atoms: C_10  and  C_11 
REMARK    6  A    between atoms: C_11  and  N_12 
REMARK    7  A    between atoms: C_25  and  C_26 
ROOT
HETATM    1  C   UNL     1      41.018 -12.624   2.939  1.00  0.00     0.073 A 
HETATM    2  C   UNL     1      40.504 -11.379   3.261  1.00  0.00     0.093 A 
HETATM    3  S   UNL     1      39.471 -10.734   2.080  1.00  0.00    -0.075 SA
HETATM    4  C   UNL     1      39.597 -12.136   1.131  1.00  0.00    -0.008 A 
HETATM    5  C   UNL     1      40.458 -13.072   1.673  1.00  0.00    -0.026 A 
HETATM    6  C   UNL     1      40.777 -14.334   0.924  1.00  0.00     0.041 C 
HETATM    7  C   UNL     1      40.467 -14.203  -0.578  1.00  0.00     0.010 C 
HETATM    8  C   UNL     1      39.042 -13.638  -0.832  1.00  0.00    -0.002 C 
HETATM    9  C   UNL     1      38.908 -12.226  -0.199  1.00  0.00     0.052 C 
ENDROOT
BRANCH   1  10
HETATM   10  C   UNL     1      42.083 -13.277   3.717  1.00  0.00     0.259 C 
HETATM   11  N   UNL     1      41.622 -14.255   4.576  1.00  0.00    -0.322 N 
HETATM   12  H   UNL     1      40.619 -14.290   4.690  1.00  0.00     0.169 HD
HETATM   13  O   UNL     1      43.253 -12.919   3.588  1.00  0.00    -0.267 OA
BRANCH  11  14
HETATM   14  C   UNL     1      42.381 -15.138   5.381  1.00  0.00     0.041 A 
HETATM   15  C   UNL     1      43.047 -16.229   4.776  1.00  0.00    -0.032 A 
HETATM   16  C   UNL     1      43.793 -17.112   5.582  1.00  0.00     0.009 A 
HETATM   17  C   UNL     1      43.905 -16.912   6.956  1.00  0.00     0.001 A 
HETATM   18  C   UNL     1      43.275 -15.826   7.545  1.00  0.00     0.002 A 
HETATM   19  C   UNL     1      42.521 -14.947   6.763  1.00  0.00     0.030 A 
BRANCH  15  20
HETATM   20  C   UNL     1      42.992 -16.528   3.293  1.00  0.00     0.036 C 
HETATM   21  C   UNL     1      43.418 -17.955   2.980  1.00  0.00     0.010 C 
ENDBRANCH  15  20
ENDBRANCH  11  14
ENDBRANCH   1  10
BRANCH   2  22
HETATM   22  N   UNL     1      40.696 -10.512   4.313  1.00  0.00    -0.319 N 
HETATM   23  C   UNL     1      40.638 -10.927   5.623  1.00  0.00     0.248 C 
HETATM   24  O   UNL     1      40.038 -11.916   6.048  1.00  0.00    -0.271 OA
HETATM   25  H   UNL     1      40.672  -9.526   4.078  1.00  0.00     0.169 HD
BRANCH  23  26
HETATM   26  C   UNL     1      41.379 -10.015   6.595  1.00  0.00     0.337 C 
BRANCH  26  27
HETATM   27  N   UNL     1      42.502 -10.753   7.317  1.00  0.00    -0.059 N 
HETATM   28  H   UNL     1      42.070 -11.623   7.669  1.00  0.00     0.280 HD
HETATM   29  C   UNL     1      43.611 -11.208   6.365  1.00  0.00     0.261 C 
HETATM   30  C   UNL     1      44.692 -11.946   7.164  1.00  0.00     0.195 C 
HETATM   31  O   UNL     1      45.207 -11.120   8.216  1.00  0.00    -0.388 OA
HETATM   32  C   UNL     1      44.186 -10.761   9.153  1.00  0.00     0.195 C 
HETATM   33  C   UNL     1      43.075  -9.959   8.471  1.00  0.00     0.261 C 
ENDBRANCH  26  27
ENDBRANCH  23  26
ENDBRANCH   2  22
BRANCH   8  34
HETATM   34  C   UNL     1      38.608 -13.675  -2.347  1.00  0.00    -0.047 C 
HETATM   35  C   UNL     1      39.573 -12.820  -3.197  1.00  0.00     0.015 C 
HETATM   36  C   UNL     1      38.672 -15.118  -2.894  1.00  0.00     0.015 C 
HETATM   37  C   UNL     1      37.178 -13.142  -2.567  1.00  0.00     0.015 C 
ENDBRANCH   8  34
TORSDOF 7
ENDMDL
MODEL 8
REMARK VINA RESULT:      -8.3      2.021      6.394
REMARK  7 active torsions:
REMARK  status: ('A' for Active; 'I' for Inactive)
REMARK    1  A    between atoms: C_2  and  C_3 
REMARK    2  A    between atoms: C_4  and  N_5 
REMARK       I    between atoms: N_5  and  C_6 
REMARK    3  A    between atoms: C_6  and  C_7 
REMARK    4  A    between atoms: C_8  and  N_9 
REMARK       I    between atoms: N_9  and  C_10 
REMARK    5  A    between atoms: C_10  and  C_11 
REMARK    6  A    between atoms: C_11  and  N_12 
REMARK    7  A    between atoms: C_25  and  C_26 
ROOT
HETATM    1  C   UNL     1      40.633 -14.451   4.004  1.00  0.00     0.073 A 
HETATM    2  C   UNL     1      40.051 -14.444   2.748  1.00  0.00     0.093 A 
HETATM    3  S   UNL     1      40.528 -15.737   1.760  1.00  0.00    -0.075 SA
HETATM    4  C   UNL     1      41.463 -16.410   3.007  1.00  0.00    -0.008 A 
HETATM    5  C   UNL     1      41.462 -15.637   4.153  1.00  0.00    -0.026 A 
HETATM    6  C   UNL     1      42.316 -16.020   5.328  1.00  0.00     0.041 C 
HETATM    7  C   UNL     1      43.453 -16.975   4.923  1.00  0.00     0.010 C 
HETATM    8  C   UNL     1      42.936 -18.172   4.079  1.00  0.00    -0.002 C 
HETATM    9  C   UNL     1      42.270 -17.655   2.774  1.00  0.00     0.052 C 
ENDROOT
BRANCH   1  10
HETATM   10  C   UNL     1      40.520 -13.326   4.947  1.00  0.00     0.259 C 
HETATM   11  N   UNL     1      41.511 -12.377   4.798  1.00  0.00    -0.322 N 
HETATM   12  H   UNL     1      42.273 -12.641   4.189  1.00  0.00     0.169 HD
HETATM   13  O   UNL     1      39.619 -13.308   5.784  1.00  0.00    -0.267 OA
BRANCH  11  14
HETATM   14  C   UNL     1      41.635 -11.133   5.463  1.00  0.00     0.041 A 
HETATM   15  C   UNL     1      42.603 -10.987   6.484  1.00  0.00    -0.032 A 
HETATM   16  C   UNL     1      42.716  -9.750   7.152  1.00  0.00     0.009 A 
HETATM   17  C   UNL     1      41.910  -8.669   6.806  1.00  0.00     0.001 A 
HETATM   18  C   UNL     1      40.979  -8.805   5.787  1.00  0.00     0.002 A 
HETATM   19  C   UNL     1      40.844 -10.027   5.121  1.00  0.00     0.030 A 
BRANCH  15  20
HETATM   20  C   UNL     1      43.530 -12.098   6.928  1.00  0.00     0.036 C 
HETATM   21  C   UNL     1      44.975 -11.833   6.530  1.00  0.00     0.010 C 
ENDBRANCH  15  20
ENDBRANCH  11  14
ENDBRANCH   1  10
BRANCH   2  22
HETATM   22  N   UNL     1      39.207 -13.575   2.094  1.00  0.00    -0.319 N 
HETATM   23  C   UNL     1      39.667 -12.437   1.472  1.00  0.00     0.248 C 
HETATM   24  O   UNL     1      40.708 -11.833   1.736  1.00  0.00    -0.271 OA
HETATM   25  H   UNL     1      38.218 -13.705   2.275  1.00  0.00     0.169 HD
BRANCH  23  26
HETATM   26  C   UNL     1      38.737 -11.906   0.385  1.00  0.00     0.337 C 
BRANCH  26  27
HETATM   27  N   UNL     1      38.572 -12.908  -0.753  1.00  0.00    -0.059 N 
HETATM   28  H   UNL     1      38.110 -13.728  -0.326  1.00  0.00     0.280 HD
HETATM   29  C   UNL     1      37.603 -12.415  -1.831  1.00  0.00     0.261 C 
HETATM   30  C   UNL     1      37.486 -13.478  -2.930  1.00  0.00     0.195 C 
HETATM   31  O   UNL     1      38.772 -13.791  -3.481  1.00  0.00    -0.388 OA
HETATM   32  C   UNL     1      39.653 -14.330  -2.490  1.00  0.00     0.195 C 
HETATM   33  C   UNL     1      39.893 -13.320  -1.365  1.00  0.00     0.261 C 
ENDBRANCH  26  27
ENDBRANCH  23  26
ENDBRANCH   2  22
BRANCH   8  34
HETATM   34  C   UNL     1      44.028 -19.277   3.813  1.00  0.00    -0.047 C 
HETATM   35  C   UNL     1      43.760 -19.976   2.463  1.00  0.00     0.015 C 
HETATM   36  C   UNL     1      45.433 -18.641   3.728  1.00  0.00     0.015 C 
HETATM   37  C   UNL     1      44.057 -20.358   4.912  1.00  0.00     0.015 C 
ENDBRANCH   8  34
TORSDOF 7
ENDMDL
MODEL 9
REMARK VINA RESULT:      -8.2      2.593      7.788
REMARK  7 active torsions:
REMARK  status: ('A' for Active; 'I' for Inactive)
REMARK    1  A    between atoms: C_2  and  C_3 
REMARK    2  A    between atoms: C_4  and  N_5 
REMARK       I    between atoms: N_5  and  C_6 
REMARK    3  A    between atoms: C_6  and  C_7 
REMARK    4  A    between atoms: C_8  and  N_9 
REMARK       I    between atoms: N_9  and  C_10 
REMARK    5  A    between atoms: C_10  and  C_11 
REMARK    6  A    between atoms: C_11  and  N_12 
REMARK    7  A    between atoms: C_25  and  C_26 
ROOT
HETATM    1  C   UNL     1      40.824 -13.121   3.071  1.00  0.00     0.073 A 
HETATM    2  C   UNL     1      40.343 -11.923   3.572  1.00  0.00     0.093 A 
HETATM    3  S   UNL     1      39.363 -11.065   2.486  1.00  0.00    -0.075 SA
HETATM    4  C   UNL     1      39.468 -12.308   1.333  1.00  0.00    -0.008 A 
HETATM    5  C   UNL     1      40.283 -13.347   1.740  1.00  0.00    -0.026 A 
HETATM    6  C   UNL     1      40.579 -14.489   0.810  1.00  0.00     0.041 C 
HETATM    7  C   UNL     1      40.312 -14.115  -0.659  1.00  0.00     0.010 C 
HETATM    8  C   UNL     1      38.914 -13.467  -0.852  1.00  0.00    -0.002 C 
HETATM    9  C   UNL     1      38.811 -12.165  -0.010  1.00  0.00     0.052 C 
ENDROOT
BRANCH   1  10
HETATM   10  C   UNL     1      41.847 -13.926   3.760  1.00  0.00     0.259 C 
HETATM   11  N   UNL     1      41.452 -15.225   4.012  1.00  0.00    -0.322 N 
HETATM   12  H   UNL     1      40.474 -15.418   3.850  1.00  0.00     0.169 HD
HETATM   13  O   UNL     1      42.921 -13.420   4.079  1.00  0.00    -0.267 OA
BRANCH  11  14
HETATM   14  C   UNL     1      42.223 -16.280   4.557  1.00  0.00     0.041 A 
HETATM   15  C   UNL     1      42.825 -17.219   3.688  1.00  0.00    -0.032 A 
HETATM   16  C   UNL     1      43.582 -18.275   4.234  1.00  0.00     0.009 A 
HETATM   17  C   UNL     1      43.767 -18.392   5.610  1.00  0.00     0.001 A 
HETATM   18  C   UNL     1      43.200 -17.454   6.460  1.00  0.00     0.002 A 
HETATM   19  C   UNL     1      42.436 -16.407   5.937  1.00  0.00     0.030 A 
BRANCH  15  20
HETATM   20  C   UNL     1      42.688 -17.177   2.180  1.00  0.00     0.036 C 
HETATM   21  C   UNL     1      43.574 -16.109   1.555  1.00  0.00     0.010 C 
ENDBRANCH  15  20
ENDBRANCH  11  14
ENDBRANCH   1  10
BRANCH   2  22
HETATM   22  N   UNL     1      40.537 -11.237   4.750  1.00  0.00    -0.319 N 
HETATM   23  C   UNL     1      41.474 -10.237   4.868  1.00  0.00     0.248 C 
HETATM   24  O   UNL     1      42.483 -10.098   4.175  1.00  0.00    -0.271 OA
HETATM   25  H   UNL     1      40.107 -11.647   5.572  1.00  0.00     0.169 HD
BRANCH  23  26
HETATM   26  C   UNL     1      41.195  -9.259   6.006  1.00  0.00     0.337 C 
BRANCH  26  27
HETATM   27  N   UNL     1      42.440  -9.004   6.849  1.00  0.00    -0.059 N 
HETATM   28  H   UNL     1      43.153  -8.667   6.181  1.00  0.00     0.280 HD
HETATM   29  C   UNL     1      42.248  -7.860   7.847  1.00  0.00     0.261 C 
HETATM   30  C   UNL     1      43.542  -7.663   8.646  1.00  0.00     0.195 C 
HETATM   31  O   UNL     1      43.930  -8.876   9.304  1.00  0.00    -0.388 OA
HETATM   32  C   UNL     1      44.190  -9.924   8.365  1.00  0.00     0.195 C 
HETATM   33  C   UNL     1      42.937 -10.251   7.549  1.00  0.00     0.261 C 
ENDBRANCH  26  27
ENDBRANCH  23  26
ENDBRANCH   2  22
BRANCH   8  34
HETATM   34  C   UNL     1      38.519 -13.252  -2.362  1.00  0.00    -0.047 C 
HETATM   35  C   UNL     1      37.199 -12.458  -2.458  1.00  0.00     0.015 C 
HETATM   36  C   UNL     1      39.602 -12.430  -3.094  1.00  0.00     0.015 C 
HETATM   37  C   UNL     1      38.331 -14.581  -3.120  1.00  0.00     0.015 C 
ENDBRANCH   8  34
TORSDOF 7
ENDMDL
MODEL 10
REMARK VINA RESULT:      -8.0      3.048      7.265
REMARK  7 active torsions:
REMARK  status: ('A' for Active; 'I' for Inactive)
REMARK    1  A    between atoms: C_2  and  C_3 
REMARK    2  A    between atoms: C_4  and  N_5 
REMARK       I    between atoms: N_5  and  C_6 
REMARK    3  A    between atoms: C_6  and  C_7 
REMARK    4  A    between atoms: C_8  and  N_9 
REMARK       I    between atoms: N_9  and  C_10 
REMARK    5  A    between atoms: C_10  and  C_11 
REMARK    6  A    between atoms: C_11  and  N_12 
REMARK    7  A    between atoms: C_25  and  C_26 
ROOT
HETATM    1  C   UNL     1      40.789 -13.635   2.987  1.00  0.00     0.073 A 
HETATM    2  C   UNL     1      40.157 -12.598   3.654  1.00  0.00     0.093 A 
HETATM    3  S   UNL     1      39.095 -11.701   2.682  1.00  0.00    -0.075 SA
HETATM    4  C   UNL     1      39.367 -12.722   1.354  1.00  0.00    -0.008 A 
HETATM    5  C   UNL     1      40.298 -13.709   1.620  1.00  0.00    -0.026 A 
HETATM    6  C   UNL     1      40.745 -14.644   0.533  1.00  0.00     0.041 C 
HETATM    7  C   UNL     1      40.456 -14.075  -0.868  1.00  0.00     0.010 C 
HETATM    8  C   UNL     1      38.991 -13.576  -1.003  1.00  0.00    -0.002 C 
HETATM    9  C   UNL     1      38.717 -12.447   0.029  1.00  0.00     0.052 C 
ENDROOT
BRANCH   1  10
HETATM   10  C   UNL     1      41.893 -14.411   3.576  1.00  0.00     0.259 C 
HETATM   11  N   UNL     1      41.634 -15.765   3.663  1.00  0.00    -0.322 N 
HETATM   12  H   UNL     1      40.679 -16.034   3.474  1.00  0.00     0.169 HD
HETATM   13  O   UNL     1      42.914 -13.843   3.959  1.00  0.00    -0.267 OA
BRANCH  11  14
HETATM   14  C   UNL     1      42.511 -16.796   4.076  1.00  0.00     0.041 A 
HETATM   15  C   UNL     1      42.652 -17.076   5.455  1.00  0.00    -0.032 A 
HETATM   16  C   UNL     1      43.535 -18.096   5.863  1.00  0.00     0.009 A 
HETATM   17  C   UNL     1      44.249 -18.845   4.931  1.00  0.00     0.001 A 
HETATM   18  C   UNL     1      44.090 -18.589   3.577  1.00  0.00     0.002 A 
HETATM   19  C   UNL     1      43.227 -17.573   3.154  1.00  0.00     0.030 A 
BRANCH  15  20
HETATM   20  C   UNL     1      41.917 -16.323   6.544  1.00  0.00     0.036 C 
HETATM   21  C   UNL     1      42.857 -15.837   7.638  1.00  0.00     0.010 C 
ENDBRANCH  15  20
ENDBRANCH  11  14
ENDBRANCH   1  10
BRANCH   2  22
HETATM   22  N   UNL     1      40.248 -12.090   4.930  1.00  0.00    -0.319 N 
HETATM   23  C   UNL     1      40.883 -10.899   5.200  1.00  0.00     0.248 C 
HETATM   24  O   UNL     1      41.757 -10.368   4.514  1.00  0.00    -0.271 OA
HETATM   25  H   UNL     1      40.013 -12.735   5.676  1.00  0.00     0.169 HD
BRANCH  23  26
HETATM   26  C   UNL     1      40.438 -10.243   6.504  1.00  0.00     0.337 C 
BRANCH  26  27
HETATM   27  N   UNL     1      39.691  -8.938   6.252  1.00  0.00    -0.059 N 
HETATM   28  H   UNL     1      40.325  -8.374   5.662  1.00  0.00     0.280 HD
HETATM   29  C   UNL     1      38.427  -9.138   5.412  1.00  0.00     0.261 C 
HETATM   30  C   UNL     1      37.742  -7.783   5.197  1.00  0.00     0.195 C 
HETATM   31  O   UNL     1      37.447  -7.153   6.450  1.00  0.00    -0.388 OA
HETATM   32  C   UNL     1      38.636  -6.890   7.201  1.00  0.00     0.195 C 
HETATM   33  C   UNL     1      39.375  -8.190   7.529  1.00  0.00     0.261 C 
ENDBRANCH  26  27
ENDBRANCH  23  26
ENDBRANCH   2  22
BRANCH   8  34
HETATM   34  C   UNL     1      38.594 -13.172  -2.474  1.00  0.00    -0.047 C 
HETATM   35  C   UNL     1      37.297 -12.335  -2.462  1.00  0.00     0.015 C 
HETATM   36  C   UNL     1      39.696 -12.299  -3.112  1.00  0.00     0.015 C 
HETATM   37  C   UNL     1      38.363 -14.396  -3.382  1.00  0.00     0.015 C 
ENDBRANCH   8  34
TORSDOF 7
ENDMDL
