MODEL 1
REMARK VINA RESULT:      -8.7      0.000      0.000
REMARK  9 active torsions:
REMARK  status: ('A' for Active; 'I' for Inactive)
REMARK    1  A    between atoms: C_2  and  N_3 
REMARK    2  A    between atoms: C_4  and  S_5 
REMARK    3  A    between atoms: S_5  and  C_6 
REMARK    4  A    between atoms: C_6  and  C_7 
REMARK       I    between atoms: C_7  and  N_8 
REMARK    5  A    between atoms: N_8  and  C_9 
REMARK    6  A    between atoms: C_9  and  C_10 
REMARK    7  A    between atoms: C_10  and  C_11 
REMARK    8  A    between atoms: C_14  and  O_15 
REMARK    9  A    between atoms: C_22  and  C_23 
ROOT
HETATM    1  C   UNL     1      43.941 -12.207   5.450  1.00  0.00     0.185 C 
ENDROOT
BRANCH   1   2
HETATM    2  S   UNL     1      42.510 -13.251   5.853  1.00  0.00    -0.081 SA
BRANCH   2   3
HETATM    3  C   UNL     1      43.229 -14.813   5.672  1.00  0.00     0.192 A 
HETATM    4  N   UNL     1      42.910 -15.708   4.682  1.00  0.00    -0.308 N 
HETATM    5  C   UNL     1      43.686 -16.829   4.932  1.00  0.00     0.164 A 
HETATM    6  N   UNL     1      44.418 -16.581   6.008  1.00  0.00    -0.128 NA
HETATM    7  N   UNL     1      44.140 -15.321   6.462  1.00  0.00    -0.122 NA
BRANCH   4   8
HETATM    8  C   UNL     1      41.879 -15.542   3.678  1.00  0.00     0.128 C 
HETATM    9  C   UNL     1      40.549 -16.159   4.087  1.00  0.00     0.027 C 
ENDBRANCH   4   8
BRANCH   5  10
HETATM   10  C   UNL     1      43.688 -18.119   4.229  1.00  0.00     0.012 A 
HETATM   11  C   UNL     1      44.013 -19.277   4.958  1.00  0.00     0.015 A 
HETATM   12  C   UNL     1      44.052 -20.531   4.345  1.00  0.00     0.001 A 
HETATM   13  C   UNL     1      43.769 -20.649   2.987  1.00  0.00     0.000 A 
HETATM   14  C   UNL     1      43.465 -19.512   2.244  1.00  0.00     0.001 A 
HETATM   15  C   UNL     1      43.436 -18.254   2.859  1.00  0.00     0.015 A 
ENDBRANCH   5  10
ENDBRANCH   2   3
ENDBRANCH   1   2
BRANCH   1  16
HETATM   16  C   UNL     1      44.662 -11.826   6.731  1.00  0.00     0.227 C 
HETATM   17  N   UNL     1      45.833 -11.114   6.539  1.00  0.00    -0.360 N 
HETATM   18  H   UNL     1      45.974 -10.680   5.635  1.00  0.00     0.162 HD
HETATM   19  O   UNL     1      44.242 -12.135   7.844  1.00  0.00    -0.273 OA
BRANCH  17  20
HETATM   20  C   UNL     1      46.573 -10.575   7.668  1.00  0.00     0.127 C 
BRANCH  20  21
HETATM   21  C   UNL     1      46.262  -9.095   7.893  1.00  0.00     0.058 C 
BRANCH  21  22
HETATM   22  C   UNL     1      45.237  -8.893   8.980  1.00  0.00    -0.057 A 
HETATM   23  C   UNL     1      45.257  -9.687  10.131  1.00  0.00     0.010 A 
HETATM   24  C   UNL     1      44.291  -9.513  11.125  1.00  0.00     0.037 A 
HETATM   25  C   UNL     1      43.290  -8.549  10.987  1.00  0.00     0.068 A 
HETATM   26  C   UNL     1      43.264  -7.756   9.839  1.00  0.00     0.037 A 
HETATM   27  C   UNL     1      44.232  -7.928   8.842  1.00  0.00     0.010 A 
BRANCH  25  28
HETATM   28  O   UNL     1      42.408  -8.485  12.030  1.00  0.00    -0.356 OA
HETATM   29  C   UNL     1      41.846  -9.715  12.471  1.00  0.00     0.210 C 
ENDBRANCH  25  28
ENDBRANCH  21  22
ENDBRANCH  20  21
ENDBRANCH  17  20
ENDBRANCH   1  16
TORSDOF 9
ENDMDL
MODEL 2
REMARK VINA RESULT:      -8.4      2.758     10.447
REMARK  9 active torsions:
REMARK  status: ('A' for Active; 'I' for Inactive)
REMARK    1  A    between atoms: C_2  and  N_3 
REMARK    2  A    between atoms: C_4  and  S_5 
REMARK    3  A    between atoms: S_5  and  C_6 
REMARK    4  A    between atoms: C_6  and  C_7 
REMARK       I    between atoms: C_7  and  N_8 
REMARK    5  A    between atoms: N_8  and  C_9 
REMARK    6  A    between atoms: C_9  and  C_10 
REMARK    7  A    between atoms: C_10  and  C_11 
REMARK    8  A    between atoms: C_14  and  O_15 
REMARK    9  A    between atoms: C_22  and  C_23 
ROOT
HETATM    1  C   UNL     1      44.442 -11.993   6.939  1.00  0.00     0.185 C 
ENDROOT
BRANCH   1   2
HETATM    2  S   UNL     1      43.465 -10.490   7.238  1.00  0.00    -0.081 SA
BRANCH   2   3
HETATM    3  C   UNL     1      43.576 -10.409   8.961  1.00  0.00     0.192 A 
HETATM    4  N   UNL     1      42.793  -9.609   9.756  1.00  0.00    -0.308 N 
HETATM    5  C   UNL     1      43.237  -9.826  11.050  1.00  0.00     0.164 A 
HETATM    6  N   UNL     1      44.219 -10.715  10.998  1.00  0.00    -0.128 NA
HETATM    7  N   UNL     1      44.422 -11.084   9.696  1.00  0.00    -0.122 NA
BRANCH   4   8
HETATM    8  C   UNL     1      41.810  -8.649   9.299  1.00  0.00     0.128 C 
HETATM    9  C   UNL     1      42.382  -7.248   9.131  1.00  0.00     0.027 C 
ENDBRANCH   4   8
BRANCH   5  10
HETATM   10  C   UNL     1      42.804  -9.168  12.291  1.00  0.00     0.012 A 
HETATM   11  C   UNL     1      43.506  -8.030  12.724  1.00  0.00     0.015 A 
HETATM   12  C   UNL     1      43.158  -7.370  13.905  1.00  0.00     0.001 A 
HETATM   13  C   UNL     1      42.100  -7.841  14.677  1.00  0.00     0.000 A 
HETATM   14  C   UNL     1      41.405  -8.978  14.276  1.00  0.00     0.001 A 
HETATM   15  C   UNL     1      41.763  -9.644  13.097  1.00  0.00     0.015 A 
ENDBRANCH   5  10
ENDBRANCH   2   3
ENDBRANCH   1   2
BRANCH   1  16
HETATM   16  C   UNL     1      43.552 -13.055   6.318  1.00  0.00     0.227 C 
HETATM   17  N   UNL     1      42.937 -13.893   7.233  1.00  0.00    -0.360 N 
HETATM   18  H   UNL     1      42.901 -13.586   8.197  1.00  0.00     0.162 HD
HETATM   19  O   UNL     1      43.399 -13.165   5.104  1.00  0.00    -0.273 OA
BRANCH  17  20
HETATM   20  C   UNL     1      41.963 -14.882   6.803  1.00  0.00     0.127 C 
BRANCH  20  21
HETATM   21  C   UNL     1      42.428 -16.305   7.114  1.00  0.00     0.058 C 
BRANCH  21  22
HETATM   22  C   UNL     1      42.863 -17.041   5.873  1.00  0.00    -0.057 A 
HETATM   23  C   UNL     1      43.601 -18.226   5.973  1.00  0.00     0.010 A 
HETATM   24  C   UNL     1      44.023 -18.893   4.820  1.00  0.00     0.037 A 
HETATM   25  C   UNL     1      43.722 -18.389   3.553  1.00  0.00     0.068 A 
HETATM   26  C   UNL     1      42.989 -17.206   3.449  1.00  0.00     0.037 A 
HETATM   27  C   UNL     1      42.564 -16.537   4.602  1.00  0.00     0.010 A 
BRANCH  25  28
HETATM   28  O   UNL     1      44.197 -19.137   2.512  1.00  0.00    -0.356 OA
HETATM   29  C   UNL     1      43.459 -20.303   2.170  1.00  0.00     0.210 C 
ENDBRANCH  25  28
ENDBRANCH  21  22
ENDBRANCH  20  21
ENDBRANCH  17  20
ENDBRANCH   1  16
TORSDOF 9
ENDMDL
MODEL 3
REMARK VINA RESULT:      -8.4      1.249      1.822
REMARK  9 active torsions:
REMARK  status: ('A' for Active; 'I' for Inactive)
REMARK    1  A    between atoms: C_2  and  N_3 
REMARK    2  A    between atoms: C_4  and  S_5 
REMARK    3  A    between atoms: S_5  and  C_6 
REMARK    4  A    between atoms: C_6  and  C_7 
REMARK       I    between atoms: C_7  and  N_8 
REMARK    5  A    between atoms: N_8  and  C_9 
REMARK    6  A    between atoms: C_9  and  C_10 
REMARK    7  A    between atoms: C_10  and  C_11 
REMARK    8  A    between atoms: C_14  and  O_15 
REMARK    9  A    between atoms: C_22  and  C_23 
ROOT
HETATM    1  C   UNL     1      44.219 -11.662   4.853  1.00  0.00     0.185 C 
ENDROOT
BRANCH   1   2
HETATM    2  S   UNL     1      42.596 -12.473   4.951  1.00  0.00    -0.081 SA
BRANCH   2   3
HETATM    3  C   UNL     1      42.909 -13.872   3.985  1.00  0.00     0.192 A 
HETATM    4  N   UNL     1      42.905 -15.161   4.456  1.00  0.00    -0.308 N 
HETATM    5  C   UNL     1      43.238 -15.953   3.369  1.00  0.00     0.164 A 
HETATM    6  N   UNL     1      43.414 -15.155   2.326  1.00  0.00    -0.128 NA
HETATM    7  N   UNL     1      43.199 -13.859   2.710  1.00  0.00    -0.122 NA
BRANCH   4   8
HETATM    8  C   UNL     1      42.720 -15.568   5.834  1.00  0.00     0.128 C 
HETATM    9  C   UNL     1      41.308 -16.058   6.123  1.00  0.00     0.027 C 
ENDBRANCH   4   8
BRANCH   5  10
HETATM   10  C   UNL     1      43.455 -17.406   3.323  1.00  0.00     0.012 A 
HETATM   11  C   UNL     1      43.017 -18.112   2.190  1.00  0.00     0.015 A 
HETATM   12  C   UNL     1      43.176 -19.496   2.093  1.00  0.00     0.001 A 
HETATM   13  C   UNL     1      43.775 -20.201   3.133  1.00  0.00     0.000 A 
HETATM   14  C   UNL     1      44.197 -19.522   4.273  1.00  0.00     0.001 A 
HETATM   15  C   UNL     1      44.027 -18.136   4.372  1.00  0.00     0.015 A 
ENDBRANCH   5  10
ENDBRANCH   2   3
ENDBRANCH   1   2
BRANCH   1  16
HETATM   16  C   UNL     1      44.827 -11.585   6.242  1.00  0.00     0.227 C 
HETATM   17  N   UNL     1      45.930 -10.756   6.339  1.00  0.00    -0.360 N 
HETATM   18  H   UNL     1      46.078 -10.085   5.596  1.00  0.00     0.162 HD
HETATM   19  O   UNL     1      44.379 -12.216   7.197  1.00  0.00    -0.273 OA
BRANCH  17  20
HETATM   20  C   UNL     1      46.551 -10.485   7.625  1.00  0.00     0.127 C 
BRANCH  20  21
HETATM   21  C   UNL     1      46.070  -9.160   8.216  1.00  0.00     0.058 C 
BRANCH  21  22
HETATM   22  C   UNL     1      44.903  -9.349   9.151  1.00  0.00    -0.057 A 
HETATM   23  C   UNL     1      45.063 -10.046  10.354  1.00  0.00     0.010 A 
HETATM   24  C   UNL     1      43.973 -10.240  11.207  1.00  0.00     0.037 A 
HETATM   25  C   UNL     1      42.709  -9.748  10.873  1.00  0.00     0.068 A 
HETATM   26  C   UNL     1      42.544  -9.056   9.674  1.00  0.00     0.037 A 
HETATM   27  C   UNL     1      43.634  -8.859   8.818  1.00  0.00     0.010 A 
BRANCH  25  28
HETATM   28  O   UNL     1      41.732 -10.011  11.793  1.00  0.00    -0.356 OA
HETATM   29  C   UNL     1      40.400  -9.667  11.431  1.00  0.00     0.210 C 
ENDBRANCH  25  28
ENDBRANCH  21  22
ENDBRANCH  20  21
ENDBRANCH  17  20
ENDBRANCH   1  16
TORSDOF 9
ENDMDL
MODEL 4
REMARK VINA RESULT:      -8.0      1.465      2.203
REMARK  9 active torsions:
REMARK  status: ('A' for Active; 'I' for Inactive)
REMARK    1  A    between atoms: C_2  and  N_3 
REMARK    2  A    between atoms: C_4  and  S_5 
REMARK    3  A    between atoms: S_5  and  C_6 
REMARK    4  A    between atoms: C_6  and  C_7 
REMARK       I    between atoms: C_7  and  N_8 
REMARK    5  A    between atoms: N_8  and  C_9 
REMARK    6  A    between atoms: C_9  and  C_10 
REMARK    7  A    between atoms: C_10  and  C_11 
REMARK    8  A    between atoms: C_14  and  O_15 
REMARK    9  A    between atoms: C_22  and  C_23 
ROOT
HETATM    1  C   UNL     1      43.097 -10.981   5.627  1.00  0.00     0.185 C 
ENDROOT
BRANCH   1   2
HETATM    2  S   UNL     1      41.800 -12.233   5.854  1.00  0.00    -0.081 SA
BRANCH   2   3
HETATM    3  C   UNL     1      42.338 -13.420   4.718  1.00  0.00     0.192 A 
HETATM    4  N   UNL     1      42.331 -14.774   4.943  1.00  0.00    -0.308 N 
HETATM    5  C   UNL     1      42.874 -15.341   3.801  1.00  0.00     0.164 A 
HETATM    6  N   UNL     1      43.167 -14.359   2.961  1.00  0.00    -0.128 NA
HETATM    7  N   UNL     1      42.823 -13.163   3.530  1.00  0.00    -0.122 NA
BRANCH   4   8
HETATM    8  C   UNL     1      41.956 -15.435   6.176  1.00  0.00     0.128 C 
HETATM    9  C   UNL     1      40.517 -15.931   6.168  1.00  0.00     0.027 C 
ENDBRANCH   4   8
BRANCH   5  10
HETATM   10  C   UNL     1      43.176 -16.754   3.533  1.00  0.00     0.012 A 
HETATM   11  C   UNL     1      44.092 -17.413   4.371  1.00  0.00     0.015 A 
HETATM   12  C   UNL     1      44.436 -18.750   4.159  1.00  0.00     0.001 A 
HETATM   13  C   UNL     1      43.871 -19.452   3.099  1.00  0.00     0.000 A 
HETATM   14  C   UNL     1      42.977 -18.812   2.245  1.00  0.00     0.001 A 
HETATM   15  C   UNL     1      42.641 -17.469   2.454  1.00  0.00     0.015 A 
ENDBRANCH   5  10
ENDBRANCH   2   3
ENDBRANCH   1   2
BRANCH   1  16
HETATM   16  C   UNL     1      44.247 -11.271   6.576  1.00  0.00     0.227 C 
HETATM   17  N   UNL     1      44.434 -10.312   7.556  1.00  0.00    -0.360 N 
HETATM   18  H   UNL     1      43.672  -9.671   7.736  1.00  0.00     0.162 HD
HETATM   19  O   UNL     1      44.955 -12.270   6.473  1.00  0.00    -0.273 OA
BRANCH  17  20
HETATM   20  C   UNL     1      45.417 -10.505   8.611  1.00  0.00     0.127 C 
BRANCH  20  21
HETATM   21  C   UNL     1      45.429  -9.333   9.592  1.00  0.00     0.058 C 
BRANCH  21  22
HETATM   22  C   UNL     1      44.346  -9.457  10.633  1.00  0.00    -0.057 A 
HETATM   23  C   UNL     1      43.586  -8.342  11.004  1.00  0.00     0.010 A 
HETATM   24  C   UNL     1      42.599  -8.457  11.986  1.00  0.00     0.037 A 
HETATM   25  C   UNL     1      42.357  -9.679  12.616  1.00  0.00     0.068 A 
HETATM   26  C   UNL     1      43.113 -10.793  12.251  1.00  0.00     0.037 A 
HETATM   27  C   UNL     1      44.102 -10.682  11.266  1.00  0.00     0.010 A 
BRANCH  25  28
HETATM   28  O   UNL     1      41.367  -9.651  13.559  1.00  0.00    -0.356 OA
HETATM   29  C   UNL     1      40.088 -10.130  13.162  1.00  0.00     0.210 C 
ENDBRANCH  25  28
ENDBRANCH  21  22
ENDBRANCH  20  21
ENDBRANCH  17  20
ENDBRANCH   1  16
TORSDOF 9
ENDMDL
MODEL 5
REMARK VINA RESULT:      -8.0      1.020      1.587
REMARK  9 active torsions:
REMARK  status: ('A' for Active; 'I' for Inactive)
REMARK    1  A    between atoms: C_2  and  N_3 
REMARK    2  A    between atoms: C_4  and  S_5 
REMARK    3  A    between atoms: S_5  and  C_6 
REMARK    4  A    between atoms: C_6  and  C_7 
REMARK       I    between atoms: C_7  and  N_8 
REMARK    5  A    between atoms: N_8  and  C_9 
REMARK    6  A    between atoms: C_9  and  C_10 
REMARK    7  A    between atoms: C_10  and  C_11 
REMARK    8  A    between atoms: C_14  and  O_15 
REMARK    9  A    between atoms: C_22  and  C_23 
ROOT
HETATM    1  C   UNL     1      44.361 -12.208   6.163  1.00  0.00     0.185 C 
ENDROOT
BRANCH   1   2
HETATM    2  S   UNL     1      42.791 -13.018   5.739  1.00  0.00    -0.081 SA
BRANCH   2   3
HETATM    3  C   UNL     1      43.323 -14.662   5.660  1.00  0.00     0.192 A 
HETATM    4  N   UNL     1      43.122 -15.495   4.589  1.00  0.00    -0.308 N 
HETATM    5  C   UNL     1      43.669 -16.713   4.960  1.00  0.00     0.164 A 
HETATM    6  N   UNL     1      44.167 -16.578   6.180  1.00  0.00    -0.128 NA
HETATM    7  N   UNL     1      43.959 -15.295   6.611  1.00  0.00    -0.122 NA
BRANCH   4   8
HETATM    8  C   UNL     1      42.373 -15.182   3.389  1.00  0.00     0.128 C 
HETATM    9  C   UNL     1      43.231 -14.547   2.304  1.00  0.00     0.027 C 
ENDBRANCH   4   8
BRANCH   5  10
HETATM   10  C   UNL     1      43.662 -17.985   4.224  1.00  0.00     0.012 A 
HETATM   11  C   UNL     1      44.055 -19.152   4.902  1.00  0.00     0.015 A 
HETATM   12  C   UNL     1      44.089 -20.389   4.255  1.00  0.00     0.001 A 
HETATM   13  C   UNL     1      43.732 -20.480   2.913  1.00  0.00     0.000 A 
HETATM   14  C   UNL     1      43.359 -19.333   2.218  1.00  0.00     0.001 A 
HETATM   15  C   UNL     1      43.336 -18.092   2.867  1.00  0.00     0.015 A 
ENDBRANCH   5  10
ENDBRANCH   2   3
ENDBRANCH   1   2
BRANCH   1  16
HETATM   16  C   UNL     1      44.093 -11.071   7.134  1.00  0.00     0.227 C 
HETATM   17  N   UNL     1      45.232 -10.497   7.671  1.00  0.00    -0.360 N 
HETATM   18  H   UNL     1      46.111 -10.672   7.200  1.00  0.00     0.162 HD
HETATM   19  O   UNL     1      42.957 -10.701   7.424  1.00  0.00    -0.273 OA
BRANCH  17  20
HETATM   20  C   UNL     1      45.146  -9.322   8.523  1.00  0.00     0.127 C 
BRANCH  20  21
HETATM   21  C   UNL     1      45.474  -9.654   9.978  1.00  0.00     0.058 C 
BRANCH  21  22
HETATM   22  C   UNL     1      44.262  -9.548  10.868  1.00  0.00    -0.057 A 
HETATM   23  C   UNL     1      43.846 -10.643  11.633  1.00  0.00     0.010 A 
HETATM   24  C   UNL     1      42.708 -10.548  12.438  1.00  0.00     0.037 A 
HETATM   25  C   UNL     1      41.967  -9.365  12.491  1.00  0.00     0.068 A 
HETATM   26  C   UNL     1      42.378  -8.272  11.729  1.00  0.00     0.037 A 
HETATM   27  C   UNL     1      43.518  -8.364  10.922  1.00  0.00     0.010 A 
BRANCH  25  28
HETATM   28  O   UNL     1      40.877  -9.409  13.316  1.00  0.00    -0.356 OA
HETATM   29  C   UNL     1      39.878 -10.373  13.008  1.00  0.00     0.210 C 
ENDBRANCH  25  28
ENDBRANCH  21  22
ENDBRANCH  20  21
ENDBRANCH  17  20
ENDBRANCH   1  16
TORSDOF 9
ENDMDL
MODEL 6
REMARK VINA RESULT:      -7.9      2.728     10.472
REMARK  9 active torsions:
REMARK  status: ('A' for Active; 'I' for Inactive)
REMARK    1  A    between atoms: C_2  and  N_3 
REMARK    2  A    between atoms: C_4  and  S_5 
REMARK    3  A    between atoms: S_5  and  C_6 
REMARK    4  A    between atoms: C_6  and  C_7 
REMARK       I    between atoms: C_7  and  N_8 
REMARK    5  A    between atoms: N_8  and  C_9 
REMARK    6  A    between atoms: C_9  and  C_10 
REMARK    7  A    between atoms: C_10  and  C_11 
REMARK    8  A    between atoms: C_14  and  O_15 
REMARK    9  A    between atoms: C_22  and  C_23 
ROOT
HETATM    1  C   UNL     1      42.414 -11.467   6.651  1.00  0.00     0.185 C 
ENDROOT
BRANCH   1   2
HETATM    2  S   UNL     1      43.618 -10.168   7.054  1.00  0.00    -0.081 SA
BRANCH   2   3
HETATM    3  C   UNL     1      43.586 -10.266   8.780  1.00  0.00     0.192 A 
HETATM    4  N   UNL     1      42.927  -9.383   9.599  1.00  0.00    -0.308 N 
HETATM    5  C   UNL     1      43.193  -9.808  10.891  1.00  0.00     0.164 A 
HETATM    6  N   UNL     1      43.958 -10.887  10.812  1.00  0.00    -0.128 NA
HETATM    7  N   UNL     1      44.194 -11.177   9.496  1.00  0.00    -0.122 NA
BRANCH   4   8
HETATM    8  C   UNL     1      42.222  -8.190   9.180  1.00  0.00     0.128 C 
HETATM    9  C   UNL     1      43.122  -6.963   9.112  1.00  0.00     0.027 C 
ENDBRANCH   4   8
BRANCH   5  10
HETATM   10  C   UNL     1      42.803  -9.182  12.162  1.00  0.00     0.012 A 
HETATM   11  C   UNL     1      43.532  -8.067  12.609  1.00  0.00     0.015 A 
HETATM   12  C   UNL     1      43.225  -7.438  13.818  1.00  0.00     0.001 A 
HETATM   13  C   UNL     1      42.181  -7.917  14.604  1.00  0.00     0.000 A 
HETATM   14  C   UNL     1      41.459  -9.032  14.187  1.00  0.00     0.001 A 
HETATM   15  C   UNL     1      41.776  -9.667  12.980  1.00  0.00     0.015 A 
ENDBRANCH   5  10
ENDBRANCH   2   3
ENDBRANCH   1   2
BRANCH   1  16
HETATM   16  C   UNL     1      43.113 -12.581   5.892  1.00  0.00     0.227 C 
HETATM   17  N   UNL     1      42.580 -12.842   4.641  1.00  0.00    -0.360 N 
HETATM   18  H   UNL     1      41.984 -12.136   4.230  1.00  0.00     0.162 HD
HETATM   19  O   UNL     1      44.066 -13.203   6.356  1.00  0.00    -0.273 OA
BRANCH  17  20
HETATM   20  C   UNL     1      43.212 -13.797   3.745  1.00  0.00     0.127 C 
BRANCH  20  21
HETATM   21  C   UNL     1      42.212 -14.826   3.220  1.00  0.00     0.058 C 
BRANCH  21  22
HETATM   22  C   UNL     1      42.733 -16.235   3.345  1.00  0.00    -0.057 A 
HETATM   23  C   UNL     1      43.356 -16.659   4.523  1.00  0.00     0.010 A 
HETATM   24  C   UNL     1      43.859 -17.959   4.626  1.00  0.00     0.037 A 
HETATM   25  C   UNL     1      43.753 -18.852   3.559  1.00  0.00     0.068 A 
HETATM   26  C   UNL     1      43.134 -18.433   2.381  1.00  0.00     0.037 A 
HETATM   27  C   UNL     1      42.629 -17.132   2.275  1.00  0.00     0.010 A 
BRANCH  25  28
HETATM   28  O   UNL     1      44.289 -20.089   3.792  1.00  0.00    -0.356 OA
HETATM   29  C   UNL     1      44.245 -20.565   5.131  1.00  0.00     0.210 C 
ENDBRANCH  25  28
ENDBRANCH  21  22
ENDBRANCH  20  21
ENDBRANCH  17  20
ENDBRANCH   1  16
TORSDOF 9
ENDMDL
MODEL 7
REMARK VINA RESULT:      -7.8      4.731      8.168
REMARK  9 active torsions:
REMARK  status: ('A' for Active; 'I' for Inactive)
REMARK    1  A    between atoms: C_2  and  N_3 
REMARK    2  A    between atoms: C_4  and  S_5 
REMARK    3  A    between atoms: S_5  and  C_6 
REMARK    4  A    between atoms: C_6  and  C_7 
REMARK       I    between atoms: C_7  and  N_8 
REMARK    5  A    between atoms: N_8  and  C_9 
REMARK    6  A    between atoms: C_9  and  C_10 
REMARK    7  A    between atoms: C_10  and  C_11 
REMARK    8  A    between atoms: C_14  and  O_15 
REMARK    9  A    between atoms: C_22  and  C_23 
ROOT
HETATM    1  C   UNL     1      43.694 -11.746   4.195  1.00  0.00     0.185 C 
ENDROOT
BRANCH   1   2
HETATM    2  S   UNL     1      42.901 -12.965   5.283  1.00  0.00    -0.081 SA
BRANCH   2   3
HETATM    3  C   UNL     1      42.984 -14.361   4.266  1.00  0.00     0.192 A 
HETATM    4  N   UNL     1      43.145 -15.647   4.718  1.00  0.00    -0.308 N 
HETATM    5  C   UNL     1      43.196 -16.436   3.580  1.00  0.00     0.164 A 
HETATM    6  N   UNL     1      43.060 -15.639   2.529  1.00  0.00    -0.128 NA
HETATM    7  N   UNL     1      42.918 -14.348   2.959  1.00  0.00    -0.122 NA
BRANCH   4   8
HETATM    8  C   UNL     1      43.352 -16.050   6.093  1.00  0.00     0.128 C 
HETATM    9  C   UNL     1      42.048 -16.266   6.850  1.00  0.00     0.027 C 
ENDBRANCH   4   8
BRANCH   5  10
HETATM   10  C   UNL     1      43.436 -17.881   3.475  1.00  0.00     0.012 A 
HETATM   11  C   UNL     1      43.037 -18.542   2.301  1.00  0.00     0.015 A 
HETATM   12  C   UNL     1      43.219 -19.918   2.146  1.00  0.00     0.001 A 
HETATM   13  C   UNL     1      43.803 -20.660   3.168  1.00  0.00     0.000 A 
HETATM   14  C   UNL     1      44.188 -20.027   4.347  1.00  0.00     0.001 A 
HETATM   15  C   UNL     1      43.995 -18.650   4.503  1.00  0.00     0.015 A 
ENDBRANCH   5  10
ENDBRANCH   2   3
ENDBRANCH   1   2
BRANCH   1  16
HETATM   16  C   UNL     1      42.627 -10.877   3.552  1.00  0.00     0.227 C 
HETATM   17  N   UNL     1      42.193 -11.323   2.316  1.00  0.00    -0.360 N 
HETATM   18  H   UNL     1      42.397 -12.283   2.067  1.00  0.00     0.162 HD
HETATM   19  O   UNL     1      42.193  -9.857   4.085  1.00  0.00    -0.273 OA
BRANCH  17  20
HETATM   20  C   UNL     1      41.092 -10.668   1.629  1.00  0.00     0.127 C 
BRANCH  20  21
HETATM   21  C   UNL     1      41.475 -10.265   0.205  1.00  0.00     0.058 C 
BRANCH  21  22
HETATM   22  C   UNL     1      40.968 -11.252  -0.816  1.00  0.00    -0.057 A 
HETATM   23  C   UNL     1      40.061 -12.251  -0.448  1.00  0.00     0.010 A 
HETATM   24  C   UNL     1      39.612 -13.178  -1.392  1.00  0.00     0.037 A 
HETATM   25  C   UNL     1      40.062 -13.127  -2.713  1.00  0.00     0.068 A 
HETATM   26  C   UNL     1      40.969 -12.134  -3.084  1.00  0.00     0.037 A 
HETATM   27  C   UNL     1      41.419 -11.203  -2.140  1.00  0.00     0.010 A 
BRANCH  25  28
HETATM   28  O   UNL     1      39.547 -14.094  -3.531  1.00  0.00    -0.356 OA
HETATM   29  C   UNL     1      38.290 -14.645  -3.160  1.00  0.00     0.210 C 
ENDBRANCH  25  28
ENDBRANCH  21  22
ENDBRANCH  20  21
ENDBRANCH  17  20
ENDBRANCH   1  16
TORSDOF 9
ENDMDL
MODEL 8
REMARK VINA RESULT:      -7.8      2.733     10.147
REMARK  9 active torsions:
REMARK  status: ('A' for Active; 'I' for Inactive)
REMARK    1  A    between atoms: C_2  and  N_3 
REMARK    2  A    between atoms: C_4  and  S_5 
REMARK    3  A    between atoms: S_5  and  C_6 
REMARK    4  A    between atoms: C_6  and  C_7 
REMARK       I    between atoms: C_7  and  N_8 
REMARK    5  A    between atoms: N_8  and  C_9 
REMARK    6  A    between atoms: C_9  and  C_10 
REMARK    7  A    between atoms: C_10  and  C_11 
REMARK    8  A    between atoms: C_14  and  O_15 
REMARK    9  A    between atoms: C_22  and  C_23 
ROOT
HETATM    1  C   UNL     1      44.498 -12.314   6.746  1.00  0.00     0.185 C 
ENDROOT
BRANCH   1   2
HETATM    2  S   UNL     1      43.740 -10.680   6.986  1.00  0.00    -0.081 SA
BRANCH   2   3
HETATM    3  C   UNL     1      43.958 -10.505   8.693  1.00  0.00     0.192 A 
HETATM    4  N   UNL     1      43.105  -9.820   9.521  1.00  0.00    -0.308 N 
HETATM    5  C   UNL     1      43.672  -9.899  10.783  1.00  0.00     0.164 A 
HETATM    6  N   UNL     1      44.789 -10.605  10.681  1.00  0.00    -0.128 NA
HETATM    7  N   UNL     1      44.960 -10.990   9.379  1.00  0.00    -0.122 NA
BRANCH   4   8
HETATM    8  C   UNL     1      41.937  -9.066   9.114  1.00  0.00     0.128 C 
HETATM    9  C   UNL     1      42.256  -7.618   8.771  1.00  0.00     0.027 C 
ENDBRANCH   4   8
BRANCH   5  10
HETATM   10  C   UNL     1      43.221  -9.273  12.033  1.00  0.00     0.012 A 
HETATM   11  C   UNL     1      42.315  -9.978  12.845  1.00  0.00     0.015 A 
HETATM   12  C   UNL     1      41.831  -9.431  14.036  1.00  0.00     0.001 A 
HETATM   13  C   UNL     1      42.245  -8.165  14.436  1.00  0.00     0.000 A 
HETATM   14  C   UNL     1      43.127  -7.442  13.636  1.00  0.00     0.001 A 
HETATM   15  C   UNL     1      43.602  -7.989  12.438  1.00  0.00     0.015 A 
ENDBRANCH   5  10
ENDBRANCH   2   3
ENDBRANCH   1   2
BRANCH   1  16
HETATM   16  C   UNL     1      43.408 -13.342   6.496  1.00  0.00     0.227 C 
HETATM   17  N   UNL     1      43.828 -14.656   6.597  1.00  0.00    -0.360 N 
HETATM   18  H   UNL     1      44.704 -14.833   7.073  1.00  0.00     0.162 HD
HETATM   19  O   UNL     1      42.253 -13.028   6.218  1.00  0.00    -0.273 OA
BRANCH  17  20
HETATM   20  C   UNL     1      42.879 -15.753   6.502  1.00  0.00     0.127 C 
BRANCH  20  21
HETATM   21  C   UNL     1      43.216 -16.694   5.346  1.00  0.00     0.058 C 
BRANCH  21  22
HETATM   22  C   UNL     1      42.520 -16.293   4.071  1.00  0.00    -0.057 A 
HETATM   23  C   UNL     1      41.133 -16.106   4.047  1.00  0.00     0.010 A 
HETATM   24  C   UNL     1      40.489 -15.758   2.857  1.00  0.00     0.037 A 
HETATM   25  C   UNL     1      41.213 -15.596   1.674  1.00  0.00     0.068 A 
HETATM   26  C   UNL     1      42.595 -15.784   1.692  1.00  0.00     0.037 A 
HETATM   27  C   UNL     1      43.243 -16.132   2.883  1.00  0.00     0.010 A 
BRANCH  25  28
HETATM   28  O   UNL     1      40.460 -15.258   0.584  1.00  0.00    -0.356 OA
HETATM   29  C   UNL     1      40.471 -13.891   0.194  1.00  0.00     0.210 C 
ENDBRANCH  25  28
ENDBRANCH  21  22
ENDBRANCH  20  21
ENDBRANCH  17  20
ENDBRANCH   1  16
TORSDOF 9
ENDMDL
MODEL 9
REMARK VINA RESULT:      -7.4      2.734      4.107
REMARK  9 active torsions:
REMARK  status: ('A' for Active; 'I' for Inactive)
REMARK    1  A    between atoms: C_2  and  N_3 
REMARK    2  A    between atoms: C_4  and  S_5 
REMARK    3  A    between atoms: S_5  and  C_6 
REMARK    4  A    between atoms: C_6  and  C_7 
REMARK       I    between atoms: C_7  and  N_8 
REMARK    5  A    between atoms: N_8  and  C_9 
REMARK    6  A    between atoms: C_9  and  C_10 
REMARK    7  A    between atoms: C_10  and  C_11 
REMARK    8  A    between atoms: C_14  and  O_15 
REMARK    9  A    between atoms: C_22  and  C_23 
ROOT
HETATM    1  C   UNL     1      44.412 -10.584   7.464  1.00  0.00     0.185 C 
ENDROOT
BRANCH   1   2
HETATM    2  S   UNL     1      42.743 -10.584   6.745  1.00  0.00    -0.081 SA
BRANCH   2   3
HETATM    3  C   UNL     1      43.035 -11.536   5.332  1.00  0.00     0.192 A 
HETATM    4  N   UNL     1      42.695 -12.859   5.199  1.00  0.00    -0.308 N 
HETATM    5  C   UNL     1      43.140 -13.230   3.940  1.00  0.00     0.164 A 
HETATM    6  N   UNL     1      43.697 -12.168   3.378  1.00  0.00    -0.128 NA
HETATM    7  N   UNL     1      43.622 -11.110   4.243  1.00  0.00    -0.122 NA
BRANCH   4   8
HETATM    8  C   UNL     1      42.117 -13.701   6.225  1.00  0.00     0.128 C 
HETATM    9  C   UNL     1      40.605 -13.833   6.102  1.00  0.00     0.027 C 
ENDBRANCH   4   8
BRANCH   5  10
HETATM   10  C   UNL     1      43.108 -14.558   3.310  1.00  0.00     0.012 A 
HETATM   11  C   UNL     1      43.217 -15.691   4.133  1.00  0.00     0.015 A 
HETATM   12  C   UNL     1      43.213 -16.981   3.596  1.00  0.00     0.001 A 
HETATM   13  C   UNL     1      43.103 -17.159   2.221  1.00  0.00     0.000 A 
HETATM   14  C   UNL     1      43.014 -16.048   1.386  1.00  0.00     0.001 A 
HETATM   15  C   UNL     1      43.028 -14.756   1.926  1.00  0.00     0.015 A 
ENDBRANCH   5  10
ENDBRANCH   2   3
ENDBRANCH   1   2
BRANCH   1  16
HETATM   16  C   UNL     1      44.306 -10.541   8.979  1.00  0.00     0.227 C 
HETATM   17  N   UNL     1      43.129  -9.991   9.455  1.00  0.00    -0.360 N 
HETATM   18  H   UNL     1      42.352  -9.918   8.810  1.00  0.00     0.162 HD
HETATM   19  O   UNL     1      45.199 -10.953   9.717  1.00  0.00    -0.273 OA
BRANCH  17  20
HETATM   20  C   UNL     1      42.828  -9.989  10.877  1.00  0.00     0.127 C 
BRANCH  20  21
HETATM   21  C   UNL     1      43.672  -8.962  11.632  1.00  0.00     0.058 C 
BRANCH  21  22
HETATM   22  C   UNL     1      42.921  -8.355  12.789  1.00  0.00    -0.057 A 
HETATM   23  C   UNL     1      42.857  -6.965  12.943  1.00  0.00     0.010 A 
HETATM   24  C   UNL     1      42.181  -6.407  14.031  1.00  0.00     0.037 A 
HETATM   25  C   UNL     1      41.561  -7.222  14.981  1.00  0.00     0.068 A 
HETATM   26  C   UNL     1      41.624  -8.607  14.832  1.00  0.00     0.037 A 
HETATM   27  C   UNL     1      42.301  -9.169  13.743  1.00  0.00     0.010 A 
BRANCH  25  28
HETATM   28  O   UNL     1      40.938  -6.547  15.994  1.00  0.00    -0.356 OA
HETATM   29  C   UNL     1      41.771  -5.997  17.007  1.00  0.00     0.210 C 
ENDBRANCH  25  28
ENDBRANCH  21  22
ENDBRANCH  20  21
ENDBRANCH  17  20
ENDBRANCH   1  16
TORSDOF 9
ENDMDL
MODEL 10
REMARK VINA RESULT:      -7.3      2.024      2.637
REMARK  9 active torsions:
REMARK  status: ('A' for Active; 'I' for Inactive)
REMARK    1  A    between atoms: C_2  and  N_3 
REMARK    2  A    between atoms: C_4  and  S_5 
REMARK    3  A    between atoms: S_5  and  C_6 
REMARK    4  A    between atoms: C_6  and  C_7 
REMARK       I    between atoms: C_7  and  N_8 
REMARK    5  A    between atoms: N_8  and  C_9 
REMARK    6  A    between atoms: C_9  and  C_10 
REMARK    7  A    between atoms: C_10  and  C_11 
REMARK    8  A    between atoms: C_14  and  O_15 
REMARK    9  A    between atoms: C_22  and  C_23 
ROOT
HETATM    1  C   UNL     1      40.436 -11.435   6.388  1.00  0.00     0.185 C 
ENDROOT
BRANCH   1   2
HETATM    2  S   UNL     1      39.901 -12.215   4.837  1.00  0.00    -0.081 SA
BRANCH   2   3
HETATM    3  C   UNL     1      40.584 -13.789   5.052  1.00  0.00     0.192 A 
HETATM    4  N   UNL     1      41.506 -14.360   4.211  1.00  0.00    -0.308 N 
HETATM    5  C   UNL     1      41.748 -15.622   4.730  1.00  0.00     0.164 A 
HETATM    6  N   UNL     1      41.007 -15.760   5.820  1.00  0.00    -0.128 NA
HETATM    7  N   UNL     1      40.289 -14.613   6.024  1.00  0.00    -0.122 NA
BRANCH   4   8
HETATM    8  C   UNL     1      42.003 -13.793   2.975  1.00  0.00     0.128 C 
HETATM    9  C   UNL     1      43.245 -12.934   3.174  1.00  0.00     0.027 C 
ENDBRANCH   4   8
BRANCH   5  10
HETATM   10  C   UNL     1      42.592 -16.693   4.183  1.00  0.00     0.012 A 
HETATM   11  C   UNL     1      42.308 -17.175   2.893  1.00  0.00     0.015 A 
HETATM   12  C   UNL     1      43.060 -18.204   2.322  1.00  0.00     0.001 A 
HETATM   13  C   UNL     1      44.111 -18.774   3.036  1.00  0.00     0.000 A 
HETATM   14  C   UNL     1      44.395 -18.324   4.322  1.00  0.00     0.001 A 
HETATM   15  C   UNL     1      43.633 -17.299   4.896  1.00  0.00     0.015 A 
ENDBRANCH   5  10
ENDBRANCH   2   3
ENDBRANCH   1   2
BRANCH   1  16
HETATM   16  C   UNL     1      41.805 -10.808   6.189  1.00  0.00     0.227 C 
HETATM   17  N   UNL     1      42.821 -11.410   6.911  1.00  0.00    -0.360 N 
HETATM   18  H   UNL     1      42.648 -12.337   7.278  1.00  0.00     0.162 HD
HETATM   19  O   UNL     1      41.989  -9.840   5.454  1.00  0.00    -0.273 OA
BRANCH  17  20
HETATM   20  C   UNL     1      44.205 -11.001   6.736  1.00  0.00     0.127 C 
BRANCH  20  21
HETATM   21  C   UNL     1      44.958 -10.972   8.066  1.00  0.00     0.058 C 
BRANCH  21  22
HETATM   22  C   UNL     1      44.395  -9.942   9.011  1.00  0.00    -0.057 A 
HETATM   23  C   UNL     1      44.060 -10.292  10.324  1.00  0.00     0.010 A 
HETATM   24  C   UNL     1      43.516  -9.340  11.190  1.00  0.00     0.037 A 
HETATM   25  C   UNL     1      43.294  -8.029  10.762  1.00  0.00     0.068 A 
HETATM   26  C   UNL     1      43.625  -7.677   9.453  1.00  0.00     0.037 A 
HETATM   27  C   UNL     1      44.171  -8.628   8.584  1.00  0.00     0.010 A 
BRANCH  25  28
HETATM   28  O   UNL     1      42.755  -7.202  11.708  1.00  0.00    -0.356 OA
HETATM   29  C   UNL     1      41.406  -6.797  11.513  1.00  0.00     0.210 C 
ENDBRANCH  25  28
ENDBRANCH  21  22
ENDBRANCH  20  21
ENDBRANCH  17  20
ENDBRANCH   1  16
TORSDOF 9
ENDMDL
