MODEL 1
REMARK VINA RESULT:      -8.6      0.000      0.000
REMARK  9 active torsions:
REMARK  status: ('A' for Active; 'I' for Inactive)
REMARK    1  A    between atoms: C_4  and  C_5 
REMARK    2  A    between atoms: C_7  and  C_8 
REMARK    3  A    between atoms: C_8  and  C_9 
REMARK       I    between atoms: C_9  and  N_10 
REMARK    4  A    between atoms: N_10  and  C_11 
REMARK    5  A    between atoms: C_11  and  C_12 
REMARK    6  A    between atoms: C_12  and  N_13 
REMARK    7  A    between atoms: C_27  and  C_28 
REMARK    8  A    between atoms: C_28  and  O_29 
REMARK    9  A    between atoms: O_29  and  C_30 
ROOT
HETATM    1  C   UNL     1      43.027 -12.130   5.452  1.00  0.00     0.166 C 
HETATM    2  N   UNL     1      42.004 -11.717   4.472  1.00  0.00    -0.319 N 
HETATM    3  C   UNL     1      41.776 -12.008   3.236  1.00  0.00     0.011 C 
HETATM    4  C   UNL     1      40.912 -10.798   5.058  1.00  0.00     0.170 C 
HETATM    5  S   UNL     1      39.576 -10.620   3.971  1.00  0.00    -0.086 SA
HETATM    6  C   UNL     1      40.522 -11.409   2.639  1.00  0.00     0.135 C 
HETATM    7  N   UNL     1      40.986 -10.191   6.188  1.00  0.00    -0.229 NA
HETATM    8  C   UNL     1      42.171 -10.260   6.890  1.00  0.00     0.048 C 
HETATM    9  C   UNL     1      42.279  -9.212   7.976  1.00  0.00     0.071 C 
HETATM   10  C   UNL     1      43.161 -11.124   6.567  1.00  0.00     0.069 C 
ENDROOT
BRANCH   3  11
HETATM   11  C   UNL     1      42.721 -12.834   2.414  1.00  0.00     0.156 C 
BRANCH  11  12
HETATM   12  C   UNL     1      42.101 -14.143   1.957  1.00  0.00     0.223 C 
HETATM   13  N   UNL     1      42.279 -15.199   2.810  1.00  0.00    -0.359 N 
HETATM   14  H   UNL     1      42.928 -15.070   3.584  1.00  0.00     0.162 HD
HETATM   15  O   UNL     1      41.467 -14.218   0.908  1.00  0.00    -0.273 OA
BRANCH  13  16
HETATM   16  C   UNL     1      41.963 -16.606   2.542  1.00  0.00     0.150 C 
BRANCH  16  17
HETATM   17  C   UNL     1      43.117 -17.593   2.257  1.00  0.00     0.254 C 
BRANCH  17  18
HETATM   18  N   UNL     1      43.205 -18.746   3.244  1.00  0.00    -0.070 N 
HETATM   19  H   UNL     1      42.223 -18.969   3.503  1.00  0.00     0.279 HD
HETATM   20  C   UNL     1      43.832 -19.999   2.674  1.00  0.00     0.235 C 
HETATM   21  C   UNL     1      43.799 -21.117   3.707  1.00  0.00     0.028 C 
HETATM   22  C   UNL     1      44.488 -20.707   5.000  1.00  0.00     0.003 C 
HETATM   23  C   UNL     1      43.886 -19.419   5.545  1.00  0.00     0.028 C 
HETATM   24  C   UNL     1      43.912 -18.304   4.512  1.00  0.00     0.235 C 
ENDBRANCH  17  18
ENDBRANCH  16  17
ENDBRANCH  13  16
ENDBRANCH  11  12
ENDBRANCH   3  11
BRANCH   1  25
HETATM   25  C   UNL     1      42.753 -13.541   5.980  1.00  0.00    -0.030 A 
HETATM   26  C   UNL     1      41.457 -14.094   6.067  1.00  0.00     0.016 A 
HETATM   27  C   UNL     1      41.252 -15.397   6.547  1.00  0.00    -0.061 A 
HETATM   28  C   UNL     1      39.869 -15.980   6.634  1.00  0.00     0.048 C 
HETATM   29  C   UNL     1      42.344 -16.132   7.014  1.00  0.00     0.007 A 
HETATM   30  C   UNL     1      43.626 -15.590   6.970  1.00  0.00     0.001 A 
HETATM   31  C   UNL     1      43.832 -14.311   6.451  1.00  0.00     0.009 A 
ENDBRANCH   1  25
BRANCH  10  32
HETATM   32  C   UNL     1      44.531 -11.094   7.142  1.00  0.00     0.294 C 
HETATM   33  O   UNL     1      45.501 -11.064   6.400  1.00  0.00    -0.259 OA
BRANCH  32  34
HETATM   34  O   UNL     1      44.529 -11.120   8.484  1.00  0.00    -0.313 OA
BRANCH  34  35
HETATM   35  C   UNL     1      45.448 -10.280   9.225  1.00  0.00     0.124 C 
HETATM   36  C   UNL     1      45.796  -9.008   8.463  1.00  0.00     0.040 C 
HETATM   37  C   UNL     1      44.957 -10.010  10.646  1.00  0.00     0.040 C 
ENDBRANCH  34  35
ENDBRANCH  32  34
ENDBRANCH  10  32
TORSDOF 9
ENDMDL
MODEL 2
REMARK VINA RESULT:      -8.4      3.003      6.169
REMARK  9 active torsions:
REMARK  status: ('A' for Active; 'I' for Inactive)
REMARK    1  A    between atoms: C_4  and  C_5 
REMARK    2  A    between atoms: C_7  and  C_8 
REMARK    3  A    between atoms: C_8  and  C_9 
REMARK       I    between atoms: C_9  and  N_10 
REMARK    4  A    between atoms: N_10  and  C_11 
REMARK    5  A    between atoms: C_11  and  C_12 
REMARK    6  A    between atoms: C_12  and  N_13 
REMARK    7  A    between atoms: C_27  and  C_28 
REMARK    8  A    between atoms: C_28  and  O_29 
REMARK    9  A    between atoms: O_29  and  C_30 
ROOT
HETATM    1  C   UNL     1      42.325  -9.516   9.614  1.00  0.00     0.166 C 
HETATM    2  N   UNL     1      41.541  -8.618   8.746  1.00  0.00    -0.319 N 
HETATM    3  C   UNL     1      40.308  -8.587   8.365  1.00  0.00     0.011 C 
HETATM    4  C   UNL     1      42.331  -7.394   8.234  1.00  0.00     0.170 C 
HETATM    5  S   UNL     1      41.289  -6.218   7.509  1.00  0.00    -0.086 SA
HETATM    6  C   UNL     1      39.907  -7.394   7.527  1.00  0.00     0.135 C 
HETATM    7  N   UNL     1      43.608  -7.267   8.286  1.00  0.00    -0.229 NA
HETATM    8  C   UNL     1      44.355  -8.342   8.720  1.00  0.00     0.048 C 
HETATM    9  C   UNL     1      45.822  -8.225   8.370  1.00  0.00     0.071 C 
HETATM   10  C   UNL     1      43.800  -9.423   9.315  1.00  0.00     0.069 C 
ENDROOT
BRANCH   3  11
HETATM   11  C   UNL     1      39.341  -9.692   8.674  1.00  0.00     0.156 C 
BRANCH  11  12
HETATM   12  C   UNL     1      39.172 -10.655   7.512  1.00  0.00     0.223 C 
HETATM   13  N   UNL     1      40.324 -11.262   7.088  1.00  0.00    -0.359 N 
HETATM   14  H   UNL     1      41.203 -10.913   7.467  1.00  0.00     0.162 HD
HETATM   15  O   UNL     1      38.068 -10.879   7.022  1.00  0.00    -0.273 OA
BRANCH  13  16
HETATM   16  C   UNL     1      40.492 -12.079   5.881  1.00  0.00     0.150 C 
BRANCH  16  17
HETATM   17  C   UNL     1      40.101 -13.573   5.927  1.00  0.00     0.254 C 
BRANCH  17  18
HETATM   18  N   UNL     1      41.285 -14.525   5.860  1.00  0.00    -0.070 N 
HETATM   19  H   UNL     1      42.089 -14.001   6.260  1.00  0.00     0.279 HD
HETATM   20  C   UNL     1      41.105 -15.790   6.672  1.00  0.00     0.235 C 
HETATM   21  C   UNL     1      42.369 -16.635   6.610  1.00  0.00     0.028 C 
HETATM   22  C   UNL     1      42.756 -16.963   5.175  1.00  0.00     0.003 C 
HETATM   23  C   UNL     1      42.890 -15.690   4.350  1.00  0.00     0.028 C 
HETATM   24  C   UNL     1      41.629 -14.841   4.417  1.00  0.00     0.235 C 
ENDBRANCH  17  18
ENDBRANCH  16  17
ENDBRANCH  13  16
ENDBRANCH  11  12
ENDBRANCH   3  11
BRANCH   1  25
HETATM   25  C   UNL     1      42.020  -9.263  11.094  1.00  0.00    -0.030 A 
HETATM   26  C   UNL     1      42.760  -8.363  11.891  1.00  0.00     0.016 A 
HETATM   27  C   UNL     1      42.439  -8.154  13.242  1.00  0.00    -0.061 A 
HETATM   28  C   UNL     1      43.229  -7.192  14.084  1.00  0.00     0.048 C 
HETATM   29  C   UNL     1      41.414  -8.903  13.823  1.00  0.00     0.007 A 
HETATM   30  C   UNL     1      40.696  -9.822  13.062  1.00  0.00     0.001 A 
HETATM   31  C   UNL     1      40.989  -9.996  11.708  1.00  0.00     0.009 A 
ENDBRANCH   1  25
BRANCH  10  32
HETATM   32  C   UNL     1      44.517 -10.692   9.603  1.00  0.00     0.294 C 
HETATM   33  O   UNL     1      45.334 -10.737  10.511  1.00  0.00    -0.259 OA
BRANCH  32  34
HETATM   34  O   UNL     1      44.165 -11.685   8.770  1.00  0.00    -0.313 OA
BRANCH  34  35
HETATM   35  C   UNL     1      44.500 -11.601   7.362  1.00  0.00     0.124 C 
HETATM   36  C   UNL     1      45.966 -11.246   7.147  1.00  0.00     0.040 C 
HETATM   37  C   UNL     1      44.067 -12.849   6.596  1.00  0.00     0.040 C 
ENDBRANCH  34  35
ENDBRANCH  32  34
ENDBRANCH  10  32
TORSDOF 9
ENDMDL
MODEL 3
REMARK VINA RESULT:      -8.3      2.494      7.607
REMARK  9 active torsions:
REMARK  status: ('A' for Active; 'I' for Inactive)
REMARK    1  A    between atoms: C_4  and  C_5 
REMARK    2  A    between atoms: C_7  and  C_8 
REMARK    3  A    between atoms: C_8  and  C_9 
REMARK       I    between atoms: C_9  and  N_10 
REMARK    4  A    between atoms: N_10  and  C_11 
REMARK    5  A    between atoms: C_11  and  C_12 
REMARK    6  A    between atoms: C_12  and  N_13 
REMARK    7  A    between atoms: C_27  and  C_28 
REMARK    8  A    between atoms: C_28  and  O_29 
REMARK    9  A    between atoms: O_29  and  C_30 
ROOT
HETATM    1  C   UNL     1      41.745 -13.543   4.237  1.00  0.00     0.166 C 
HETATM    2  N   UNL     1      41.185 -12.400   4.983  1.00  0.00    -0.319 N 
HETATM    3  C   UNL     1      41.409 -11.130   4.981  1.00  0.00     0.011 C 
HETATM    4  C   UNL     1      40.017 -12.777   5.921  1.00  0.00     0.170 C 
HETATM    5  S   UNL     1      39.192 -11.373   6.507  1.00  0.00    -0.086 SA
HETATM    6  C   UNL     1      40.507 -10.300   5.867  1.00  0.00     0.135 C 
HETATM    7  N   UNL     1      39.710 -13.973   6.273  1.00  0.00    -0.229 NA
HETATM    8  C   UNL     1      40.546 -15.002   5.890  1.00  0.00     0.048 C 
HETATM    9  C   UNL     1      40.316 -16.275   6.675  1.00  0.00     0.071 C 
HETATM   10  C   UNL     1      41.525 -14.842   4.971  1.00  0.00     0.069 C 
ENDROOT
BRANCH   3  11
HETATM   11  C   UNL     1      42.533 -10.511   4.203  1.00  0.00     0.156 C 
BRANCH  11  12
HETATM   12  C   UNL     1      43.890 -11.055   4.613  1.00  0.00     0.223 C 
HETATM   13  N   UNL     1      44.141 -11.039   5.959  1.00  0.00    -0.359 N 
HETATM   14  H   UNL     1      43.483 -10.534   6.551  1.00  0.00     0.162 HD
HETATM   15  O   UNL     1      44.680 -11.496   3.782  1.00  0.00    -0.273 OA
BRANCH  13  16
HETATM   16  C   UNL     1      45.422 -11.319   6.617  1.00  0.00     0.150 C 
BRANCH  16  17
HETATM   17  C   UNL     1      45.932 -10.349   7.707  1.00  0.00     0.254 C 
BRANCH  17  18
HETATM   18  N   UNL     1      44.864  -9.915   8.699  1.00  0.00    -0.070 N 
HETATM   19  H   UNL     1      43.984 -10.367   8.379  1.00  0.00     0.279 HD
HETATM   20  C   UNL     1      45.126 -10.363  10.121  1.00  0.00     0.235 C 
HETATM   21  C   UNL     1      43.967  -9.955  11.019  1.00  0.00     0.028 C 
HETATM   22  C   UNL     1      43.711  -8.456  10.961  1.00  0.00     0.003 C 
HETATM   23  C   UNL     1      43.496  -8.002   9.524  1.00  0.00     0.028 C 
HETATM   24  C   UNL     1      44.651  -8.415   8.624  1.00  0.00     0.235 C 
ENDBRANCH  17  18
ENDBRANCH  16  17
ENDBRANCH  13  16
ENDBRANCH  11  12
ENDBRANCH   3  11
BRANCH   1  25
HETATM   25  C   UNL     1      41.201 -13.592   2.806  1.00  0.00    -0.030 A 
HETATM   26  C   UNL     1      41.540 -12.641   1.819  1.00  0.00     0.016 A 
HETATM   27  C   UNL     1      41.026 -12.729   0.516  1.00  0.00    -0.061 A 
HETATM   28  C   UNL     1      41.395 -11.715  -0.530  1.00  0.00     0.048 C 
HETATM   29  C   UNL     1      40.108 -13.736   0.211  1.00  0.00     0.007 A 
HETATM   30  C   UNL     1      39.733 -14.662   1.181  1.00  0.00     0.001 A 
HETATM   31  C   UNL     1      40.280 -14.598   2.464  1.00  0.00     0.009 A 
ENDBRANCH   1  25
BRANCH  10  32
HETATM   32  C   UNL     1      42.585 -15.842   4.681  1.00  0.00     0.294 C 
HETATM   33  O   UNL     1      43.637 -15.811   5.303  1.00  0.00    -0.259 OA
BRANCH  32  34
HETATM   34  O   UNL     1      42.238 -16.696   3.705  1.00  0.00    -0.313 OA
BRANCH  34  35
HETATM   35  C   UNL     1      43.230 -17.142   2.747  1.00  0.00     0.124 C 
HETATM   36  C   UNL     1      42.981 -18.575   2.295  1.00  0.00     0.040 C 
HETATM   37  C   UNL     1      43.380 -16.165   1.583  1.00  0.00     0.040 C 
ENDBRANCH  34  35
ENDBRANCH  32  34
ENDBRANCH  10  32
TORSDOF 9
ENDMDL
MODEL 4
REMARK VINA RESULT:      -8.3      2.679      7.597
REMARK  9 active torsions:
REMARK  status: ('A' for Active; 'I' for Inactive)
REMARK    1  A    between atoms: C_4  and  C_5 
REMARK    2  A    between atoms: C_7  and  C_8 
REMARK    3  A    between atoms: C_8  and  C_9 
REMARK       I    between atoms: C_9  and  N_10 
REMARK    4  A    between atoms: N_10  and  C_11 
REMARK    5  A    between atoms: C_11  and  C_12 
REMARK    6  A    between atoms: C_12  and  N_13 
REMARK    7  A    between atoms: C_27  and  C_28 
REMARK    8  A    between atoms: C_28  and  O_29 
REMARK    9  A    between atoms: O_29  and  C_30 
ROOT
HETATM    1  C   UNL     1      40.670 -13.353   4.483  1.00  0.00     0.166 C 
HETATM    2  N   UNL     1      39.707 -12.323   4.051  1.00  0.00    -0.319 N 
HETATM    3  C   UNL     1      39.124 -11.333   4.640  1.00  0.00     0.011 C 
HETATM    4  C   UNL     1      39.371 -12.374   2.545  1.00  0.00     0.170 C 
HETATM    5  S   UNL     1      38.512 -10.960   2.034  1.00  0.00    -0.086 SA
HETATM    6  C   UNL     1      38.264 -10.456   3.759  1.00  0.00     0.135 C 
HETATM    7  N   UNL     1      39.642 -13.354   1.761  1.00  0.00    -0.229 NA
HETATM    8  C   UNL     1      40.166 -14.505   2.312  1.00  0.00     0.048 C 
HETATM    9  C   UNL     1      40.072 -15.701   1.389  1.00  0.00     0.071 C 
HETATM   10  C   UNL     1      40.628 -14.561   3.582  1.00  0.00     0.069 C 
ENDROOT
BRANCH   3  11
HETATM   11  C   UNL     1      39.234 -11.097   6.118  1.00  0.00     0.156 C 
BRANCH  11  12
HETATM   12  C   UNL     1      39.626  -9.668   6.449  1.00  0.00     0.223 C 
HETATM   13  N   UNL     1      40.954  -9.377   6.287  1.00  0.00    -0.359 N 
HETATM   14  H   UNL     1      41.585 -10.158   6.114  1.00  0.00     0.162 HD
HETATM   15  O   UNL     1      38.791  -8.843   6.810  1.00  0.00    -0.273 OA
BRANCH  13  16
HETATM   16  C   UNL     1      41.642  -8.152   6.709  1.00  0.00     0.150 C 
BRANCH  16  17
HETATM   17  C   UNL     1      41.999  -7.970   8.201  1.00  0.00     0.254 C 
BRANCH  17  18
HETATM   18  N   UNL     1      43.145  -8.850   8.676  1.00  0.00    -0.070 N 
HETATM   19  H   UNL     1      43.199  -9.633   7.994  1.00  0.00     0.279 HD
HETATM   20  C   UNL     1      44.490  -8.155   8.693  1.00  0.00     0.235 C 
HETATM   21  C   UNL     1      45.579  -9.136   9.100  1.00  0.00     0.028 C 
HETATM   22  C   UNL     1      45.284  -9.777  10.448  1.00  0.00     0.003 C 
HETATM   23  C   UNL     1      43.910 -10.434  10.441  1.00  0.00     0.028 C 
HETATM   24  C   UNL     1      42.821  -9.456  10.029  1.00  0.00     0.235 C 
ENDBRANCH  17  18
ENDBRANCH  16  17
ENDBRANCH  13  16
ENDBRANCH  11  12
ENDBRANCH   3  11
BRANCH   1  25
HETATM   25  C   UNL     1      42.083 -12.775   4.606  1.00  0.00    -0.030 A 
HETATM   26  C   UNL     1      42.753 -12.627   5.840  1.00  0.00     0.016 A 
HETATM   27  C   UNL     1      44.053 -12.102   5.905  1.00  0.00    -0.061 A 
HETATM   28  C   UNL     1      44.760 -11.951   7.222  1.00  0.00     0.048 C 
HETATM   29  C   UNL     1      44.666 -11.652   4.734  1.00  0.00     0.007 A 
HETATM   30  C   UNL     1      44.008 -11.756   3.511  1.00  0.00     0.001 A 
HETATM   31  C   UNL     1      42.733 -12.319   3.444  1.00  0.00     0.009 A 
ENDBRANCH   1  25
BRANCH  10  32
HETATM   32  C   UNL     1      40.997 -15.811   4.295  1.00  0.00     0.294 C 
HETATM   33  O   UNL     1      40.209 -16.321   5.078  1.00  0.00    -0.259 OA
BRANCH  32  34
HETATM   34  O   UNL     1      42.230 -16.241   3.979  1.00  0.00    -0.313 OA
BRANCH  34  35
HETATM   35  C   UNL     1      43.000 -17.000   4.945  1.00  0.00     0.124 C 
HETATM   36  C   UNL     1      43.821 -18.098   4.280  1.00  0.00     0.040 C 
HETATM   37  C   UNL     1      43.833 -16.094   5.849  1.00  0.00     0.040 C 
ENDBRANCH  34  35
ENDBRANCH  32  34
ENDBRANCH  10  32
TORSDOF 9
ENDMDL
MODEL 5
REMARK VINA RESULT:      -8.1      2.879      5.171
REMARK  9 active torsions:
REMARK  status: ('A' for Active; 'I' for Inactive)
REMARK    1  A    between atoms: C_4  and  C_5 
REMARK    2  A    between atoms: C_7  and  C_8 
REMARK    3  A    between atoms: C_8  and  C_9 
REMARK       I    between atoms: C_9  and  N_10 
REMARK    4  A    between atoms: N_10  and  C_11 
REMARK    5  A    between atoms: C_11  and  C_12 
REMARK    6  A    between atoms: C_12  and  N_13 
REMARK    7  A    between atoms: C_27  and  C_28 
REMARK    8  A    between atoms: C_28  and  O_29 
REMARK    9  A    between atoms: O_29  and  C_30 
ROOT
HETATM    1  C   UNL     1      41.992  -8.497   7.797  1.00  0.00     0.166 C 
HETATM    2  N   UNL     1      41.290  -9.590   7.098  1.00  0.00    -0.319 N 
HETATM    3  C   UNL     1      41.676 -10.648   6.469  1.00  0.00     0.011 C 
HETATM    4  C   UNL     1      39.751  -9.511   7.200  1.00  0.00     0.170 C 
HETATM    5  S   UNL     1      39.000 -10.974   6.660  1.00  0.00    -0.086 SA
HETATM    6  C   UNL     1      40.576 -11.563   5.981  1.00  0.00     0.135 C 
HETATM    7  N   UNL     1      39.090  -8.481   7.588  1.00  0.00    -0.229 NA
HETATM    8  C   UNL     1      39.781  -7.311   7.823  1.00  0.00     0.048 C 
HETATM    9  C   UNL     1      38.884  -6.094   7.882  1.00  0.00     0.071 C 
HETATM   10  C   UNL     1      41.131  -7.264   7.898  1.00  0.00     0.069 C 
ENDROOT
BRANCH   3  11
HETATM   11  C   UNL     1      43.121 -10.930   6.176  1.00  0.00     0.156 C 
BRANCH  11  12
HETATM   12  C   UNL     1      43.595 -12.231   6.800  1.00  0.00     0.223 C 
HETATM   13  N   UNL     1      43.527 -13.327   5.981  1.00  0.00    -0.359 N 
HETATM   14  H   UNL     1      43.031 -13.220   5.098  1.00  0.00     0.162 HD
HETATM   15  O   UNL     1      44.029 -12.269   7.948  1.00  0.00    -0.273 OA
BRANCH  13  16
HETATM   16  C   UNL     1      43.732 -14.727   6.370  1.00  0.00     0.150 C 
BRANCH  16  17
HETATM   17  C   UNL     1      42.783 -15.807   5.805  1.00  0.00     0.254 C 
BRANCH  17  18
HETATM   18  N   UNL     1      43.408 -16.676   4.724  1.00  0.00    -0.070 N 
HETATM   19  H   UNL     1      44.238 -16.149   4.385  1.00  0.00     0.279 HD
HETATM   20  C   UNL     1      43.882 -18.026   5.216  1.00  0.00     0.235 C 
HETATM   21  C   UNL     1      44.564 -18.784   4.085  1.00  0.00     0.028 C 
HETATM   22  C   UNL     1      43.648 -18.938   2.880  1.00  0.00     0.003 C 
HETATM   23  C   UNL     1      43.135 -17.581   2.418  1.00  0.00     0.028 C 
HETATM   24  C   UNL     1      42.459 -16.820   3.548  1.00  0.00     0.235 C 
ENDBRANCH  17  18
ENDBRANCH  16  17
ENDBRANCH  13  16
ENDBRANCH  11  12
ENDBRANCH   3  11
BRANCH   1  25
HETATM   25  C   UNL     1      42.507  -8.954   9.166  1.00  0.00    -0.030 A 
HETATM   26  C   UNL     1      41.654  -9.250  10.251  1.00  0.00     0.016 A 
HETATM   27  C   UNL     1      42.169  -9.676  11.486  1.00  0.00    -0.061 A 
HETATM   28  C   UNL     1      41.255  -9.993  12.636  1.00  0.00     0.048 C 
HETATM   29  C   UNL     1      43.553  -9.739  11.663  1.00  0.00     0.007 A 
HETATM   30  C   UNL     1      44.411  -9.415  10.615  1.00  0.00     0.001 A 
HETATM   31  C   UNL     1      43.895  -9.035   9.375  1.00  0.00     0.009 A 
ENDBRANCH   1  25
BRANCH  10  32
HETATM   32  C   UNL     1      41.934  -6.014   7.930  1.00  0.00     0.294 C 
HETATM   33  O   UNL     1      42.054  -5.342   6.916  1.00  0.00    -0.259 OA
BRANCH  32  34
HETATM   34  O   UNL     1      42.469  -5.774   9.138  1.00  0.00    -0.313 OA
BRANCH  34  35
HETATM   35  C   UNL     1      41.609  -5.445  10.257  1.00  0.00     0.124 C 
HETATM   36  C   UNL     1      42.204  -5.900  11.584  1.00  0.00     0.040 C 
HETATM   37  C   UNL     1      41.207  -3.972  10.256  1.00  0.00     0.040 C 
ENDBRANCH  34  35
ENDBRANCH  32  34
ENDBRANCH  10  32
TORSDOF 9
ENDMDL
MODEL 6
REMARK VINA RESULT:      -7.9      3.175      5.720
REMARK  9 active torsions:
REMARK  status: ('A' for Active; 'I' for Inactive)
REMARK    1  A    between atoms: C_4  and  C_5 
REMARK    2  A    between atoms: C_7  and  C_8 
REMARK    3  A    between atoms: C_8  and  C_9 
REMARK       I    between atoms: C_9  and  N_10 
REMARK    4  A    between atoms: N_10  and  C_11 
REMARK    5  A    between atoms: C_11  and  C_12 
REMARK    6  A    between atoms: C_12  and  N_13 
REMARK    7  A    between atoms: C_27  and  C_28 
REMARK    8  A    between atoms: C_28  and  O_29 
REMARK    9  A    between atoms: O_29  and  C_30 
ROOT
HETATM    1  C   UNL     1      42.012  -9.558   8.596  1.00  0.00     0.166 C 
HETATM    2  N   UNL     1      43.272 -10.124   8.078  1.00  0.00    -0.319 N 
HETATM    3  C   UNL     1      43.567 -10.918   7.104  1.00  0.00     0.011 C 
HETATM    4  C   UNL     1      44.535  -9.600   8.795  1.00  0.00     0.170 C 
HETATM    5  S   UNL     1      45.979 -10.030   7.942  1.00  0.00    -0.086 SA
HETATM    6  C   UNL     1      45.042 -11.159   6.874  1.00  0.00     0.135 C 
HETATM    7  N   UNL     1      44.539  -8.965   9.911  1.00  0.00    -0.229 NA
HETATM    8  C   UNL     1      43.347  -8.834  10.593  1.00  0.00     0.048 C 
HETATM    9  C   UNL     1      43.533  -8.435  12.041  1.00  0.00     0.071 C 
HETATM   10  C   UNL     1      42.151  -9.127  10.034  1.00  0.00     0.069 C 
ENDROOT
BRANCH   3  11
HETATM   11  C   UNL     1      42.519 -11.615   6.287  1.00  0.00     0.156 C 
BRANCH  11  12
HETATM   12  C   UNL     1      42.835 -13.085   6.072  1.00  0.00     0.223 C 
HETATM   13  N   UNL     1      42.620 -13.890   7.159  1.00  0.00    -0.359 N 
HETATM   14  H   UNL     1      42.423 -13.433   8.047  1.00  0.00     0.162 HD
HETATM   15  O   UNL     1      43.228 -13.503   4.986  1.00  0.00    -0.273 OA
BRANCH  13  16
HETATM   16  C   UNL     1      43.015 -15.296   7.301  1.00  0.00     0.150 C 
BRANCH  16  17
HETATM   17  C   UNL     1      42.219 -16.378   6.538  1.00  0.00     0.254 C 
BRANCH  17  18
HETATM   18  N   UNL     1      42.712 -16.626   5.121  1.00  0.00    -0.070 N 
HETATM   19  H   UNL     1      43.400 -15.871   4.927  1.00  0.00     0.279 HD
HETATM   20  C   UNL     1      43.415 -17.954   4.936  1.00  0.00     0.235 C 
HETATM   21  C   UNL     1      43.943 -18.072   3.514  1.00  0.00     0.028 C 
HETATM   22  C   UNL     1      42.833 -17.899   2.486  1.00  0.00     0.003 C 
HETATM   23  C   UNL     1      42.097 -16.584   2.706  1.00  0.00     0.028 C 
HETATM   24  C   UNL     1      41.576 -16.462   4.129  1.00  0.00     0.235 C 
ENDBRANCH  17  18
ENDBRANCH  16  17
ENDBRANCH  13  16
ENDBRANCH  11  12
ENDBRANCH   3  11
BRANCH   1  25
HETATM   25  C   UNL     1      41.504  -8.423   7.701  1.00  0.00    -0.030 A 
HETATM   26  C   UNL     1      40.341  -8.527   6.909  1.00  0.00     0.016 A 
HETATM   27  C   UNL     1      39.905  -7.457   6.111  1.00  0.00    -0.061 A 
HETATM   28  C   UNL     1      38.663  -7.574   5.273  1.00  0.00     0.048 C 
HETATM   29  C   UNL     1      40.678  -6.295   6.046  1.00  0.00     0.007 A 
HETATM   30  C   UNL     1      41.849  -6.188   6.792  1.00  0.00     0.001 A 
HETATM   31  C   UNL     1      42.255  -7.236   7.619  1.00  0.00     0.009 A 
ENDBRANCH   1  25
BRANCH  10  32
HETATM   32  C   UNL     1      40.868  -9.215  10.777  1.00  0.00     0.294 C 
HETATM   33  O   UNL     1      40.686 -10.126  11.571  1.00  0.00    -0.259 OA
BRANCH  32  34
HETATM   34  O   UNL     1      40.014  -8.231  10.453  1.00  0.00    -0.313 OA
BRANCH  34  35
HETATM   35  C   UNL     1      40.311  -6.862  10.826  1.00  0.00     0.124 C 
HETATM   36  C   UNL     1      39.591  -5.860   9.933  1.00  0.00     0.040 C 
HETATM   37  C   UNL     1      40.080  -6.612  12.315  1.00  0.00     0.040 C 
ENDBRANCH  34  35
ENDBRANCH  32  34
ENDBRANCH  10  32
TORSDOF 9
ENDMDL
MODEL 7
REMARK VINA RESULT:      -7.7      3.823      6.823
REMARK  9 active torsions:
REMARK  status: ('A' for Active; 'I' for Inactive)
REMARK    1  A    between atoms: C_4  and  C_5 
REMARK    2  A    between atoms: C_7  and  C_8 
REMARK    3  A    between atoms: C_8  and  C_9 
REMARK       I    between atoms: C_9  and  N_10 
REMARK    4  A    between atoms: N_10  and  C_11 
REMARK    5  A    between atoms: C_11  and  C_12 
REMARK    6  A    between atoms: C_12  and  N_13 
REMARK    7  A    between atoms: C_27  and  C_28 
REMARK    8  A    between atoms: C_28  and  O_29 
REMARK    9  A    between atoms: O_29  and  C_30 
ROOT
HETATM    1  C   UNL     1      41.547  -8.943   9.430  1.00  0.00     0.166 C 
HETATM    2  N   UNL     1      42.785  -9.527   8.881  1.00  0.00    -0.319 N 
HETATM    3  C   UNL     1      43.187  -9.826   7.692  1.00  0.00     0.011 C 
HETATM    4  C   UNL     1      43.886  -9.767   9.937  1.00  0.00     0.170 C 
HETATM    5  S   UNL     1      45.409 -10.132   9.200  1.00  0.00    -0.086 SA
HETATM    6  C   UNL     1      44.609 -10.329   7.584  1.00  0.00     0.135 C 
HETATM    7  N   UNL     1      43.704  -9.751  11.208  1.00  0.00    -0.229 NA
HETATM    8  C   UNL     1      42.414  -9.628  11.683  1.00  0.00     0.048 C 
HETATM    9  C   UNL     1      42.279 -10.014  13.139  1.00  0.00     0.071 C 
HETATM   10  C   UNL     1      41.375  -9.285  10.888  1.00  0.00     0.069 C 
ENDROOT
BRANCH   3  11
HETATM   11  C   UNL     1      42.289  -9.746   6.493  1.00  0.00     0.156 C 
BRANCH  11  12
HETATM   12  C   UNL     1      42.279 -11.033   5.688  1.00  0.00     0.223 C 
HETATM   13  N   UNL     1      41.519 -12.043   6.216  1.00  0.00    -0.359 N 
HETATM   14  H   UNL     1      41.156 -11.911   7.158  1.00  0.00     0.162 HD
HETATM   15  O   UNL     1      42.895 -11.131   4.630  1.00  0.00    -0.273 OA
BRANCH  13  16
HETATM   16  C   UNL     1      41.478 -13.438   5.764  1.00  0.00     0.150 C 
BRANCH  16  17
HETATM   17  C   UNL     1      42.668 -14.367   6.093  1.00  0.00     0.254 C 
BRANCH  17  18
HETATM   18  N   UNL     1      43.170 -15.174   4.906  1.00  0.00    -0.070 N 
HETATM   19  H   UNL     1      44.202 -15.041   4.893  1.00  0.00     0.279 HD
HETATM   20  C   UNL     1      42.894 -16.659   5.009  1.00  0.00     0.235 C 
HETATM   21  C   UNL     1      43.505 -17.387   3.821  1.00  0.00     0.028 C 
HETATM   22  C   UNL     1      42.996 -16.832   2.499  1.00  0.00     0.003 C 
HETATM   23  C   UNL     1      43.233 -15.330   2.420  1.00  0.00     0.028 C 
HETATM   24  C   UNL     1      42.628 -14.601   3.610  1.00  0.00     0.235 C 
ENDBRANCH  17  18
ENDBRANCH  16  17
ENDBRANCH  13  16
ENDBRANCH  11  12
ENDBRANCH   3  11
BRANCH   1  25
HETATM   25  C   UNL     1      41.488  -7.433   9.182  1.00  0.00    -0.030 A 
HETATM   26  C   UNL     1      42.168  -6.492   9.984  1.00  0.00     0.016 A 
HETATM   27  C   UNL     1      42.095  -5.116   9.714  1.00  0.00    -0.061 A 
HETATM   28  C   UNL     1      42.825  -4.121  10.571  1.00  0.00     0.048 C 
HETATM   29  C   UNL     1      41.277  -4.668   8.675  1.00  0.00     0.007 A 
HETATM   30  C   UNL     1      40.569  -5.579   7.895  1.00  0.00     0.001 A 
HETATM   31  C   UNL     1      40.679  -6.949   8.138  1.00  0.00     0.009 A 
ENDBRANCH   1  25
BRANCH  10  32
HETATM   32  C   UNL     1      39.946  -9.351  11.289  1.00  0.00     0.294 C 
HETATM   33  O   UNL     1      39.386 -10.434  11.372  1.00  0.00    -0.259 OA
BRANCH  32  34
HETATM   34  O   UNL     1      39.415  -8.137  11.510  1.00  0.00    -0.313 OA
BRANCH  34  35
HETATM   35  C   UNL     1      39.263  -7.650  12.867  1.00  0.00     0.124 C 
HETATM   36  C   UNL     1      40.348  -6.646  13.235  1.00  0.00     0.040 C 
HETATM   37  C   UNL     1      37.852  -7.131  13.134  1.00  0.00     0.040 C 
ENDBRANCH  34  35
ENDBRANCH  32  34
ENDBRANCH  10  32
TORSDOF 9
ENDMDL
MODEL 8
REMARK VINA RESULT:      -7.6      2.866      5.024
REMARK  9 active torsions:
REMARK  status: ('A' for Active; 'I' for Inactive)
REMARK    1  A    between atoms: C_4  and  C_5 
REMARK    2  A    between atoms: C_7  and  C_8 
REMARK    3  A    between atoms: C_8  and  C_9 
REMARK       I    between atoms: C_9  and  N_10 
REMARK    4  A    between atoms: N_10  and  C_11 
REMARK    5  A    between atoms: C_11  and  C_12 
REMARK    6  A    between atoms: C_12  and  N_13 
REMARK    7  A    between atoms: C_27  and  C_28 
REMARK    8  A    between atoms: C_28  and  O_29 
REMARK    9  A    between atoms: O_29  and  C_30 
ROOT
HETATM    1  C   UNL     1      42.045  -8.686   7.277  1.00  0.00     0.166 C 
HETATM    2  N   UNL     1      41.229  -9.782   6.721  1.00  0.00    -0.319 N 
HETATM    3  C   UNL     1      41.483 -10.795   5.963  1.00  0.00     0.011 C 
HETATM    4  C   UNL     1      39.764  -9.780   7.206  1.00  0.00     0.170 C 
HETATM    5  S   UNL     1      38.953 -11.254   6.798  1.00  0.00    -0.086 SA
HETATM    6  C   UNL     1      40.328 -11.741   5.719  1.00  0.00     0.135 C 
HETATM    7  N   UNL     1      39.184  -8.798   7.798  1.00  0.00    -0.229 NA
HETATM    8  C   UNL     1      39.870  -7.607   7.912  1.00  0.00     0.048 C 
HETATM    9  C   UNL     1      38.974  -6.437   8.253  1.00  0.00     0.071 C 
HETATM   10  C   UNL     1      41.193  -7.500   7.651  1.00  0.00     0.069 C 
ENDROOT
BRANCH   3  11
HETATM   11  C   UNL     1      42.817 -10.997   5.306  1.00  0.00     0.156 C 
BRANCH  11  12
HETATM   12  C   UNL     1      43.152 -12.466   5.114  1.00  0.00     0.223 C 
HETATM   13  N   UNL     1      43.326 -13.179   6.270  1.00  0.00    -0.359 N 
HETATM   14  H   UNL     1      43.373 -12.653   7.140  1.00  0.00     0.162 HD
HETATM   15  O   UNL     1      43.229 -12.963   3.993  1.00  0.00    -0.273 OA
BRANCH  13  16
HETATM   16  C   UNL     1      43.839 -14.549   6.387  1.00  0.00     0.150 C 
BRANCH  16  17
HETATM   17  C   UNL     1      42.932 -15.727   5.967  1.00  0.00     0.254 C 
BRANCH  17  18
HETATM   18  N   UNL     1      43.458 -16.523   4.783  1.00  0.00    -0.070 N 
HETATM   19  H   UNL     1      44.339 -16.051   4.497  1.00  0.00     0.279 HD
HETATM   20  C   UNL     1      43.786 -17.964   5.107  1.00  0.00     0.235 C 
HETATM   21  C   UNL     1      44.381 -18.651   3.886  1.00  0.00     0.028 C 
HETATM   22  C   UNL     1      43.453 -18.564   2.683  1.00  0.00     0.003 C 
HETATM   23  C   UNL     1      43.087 -17.115   2.391  1.00  0.00     0.028 C 
HETATM   24  C   UNL     1      42.498 -16.426   3.612  1.00  0.00     0.235 C 
ENDBRANCH  17  18
ENDBRANCH  16  17
ENDBRANCH  13  16
ENDBRANCH  11  12
ENDBRANCH   3  11
BRANCH   1  25
HETATM   25  C   UNL     1      42.902  -9.172   8.450  1.00  0.00    -0.030 A 
HETATM   26  C   UNL     1      42.388  -9.377   9.748  1.00  0.00     0.016 A 
HETATM   27  C   UNL     1      43.209  -9.834  10.792  1.00  0.00    -0.061 A 
HETATM   28  C   UNL     1      42.653 -10.054  12.171  1.00  0.00     0.048 C 
HETATM   29  C   UNL     1      44.572 -10.020  10.556  1.00  0.00     0.007 A 
HETATM   30  C   UNL     1      45.105  -9.788   9.291  1.00  0.00     0.001 A 
HETATM   31  C   UNL     1      44.279  -9.376   8.244  1.00  0.00     0.009 A 
ENDBRANCH   1  25
BRANCH  10  32
HETATM   32  C   UNL     1      41.934  -6.216   7.544  1.00  0.00     0.294 C 
HETATM   33  O   UNL     1      42.195  -5.578   8.554  1.00  0.00    -0.259 OA
BRANCH  32  34
HETATM   34  O   UNL     1      42.227  -5.892   6.275  1.00  0.00    -0.313 OA
BRANCH  34  35
HETATM   35  C   UNL     1      41.602  -4.738   5.660  1.00  0.00     0.124 C 
HETATM   36  C   UNL     1      42.523  -4.062   4.652  1.00  0.00     0.040 C 
HETATM   37  C   UNL     1      40.227  -5.071   5.085  1.00  0.00     0.040 C 
ENDBRANCH  34  35
ENDBRANCH  32  34
ENDBRANCH  10  32
TORSDOF 9
ENDMDL
MODEL 9
REMARK VINA RESULT:      -7.4     16.341     19.398
REMARK  9 active torsions:
REMARK  status: ('A' for Active; 'I' for Inactive)
REMARK    1  A    between atoms: C_4  and  C_5 
REMARK    2  A    between atoms: C_7  and  C_8 
REMARK    3  A    between atoms: C_8  and  C_9 
REMARK       I    between atoms: C_9  and  N_10 
REMARK    4  A    between atoms: N_10  and  C_11 
REMARK    5  A    between atoms: C_11  and  C_12 
REMARK    6  A    between atoms: C_12  and  N_13 
REMARK    7  A    between atoms: C_27  and  C_28 
REMARK    8  A    between atoms: C_28  and  O_29 
REMARK    9  A    between atoms: O_29  and  C_30 
ROOT
HETATM    1  C   UNL     1      45.391 -31.168  -0.638  1.00  0.00     0.166 C 
HETATM    2  N   UNL     1      44.137 -31.586   0.017  1.00  0.00    -0.319 N 
HETATM    3  C   UNL     1      43.285 -30.997   0.787  1.00  0.00     0.011 C 
HETATM    4  C   UNL     1      43.684 -33.015  -0.353  1.00  0.00     0.170 C 
HETATM    5  S   UNL     1      42.063 -33.327   0.168  1.00  0.00    -0.086 SA
HETATM    6  C   UNL     1      42.059 -31.802   1.152  1.00  0.00     0.135 C 
HETATM    7  N   UNL     1      44.420 -33.896  -0.930  1.00  0.00    -0.229 NA
HETATM    8  C   UNL     1      45.751 -33.601  -1.137  1.00  0.00     0.048 C 
HETATM    9  C   UNL     1      46.588 -34.822  -1.448  1.00  0.00     0.071 C 
HETATM   10  C   UNL     1      46.254 -32.354  -0.984  1.00  0.00     0.069 C 
ENDROOT
BRANCH   3  11
HETATM   11  C   UNL     1      43.518 -29.623   1.344  1.00  0.00     0.156 C 
BRANCH  11  12
HETATM   12  C   UNL     1      44.753 -29.557   2.226  1.00  0.00     0.223 C 
HETATM   13  N   UNL     1      45.692 -28.637   1.844  1.00  0.00    -0.359 N 
HETATM   14  H   UNL     1      45.567 -28.192   0.936  1.00  0.00     0.162 HD
HETATM   15  O   UNL     1      44.868 -30.269   3.220  1.00  0.00    -0.273 OA
BRANCH  13  16
HETATM   16  C   UNL     1      47.048 -28.490   2.384  1.00  0.00     0.150 C 
BRANCH  16  17
HETATM   17  C   UNL     1      48.218 -29.211   1.679  1.00  0.00     0.254 C 
BRANCH  17  18
HETATM   18  N   UNL     1      48.988 -30.167   2.577  1.00  0.00    -0.070 N 
HETATM   19  H   UNL     1      49.006 -31.074   2.070  1.00  0.00     0.279 HD
HETATM   20  C   UNL     1      50.420 -29.750   2.836  1.00  0.00     0.235 C 
HETATM   21  C   UNL     1      51.128 -30.807   3.671  1.00  0.00     0.028 C 
HETATM   22  C   UNL     1      50.397 -31.074   4.978  1.00  0.00     0.003 C 
HETATM   23  C   UNL     1      48.944 -31.446   4.715  1.00  0.00     0.028 C 
HETATM   24  C   UNL     1      48.237 -30.393   3.875  1.00  0.00     0.235 C 
ENDBRANCH  17  18
ENDBRANCH  16  17
ENDBRANCH  13  16
ENDBRANCH  11  12
ENDBRANCH   3  11
BRANCH   1  25
HETATM   25  C   UNL     1      45.113 -30.283  -1.856  1.00  0.00    -0.030 A 
HETATM   26  C   UNL     1      44.659 -30.792  -3.092  1.00  0.00     0.016 A 
HETATM   27  C   UNL     1      44.406 -29.942  -4.181  1.00  0.00    -0.061 A 
HETATM   28  C   UNL     1      43.921 -30.491  -5.493  1.00  0.00     0.048 C 
HETATM   29  C   UNL     1      44.676 -28.578  -4.058  1.00  0.00     0.007 A 
HETATM   30  C   UNL     1      45.159 -28.061  -2.858  1.00  0.00     0.001 A 
HETATM   31  C   UNL     1      45.367 -28.903  -1.764  1.00  0.00     0.009 A 
ENDBRANCH   1  25
BRANCH  10  32
HETATM   32  C   UNL     1      47.702 -32.021  -0.979  1.00  0.00     0.294 C 
HETATM   33  O   UNL     1      48.254 -31.689  -2.018  1.00  0.00    -0.259 OA
BRANCH  32  34
HETATM   34  O   UNL     1      48.258 -32.147   0.237  1.00  0.00    -0.313 OA
BRANCH  34  35
HETATM   35  C   UNL     1      49.346 -33.083   0.441  1.00  0.00     0.124 C 
HETATM   36  C   UNL     1      50.706 -32.424   0.248  1.00  0.00     0.040 C 
HETATM   37  C   UNL     1      49.222 -33.821   1.772  1.00  0.00     0.040 C 
ENDBRANCH  34  35
ENDBRANCH  32  34
ENDBRANCH  10  32
TORSDOF 9
ENDMDL
MODEL 10
REMARK VINA RESULT:      -7.3     16.369     18.619
REMARK  9 active torsions:
REMARK  status: ('A' for Active; 'I' for Inactive)
REMARK    1  A    between atoms: C_4  and  C_5 
REMARK    2  A    between atoms: C_7  and  C_8 
REMARK    3  A    between atoms: C_8  and  C_9 
REMARK       I    between atoms: C_9  and  N_10 
REMARK    4  A    between atoms: N_10  and  C_11 
REMARK    5  A    between atoms: C_11  and  C_12 
REMARK    6  A    between atoms: C_12  and  N_13 
REMARK    7  A    between atoms: C_27  and  C_28 
REMARK    8  A    between atoms: C_28  and  O_29 
REMARK    9  A    between atoms: O_29  and  C_30 
ROOT
HETATM    1  C   UNL     1      47.306 -29.698   1.844  1.00  0.00     0.166 C 
HETATM    2  N   UNL     1      45.873 -29.729   1.495  1.00  0.00    -0.319 N 
HETATM    3  C   UNL     1      45.165 -29.194   0.558  1.00  0.00     0.011 C 
HETATM    4  C   UNL     1      45.032 -30.665   2.389  1.00  0.00     0.170 C 
HETATM    5  S   UNL     1      43.449 -30.919   1.736  1.00  0.00    -0.086 SA
HETATM    6  C   UNL     1      43.705 -29.588   0.530  1.00  0.00     0.135 C 
HETATM    7  N   UNL     1      45.422 -31.166   3.505  1.00  0.00    -0.229 NA
HETATM    8  C   UNL     1      46.634 -30.753   4.019  1.00  0.00     0.048 C 
HETATM    9  C   UNL     1      46.802 -31.088   5.485  1.00  0.00     0.071 C 
HETATM   10  C   UNL     1      47.529 -30.043   3.294  1.00  0.00     0.069 C 
ENDROOT
BRANCH   3  11
HETATM   11  C   UNL     1      45.728 -28.194  -0.408  1.00  0.00     0.156 C 
BRANCH  11  12
HETATM   12  C   UNL     1      45.826 -28.743  -1.820  1.00  0.00     0.223 C 
HETATM   13  N   UNL     1      45.305 -27.936  -2.796  1.00  0.00    -0.359 N 
HETATM   14  H   UNL     1      44.766 -27.126  -2.493  1.00  0.00     0.162 HD
HETATM   15  O   UNL     1      46.362 -29.825  -2.051  1.00  0.00    -0.273 OA
BRANCH  13  16
HETATM   16  C   UNL     1      45.089 -28.287  -4.203  1.00  0.00     0.150 C 
BRANCH  16  17
HETATM   17  C   UNL     1      44.358 -29.606  -4.543  1.00  0.00     0.254 C 
BRANCH  17  18
HETATM   18  N   UNL     1      44.982 -30.382  -5.692  1.00  0.00    -0.070 N 
HETATM   19  H   UNL     1      45.482 -29.676  -6.268  1.00  0.00     0.279 HD
HETATM   20  C   UNL     1      45.989 -31.424  -5.256  1.00  0.00     0.235 C 
HETATM   21  C   UNL     1      46.616 -32.086  -6.474  1.00  0.00     0.028 C 
HETATM   22  C   UNL     1      45.563 -32.699  -7.386  1.00  0.00     0.003 C 
HETATM   23  C   UNL     1      44.525 -31.658  -7.783  1.00  0.00     0.028 C 
HETATM   24  C   UNL     1      43.902 -30.991  -6.566  1.00  0.00     0.235 C 
ENDBRANCH  17  18
ENDBRANCH  16  17
ENDBRANCH  13  16
ENDBRANCH  11  12
ENDBRANCH   3  11
BRANCH   1  25
HETATM   25  C   UNL     1      48.125 -30.591   0.907  1.00  0.00    -0.030 A 
HETATM   26  C   UNL     1      49.022 -30.082  -0.057  1.00  0.00     0.016 A 
HETATM   27  C   UNL     1      49.761 -30.939  -0.888  1.00  0.00    -0.061 A 
HETATM   28  C   UNL     1      50.716 -30.389  -1.910  1.00  0.00     0.048 C 
HETATM   29  C   UNL     1      49.551 -32.317  -0.807  1.00  0.00     0.007 A 
HETATM   30  C   UNL     1      48.643 -32.837   0.113  1.00  0.00     0.001 A 
HETATM   31  C   UNL     1      47.943 -31.984   0.968  1.00  0.00     0.009 A 
ENDBRANCH   1  25
BRANCH  10  32
HETATM   32  C   UNL     1      48.741 -29.389   3.852  1.00  0.00     0.294 C 
HETATM   33  O   UNL     1      48.929 -28.196   3.667  1.00  0.00    -0.259 OA
BRANCH  32  34
HETATM   34  O   UNL     1      49.531 -30.248   4.517  1.00  0.00    -0.313 OA
BRANCH  34  35
HETATM   35  C   UNL     1      50.711 -30.791   3.875  1.00  0.00     0.124 C 
HETATM   36  C   UNL     1      50.524 -32.252   3.485  1.00  0.00     0.040 C 
HETATM   37  C   UNL     1      51.184 -29.918   2.716  1.00  0.00     0.040 C 
ENDBRANCH  34  35
ENDBRANCH  32  34
ENDBRANCH  10  32
TORSDOF 9
ENDMDL
