MODEL 1
REMARK VINA RESULT:      -8.0      0.000      0.000
REMARK  3 active torsions:
REMARK  status: ('A' for Active; 'I' for Inactive)
REMARK    1  A    between atoms: C_4  and  N_5 
REMARK       I    between atoms: N_5  and  C_6 
REMARK    2  A    between atoms: C_6  and  C_7 
REMARK    3  A    between atoms: C_7  and  C_8 
ROOT
HETATM    1  C   UNL     1      40.019 -13.414   2.176  1.00  0.00     0.286 C 
HETATM    2  N   UNL     1      40.672 -12.713   0.985  1.00  0.00    -0.056 N 
HETATM    3  H   UNL     1      40.668 -11.694   1.202  1.00  0.00     0.278 HD
HETATM    4  H   UNL     1      41.660 -12.984   0.905  1.00  0.00     0.278 HD
HETATM    5  C   UNL     1      39.913 -13.001  -0.274  1.00  0.00     0.209 C 
HETATM    6  C   UNL     1      39.963 -14.526  -0.526  1.00  0.00     0.115 C 
HETATM    7  N   UNL     1      39.528 -15.299   0.636  1.00  0.00    -0.353 N 
HETATM    8  C   UNL     1      39.856 -14.929   1.926  1.00  0.00     0.249 C 
HETATM    9  O   UNL     1      39.924 -15.768   2.815  1.00  0.00    -0.271 OA
HETATM   10  C   UNL     1      40.506 -12.232  -1.447  1.00  0.00     0.035 C 
HETATM   11  C   UNL     1      39.736 -12.567  -2.726  1.00  0.00     0.002 C 
HETATM   12  C   UNL     1      39.670 -14.074  -2.989  1.00  0.00     0.002 C 
HETATM   13  C   UNL     1      39.157 -14.864  -1.781  1.00  0.00     0.027 C 
HETATM   14  H   UNL     1      39.457 -16.310   0.532  1.00  0.00     0.163 HD
ENDROOT
BRANCH   1  15
HETATM   15  C   UNL     1      40.772 -13.119   3.477  1.00  0.00     0.146 C 
BRANCH  15  16
HETATM   16  C   UNL     1      42.220 -12.832   3.170  1.00  0.00     0.224 C 
HETATM   17  N   UNL     1      43.202 -13.751   3.337  1.00  0.00    -0.327 N 
HETATM   18  H   UNL     1      44.127 -13.343   3.225  1.00  0.00     0.169 HD
HETATM   19  O   UNL     1      42.522 -11.701   2.762  1.00  0.00    -0.273 OA
BRANCH  17  20
HETATM   20  C   UNL     1      43.198 -15.117   3.675  1.00  0.00     0.035 A 
HETATM   21  C   UNL     1      43.216 -16.170   2.761  1.00  0.00     0.036 A 
HETATM   22  C   UNL     1      43.206 -17.505   3.203  1.00  0.00    -0.059 A 
HETATM   23  C   UNL     1      43.272 -18.634   2.216  1.00  0.00     0.048 C 
HETATM   24  C   UNL     1      43.208 -17.776   4.575  1.00  0.00     0.013 A 
HETATM   25  C   UNL     1      43.202 -16.735   5.507  1.00  0.00    -0.059 A 
HETATM   26  C   UNL     1      43.220 -15.413   5.046  1.00  0.00     0.036 A 
HETATM   27  C   UNL     1      43.234 -17.035   6.977  1.00  0.00     0.048 C 
ENDBRANCH  17  20
ENDBRANCH  15  16
ENDBRANCH   1  15
TORSDOF 3
ENDMDL
MODEL 2
REMARK VINA RESULT:      -7.9      1.483      2.402
REMARK  3 active torsions:
REMARK  status: ('A' for Active; 'I' for Inactive)
REMARK    1  A    between atoms: C_4  and  N_5 
REMARK       I    between atoms: N_5  and  C_6 
REMARK    2  A    between atoms: C_6  and  C_7 
REMARK    3  A    between atoms: C_7  and  C_8 
ROOT
HETATM    1  C   UNL     1      41.353 -13.175   0.853  1.00  0.00     0.286 C 
HETATM    2  N   UNL     1      40.383 -14.271   0.411  1.00  0.00    -0.056 N 
HETATM    3  H   UNL     1      40.873 -15.178   0.562  1.00  0.00     0.278 HD
HETATM    4  H   UNL     1      39.557 -14.287   1.020  1.00  0.00     0.278 HD
HETATM    5  C   UNL     1      40.009 -14.091  -1.028  1.00  0.00     0.209 C 
HETATM    6  C   UNL     1      39.292 -12.728  -1.171  1.00  0.00     0.115 C 
HETATM    7  N   UNL     1      40.068 -11.626  -0.603  1.00  0.00    -0.353 N 
HETATM    8  C   UNL     1      40.789 -11.766   0.567  1.00  0.00     0.249 C 
HETATM    9  O   UNL     1      41.021 -10.794   1.275  1.00  0.00    -0.271 OA
HETATM   10  C   UNL     1      39.116 -15.231  -1.497  1.00  0.00     0.035 C 
HETATM   11  C   UNL     1      38.720 -15.009  -2.959  1.00  0.00     0.002 C 
HETATM   12  C   UNL     1      38.084 -13.636  -3.188  1.00  0.00     0.002 C 
HETATM   13  C   UNL     1      38.936 -12.488  -2.639  1.00  0.00     0.027 C 
HETATM   14  H   UNL     1      39.705 -10.682  -0.721  1.00  0.00     0.163 HD
ENDROOT
BRANCH   1  15
HETATM   15  C   UNL     1      41.761 -13.350   2.319  1.00  0.00     0.146 C 
BRANCH  15  16
HETATM   16  C   UNL     1      40.636 -14.002   3.083  1.00  0.00     0.224 C 
HETATM   17  N   UNL     1      40.742 -15.236   3.635  1.00  0.00    -0.327 N 
HETATM   18  H   UNL     1      39.847 -15.575   3.979  1.00  0.00     0.169 HD
HETATM   19  O   UNL     1      39.566 -13.386   3.195  1.00  0.00    -0.273 OA
BRANCH  17  20
HETATM   20  C   UNL     1      41.811 -16.140   3.780  1.00  0.00     0.035 A 
HETATM   21  C   UNL     1      42.094 -17.194   2.911  1.00  0.00     0.036 A 
HETATM   22  C   UNL     1      43.187 -18.046   3.148  1.00  0.00    -0.059 A 
HETATM   23  C   UNL     1      43.515 -19.149   2.184  1.00  0.00     0.048 C 
HETATM   24  C   UNL     1      44.015 -17.814   4.252  1.00  0.00     0.013 A 
HETATM   25  C   UNL     1      43.754 -16.757   5.127  1.00  0.00    -0.059 A 
HETATM   26  C   UNL     1      42.666 -15.915   4.869  1.00  0.00     0.036 A 
HETATM   27  C   UNL     1      44.665 -16.497   6.292  1.00  0.00     0.048 C 
ENDBRANCH  17  20
ENDBRANCH  15  16
ENDBRANCH   1  15
TORSDOF 3
ENDMDL
MODEL 3
REMARK VINA RESULT:      -7.8      1.856      6.878
REMARK  3 active torsions:
REMARK  status: ('A' for Active; 'I' for Inactive)
REMARK    1  A    between atoms: C_4  and  N_5 
REMARK       I    between atoms: N_5  and  C_6 
REMARK    2  A    between atoms: C_6  and  C_7 
REMARK    3  A    between atoms: C_7  and  C_8 
ROOT
HETATM    1  C   UNL     1      40.908 -15.477   3.162  1.00  0.00     0.286 C 
HETATM    2  N   UNL     1      41.892 -16.284   2.315  1.00  0.00    -0.056 N 
HETATM    3  H   UNL     1      41.374 -16.581   1.462  1.00  0.00     0.278 HD
HETATM    4  H   UNL     1      42.661 -15.686   1.989  1.00  0.00     0.278 HD
HETATM    5  C   UNL     1      42.396 -17.468   3.082  1.00  0.00     0.209 C 
HETATM    6  C   UNL     1      43.148 -16.947   4.329  1.00  0.00     0.115 C 
HETATM    7  N   UNL     1      42.346 -16.011   5.115  1.00  0.00    -0.353 N 
HETATM    8  C   UNL     1      41.522 -15.075   4.521  1.00  0.00     0.249 C 
HETATM    9  O   UNL     1      41.247 -14.032   5.100  1.00  0.00    -0.271 OA
HETATM   10  C   UNL     1      43.305 -18.324   2.212  1.00  0.00     0.035 C 
HETATM   11  C   UNL     1      43.832 -19.508   3.025  1.00  0.00     0.002 C 
HETATM   12  C   UNL     1      44.513 -19.066   4.323  1.00  0.00     0.002 C 
HETATM   13  C   UNL     1      43.637 -18.132   5.163  1.00  0.00     0.027 C 
HETATM   14  H   UNL     1      42.736 -15.677   5.995  1.00  0.00     0.163 HD
ENDROOT
BRANCH   1  15
HETATM   15  C   UNL     1      40.369 -14.269   2.389  1.00  0.00     0.146 C 
BRANCH  15  16
HETATM   16  C   UNL     1      41.461 -13.692   1.525  1.00  0.00     0.224 C 
HETATM   17  N   UNL     1      41.260 -13.323   0.237  1.00  0.00    -0.327 N 
HETATM   18  H   UNL     1      42.133 -13.097  -0.234  1.00  0.00     0.169 HD
HETATM   19  O   UNL     1      42.594 -13.565   2.014  1.00  0.00    -0.273 OA
BRANCH  17  20
HETATM   20  C   UNL     1      40.114 -13.238  -0.576  1.00  0.00     0.035 A 
HETATM   21  C   UNL     1      39.790 -14.126  -1.601  1.00  0.00     0.036 A 
HETATM   22  C   UNL     1      38.619 -13.951  -2.360  1.00  0.00    -0.059 A 
HETATM   23  C   UNL     1      38.251 -14.937  -3.431  1.00  0.00     0.048 C 
HETATM   24  C   UNL     1      37.757 -12.891  -2.061  1.00  0.00     0.013 A 
HETATM   25  C   UNL     1      38.059 -11.997  -1.031  1.00  0.00    -0.059 A 
HETATM   26  C   UNL     1      39.226 -12.193  -0.282  1.00  0.00     0.036 A 
HETATM   27  C   UNL     1      37.114 -10.879  -0.698  1.00  0.00     0.048 C 
ENDBRANCH  17  20
ENDBRANCH  15  16
ENDBRANCH   1  15
TORSDOF 3
ENDMDL
MODEL 4
REMARK VINA RESULT:      -7.8      3.364      6.091
REMARK  3 active torsions:
REMARK  status: ('A' for Active; 'I' for Inactive)
REMARK    1  A    between atoms: C_4  and  N_5 
REMARK       I    between atoms: N_5  and  C_6 
REMARK    2  A    between atoms: C_6  and  C_7 
REMARK    3  A    between atoms: C_7  and  C_8 
ROOT
HETATM    1  C   UNL     1      41.968 -12.929   5.448  1.00  0.00     0.286 C 
HETATM    2  N   UNL     1      43.407 -12.457   5.242  1.00  0.00    -0.056 N 
HETATM    3  H   UNL     1      43.958 -13.298   4.968  1.00  0.00     0.278 HD
HETATM    4  H   UNL     1      43.463 -11.807   4.448  1.00  0.00     0.278 HD
HETATM    5  C   UNL     1      43.944 -11.844   6.499  1.00  0.00     0.209 C 
HETATM    6  C   UNL     1      43.077 -10.610   6.840  1.00  0.00     0.115 C 
HETATM    7  N   UNL     1      41.649 -10.924   6.879  1.00  0.00    -0.353 N 
HETATM    8  C   UNL     1      41.066 -11.792   5.977  1.00  0.00     0.249 C 
HETATM    9  O   UNL     1      39.879 -11.691   5.695  1.00  0.00    -0.271 OA
HETATM   10  C   UNL     1      45.406 -11.455   6.326  1.00  0.00     0.035 C 
HETATM   11  C   UNL     1      45.923 -10.804   7.610  1.00  0.00     0.002 C 
HETATM   12  C   UNL     1      45.053  -9.624   8.055  1.00  0.00     0.002 C 
HETATM   13  C   UNL     1      43.567  -9.985   8.147  1.00  0.00     0.027 C 
HETATM   14  H   UNL     1      41.011 -10.185   7.170  1.00  0.00     0.163 HD
ENDROOT
BRANCH   1  15
HETATM   15  C   UNL     1      41.405 -13.574   4.178  1.00  0.00     0.146 C 
BRANCH  15  16
HETATM   16  C   UNL     1      42.433 -13.502   3.077  1.00  0.00     0.224 C 
HETATM   17  N   UNL     1      43.250 -14.538   2.766  1.00  0.00    -0.327 N 
HETATM   18  H   UNL     1      43.974 -14.266   2.106  1.00  0.00     0.169 HD
HETATM   19  O   UNL     1      42.542 -12.443   2.441  1.00  0.00    -0.273 OA
BRANCH  17  20
HETATM   20  C   UNL     1      43.323 -15.874   3.204  1.00  0.00     0.035 A 
HETATM   21  C   UNL     1      43.260 -16.995   2.377  1.00  0.00     0.036 A 
HETATM   22  C   UNL     1      43.339 -18.291   2.915  1.00  0.00    -0.059 A 
HETATM   23  C   UNL     1      43.317 -19.492   2.015  1.00  0.00     0.048 C 
HETATM   24  C   UNL     1      43.513 -18.454   4.294  1.00  0.00     0.013 A 
HETATM   25  C   UNL     1      43.591 -17.344   5.138  1.00  0.00    -0.059 A 
HETATM   26  C   UNL     1      43.517 -16.062   4.581  1.00  0.00     0.036 A 
HETATM   27  C   UNL     1      43.808 -17.528   6.612  1.00  0.00     0.048 C 
ENDBRANCH  17  20
ENDBRANCH  15  16
ENDBRANCH   1  15
TORSDOF 3
ENDMDL
MODEL 5
REMARK VINA RESULT:      -7.7      3.919      6.774
REMARK  3 active torsions:
REMARK  status: ('A' for Active; 'I' for Inactive)
REMARK    1  A    between atoms: C_4  and  N_5 
REMARK       I    between atoms: N_5  and  C_6 
REMARK    2  A    between atoms: C_6  and  C_7 
REMARK    3  A    between atoms: C_7  and  C_8 
ROOT
HETATM    1  C   UNL     1      42.060 -11.198   5.316  1.00  0.00     0.286 C 
HETATM    2  N   UNL     1      42.009 -11.005   6.831  1.00  0.00    -0.056 N 
HETATM    3  H   UNL     1      41.151 -10.449   7.030  1.00  0.00     0.278 HD
HETATM    4  H   UNL     1      41.881 -11.907   7.305  1.00  0.00     0.278 HD
HETATM    5  C   UNL     1      43.238 -10.295   7.311  1.00  0.00     0.209 C 
HETATM    6  C   UNL     1      44.463 -11.178   6.979  1.00  0.00     0.115 C 
HETATM    7  N   UNL     1      44.501 -11.575   5.572  1.00  0.00    -0.353 N 
HETATM    8  C   UNL     1      43.357 -11.911   4.875  1.00  0.00     0.249 C 
HETATM    9  O   UNL     1      43.414 -12.671   3.916  1.00  0.00    -0.271 OA
HETATM   10  C   UNL     1      43.150 -10.020   8.806  1.00  0.00     0.035 C 
HETATM   11  C   UNL     1      44.428  -9.324   9.279  1.00  0.00     0.002 C 
HETATM   12  C   UNL     1      45.690 -10.105   8.901  1.00  0.00     0.002 C 
HETATM   13  C   UNL     1      45.743 -10.462   7.413  1.00  0.00     0.027 C 
HETATM   14  H   UNL     1      45.316 -12.095   5.250  1.00  0.00     0.163 HD
ENDROOT
BRANCH   1  15
HETATM   15  C   UNL     1      40.804 -11.909   4.802  1.00  0.00     0.146 C 
BRANCH  15  16
HETATM   16  C   UNL     1      40.175 -12.698   5.923  1.00  0.00     0.224 C 
HETATM   17  N   UNL     1      40.426 -14.014   6.125  1.00  0.00    -0.327 N 
HETATM   18  H   UNL     1      39.809 -14.415   6.827  1.00  0.00     0.169 HD
HETATM   19  O   UNL     1      39.384 -12.117   6.680  1.00  0.00    -0.273 OA
BRANCH  17  20
HETATM   20  C   UNL     1      41.320 -14.928   5.535  1.00  0.00     0.035 A 
HETATM   21  C   UNL     1      41.135 -15.549   4.300  1.00  0.00     0.036 A 
HETATM   22  C   UNL     1      42.088 -16.453   3.800  1.00  0.00    -0.059 A 
HETATM   23  C   UNL     1      41.906 -17.081   2.449  1.00  0.00     0.048 C 
HETATM   24  C   UNL     1      43.248 -16.708   4.539  1.00  0.00     0.013 A 
HETATM   25  C   UNL     1      43.458 -16.088   5.773  1.00  0.00    -0.059 A 
HETATM   26  C   UNL     1      42.500 -15.185   6.250  1.00  0.00     0.036 A 
HETATM   27  C   UNL     1      44.719 -16.346   6.545  1.00  0.00     0.048 C 
ENDBRANCH  17  20
ENDBRANCH  15  16
ENDBRANCH   1  15
TORSDOF 3
ENDMDL
MODEL 6
REMARK VINA RESULT:      -7.7      2.539      3.842
REMARK  3 active torsions:
REMARK  status: ('A' for Active; 'I' for Inactive)
REMARK    1  A    between atoms: C_4  and  N_5 
REMARK       I    between atoms: N_5  and  C_6 
REMARK    2  A    between atoms: C_6  and  C_7 
REMARK    3  A    between atoms: C_7  and  C_8 
ROOT
HETATM    1  C   UNL     1      40.947 -15.010   5.201  1.00  0.00     0.286 C 
HETATM    2  N   UNL     1      40.529 -15.750   3.931  1.00  0.00    -0.056 N 
HETATM    3  H   UNL     1      41.199 -16.540   3.815  1.00  0.00     0.278 HD
HETATM    4  H   UNL     1      39.602 -16.176   4.051  1.00  0.00     0.278 HD
HETATM    5  C   UNL     1      40.568 -14.829   2.750  1.00  0.00     0.209 C 
HETATM    6  C   UNL     1      39.555 -13.688   2.997  1.00  0.00     0.115 C 
HETATM    7  N   UNL     1      39.757 -13.030   4.287  1.00  0.00    -0.353 N 
HETATM    8  C   UNL     1      40.100 -13.737   5.423  1.00  0.00     0.249 C 
HETATM    9  O   UNL     1      39.807 -13.311   6.533  1.00  0.00    -0.271 OA
HETATM   10  C   UNL     1      40.241 -15.584   1.469  1.00  0.00     0.035 C 
HETATM   11  C   UNL     1      40.256 -14.619   0.283  1.00  0.00     0.002 C 
HETATM   12  C   UNL     1      39.337 -13.413   0.501  1.00  0.00     0.002 C 
HETATM   13  C   UNL     1      39.601 -12.700   1.831  1.00  0.00     0.027 C 
HETATM   14  H   UNL     1      39.182 -12.217   4.499  1.00  0.00     0.163 HD
ENDROOT
BRANCH   1  15
HETATM   15  C   UNL     1      40.929 -15.939   6.420  1.00  0.00     0.146 C 
BRANCH  15  16
HETATM   16  C   UNL     1      42.290 -15.949   7.067  1.00  0.00     0.224 C 
HETATM   17  N   UNL     1      43.309 -16.725   6.622  1.00  0.00    -0.327 N 
HETATM   18  H   UNL     1      44.100 -16.717   7.261  1.00  0.00     0.169 HD
HETATM   19  O   UNL     1      42.477 -15.228   8.058  1.00  0.00    -0.273 OA
BRANCH  17  20
HETATM   20  C   UNL     1      43.468 -17.559   5.499  1.00  0.00     0.035 A 
HETATM   21  C   UNL     1      43.388 -17.141   4.171  1.00  0.00     0.036 A 
HETATM   22  C   UNL     1      43.558 -18.057   3.118  1.00  0.00    -0.059 A 
HETATM   23  C   UNL     1      43.518 -17.593   1.691  1.00  0.00     0.048 C 
HETATM   24  C   UNL     1      43.839 -19.396   3.409  1.00  0.00     0.013 A 
HETATM   25  C   UNL     1      43.934 -19.832   4.733  1.00  0.00    -0.059 A 
HETATM   26  C   UNL     1      43.769 -18.903   5.767  1.00  0.00     0.036 A 
HETATM   27  C   UNL     1      44.266 -21.265   5.036  1.00  0.00     0.048 C 
ENDBRANCH  17  20
ENDBRANCH  15  16
ENDBRANCH   1  15
TORSDOF 3
ENDMDL
MODEL 7
REMARK VINA RESULT:      -7.7      2.834      5.055
REMARK  3 active torsions:
REMARK  status: ('A' for Active; 'I' for Inactive)
REMARK    1  A    between atoms: C_4  and  N_5 
REMARK       I    between atoms: N_5  and  C_6 
REMARK    2  A    between atoms: C_6  and  C_7 
REMARK    3  A    between atoms: C_7  and  C_8 
ROOT
HETATM    1  C   UNL     1      40.328 -13.928   4.120  1.00  0.00     0.286 C 
HETATM    2  N   UNL     1      39.352 -12.816   3.736  1.00  0.00    -0.056 N 
HETATM    3  H   UNL     1      39.450 -12.678   2.708  1.00  0.00     0.278 HD
HETATM    4  H   UNL     1      38.383 -13.118   3.893  1.00  0.00     0.278 HD
HETATM    5  C   UNL     1      39.670 -11.558   4.484  1.00  0.00     0.209 C 
HETATM    6  C   UNL     1      39.505 -11.843   5.995  1.00  0.00     0.115 C 
HETATM    7  N   UNL     1      40.264 -13.015   6.429  1.00  0.00    -0.353 N 
HETATM    8  C   UNL     1      40.367 -14.150   5.648  1.00  0.00     0.249 C 
HETATM    9  O   UNL     1      40.561 -15.244   6.163  1.00  0.00    -0.271 OA
HETATM   10  C   UNL     1      38.758 -10.423   4.038  1.00  0.00     0.035 C 
HETATM   11  C   UNL     1      39.080  -9.158   4.837  1.00  0.00     0.002 C 
HETATM   12  C   UNL     1      39.022  -9.394   6.349  1.00  0.00     0.002 C 
HETATM   13  C   UNL     1      39.868 -10.590   6.795  1.00  0.00     0.027 C 
HETATM   14  H   UNL     1      40.274 -13.230   7.424  1.00  0.00     0.163 HD
ENDROOT
BRANCH   1  15
HETATM   15  C   UNL     1      40.030 -15.221   3.354  1.00  0.00     0.146 C 
BRANCH  15  16
HETATM   16  C   UNL     1      40.763 -15.208   2.036  1.00  0.00     0.224 C 
HETATM   17  N   UNL     1      41.950 -15.836   1.851  1.00  0.00    -0.327 N 
HETATM   18  H   UNL     1      42.368 -15.600   0.954  1.00  0.00     0.169 HD
HETATM   19  O   UNL     1      40.262 -14.584   1.090  1.00  0.00    -0.273 OA
BRANCH  17  20
HETATM   20  C   UNL     1      42.725 -16.693   2.655  1.00  0.00     0.035 A 
HETATM   21  C   UNL     1      43.296 -16.346   3.879  1.00  0.00     0.036 A 
HETATM   22  C   UNL     1      44.059 -17.276   4.605  1.00  0.00    -0.059 A 
HETATM   23  C   UNL     1      44.632 -16.912   5.945  1.00  0.00     0.048 C 
HETATM   24  C   UNL     1      44.221 -18.573   4.106  1.00  0.00     0.013 A 
HETATM   25  C   UNL     1      43.648 -18.944   2.888  1.00  0.00    -0.059 A 
HETATM   26  C   UNL     1      42.885 -18.004   2.184  1.00  0.00     0.036 A 
HETATM   27  C   UNL     1      43.801 -20.346   2.374  1.00  0.00     0.048 C 
ENDBRANCH  17  20
ENDBRANCH  15  16
ENDBRANCH   1  15
TORSDOF 3
ENDMDL
MODEL 8
REMARK VINA RESULT:      -7.7      1.800      6.911
REMARK  3 active torsions:
REMARK  status: ('A' for Active; 'I' for Inactive)
REMARK    1  A    between atoms: C_4  and  N_5 
REMARK       I    between atoms: N_5  and  C_6 
REMARK    2  A    between atoms: C_6  and  C_7 
REMARK    3  A    between atoms: C_7  and  C_8 
ROOT
HETATM    1  C   UNL     1      40.597 -15.021   3.341  1.00  0.00     0.286 C 
HETATM    2  N   UNL     1      41.681 -15.665   2.476  1.00  0.00    -0.056 N 
HETATM    3  H   UNL     1      41.237 -15.886   1.560  1.00  0.00     0.278 HD
HETATM    4  H   UNL     1      42.429 -14.991   2.277  1.00  0.00     0.278 HD
HETATM    5  C   UNL     1      42.209 -16.903   3.133  1.00  0.00     0.209 C 
HETATM    6  C   UNL     1      42.847 -16.496   4.482  1.00  0.00     0.115 C 
HETATM    7  N   UNL     1      41.940 -15.707   5.314  1.00  0.00    -0.353 N 
HETATM    8  C   UNL     1      41.098 -14.753   4.777  1.00  0.00     0.249 C 
HETATM    9  O   UNL     1      40.722 -13.804   5.453  1.00  0.00    -0.271 OA
HETATM   10  C   UNL     1      43.223 -17.597   2.235  1.00  0.00     0.035 C 
HETATM   11  C   UNL     1      43.772 -18.839   2.939  1.00  0.00     0.002 C 
HETATM   12  C   UNL     1      44.341 -18.520   4.325  1.00  0.00     0.002 C 
HETATM   13  C   UNL     1      43.357 -17.743   5.204  1.00  0.00     0.027 C 
HETATM   14  H   UNL     1      42.252 -15.460   6.252  1.00  0.00     0.163 HD
ENDROOT
BRANCH   1  15
HETATM   15  C   UNL     1      40.031 -13.761   2.678  1.00  0.00     0.146 C 
BRANCH  15  16
HETATM   16  C   UNL     1      41.115 -13.079   1.882  1.00  0.00     0.224 C 
HETATM   17  N   UNL     1      40.958 -12.724   0.583  1.00  0.00    -0.327 N 
HETATM   18  H   UNL     1      41.832 -12.414   0.166  1.00  0.00     0.169 HD
HETATM   19  O   UNL     1      42.198 -12.848   2.438  1.00  0.00    -0.273 OA
BRANCH  17  20
HETATM   20  C   UNL     1      39.859 -12.744  -0.298  1.00  0.00     0.035 A 
HETATM   21  C   UNL     1      38.920 -11.722  -0.433  1.00  0.00     0.036 A 
HETATM   22  C   UNL     1      37.854 -11.842  -1.341  1.00  0.00    -0.059 A 
HETATM   23  C   UNL     1      36.873 -10.719  -1.516  1.00  0.00     0.048 C 
HETATM   24  C   UNL     1      37.754 -12.987  -2.138  1.00  0.00     0.013 A 
HETATM   25  C   UNL     1      38.691 -14.017  -2.026  1.00  0.00    -0.059 A 
HETATM   26  C   UNL     1      39.750 -13.875  -1.120  1.00  0.00     0.036 A 
HETATM   27  C   UNL     1      38.593 -15.229  -2.906  1.00  0.00     0.048 C 
ENDBRANCH  17  20
ENDBRANCH  15  16
ENDBRANCH   1  15
TORSDOF 3
ENDMDL
MODEL 9
REMARK VINA RESULT:      -7.6      2.556      6.504
REMARK  3 active torsions:
REMARK  status: ('A' for Active; 'I' for Inactive)
REMARK    1  A    between atoms: C_4  and  N_5 
REMARK       I    between atoms: N_5  and  C_6 
REMARK    2  A    between atoms: C_6  and  C_7 
REMARK    3  A    between atoms: C_7  and  C_8 
ROOT
HETATM    1  C   UNL     1      42.347 -16.634   5.221  1.00  0.00     0.286 C 
HETATM    2  N   UNL     1      42.814 -16.958   3.801  1.00  0.00    -0.056 N 
HETATM    3  H   UNL     1      42.122 -16.522   3.156  1.00  0.00     0.278 HD
HETATM    4  H   UNL     1      43.714 -16.503   3.606  1.00  0.00     0.278 HD
HETATM    5  C   UNL     1      42.886 -18.440   3.598  1.00  0.00     0.209 C 
HETATM    6  C   UNL     1      43.926 -19.011   4.589  1.00  0.00     0.115 C 
HETATM    7  N   UNL     1      43.669 -18.599   5.968  1.00  0.00    -0.353 N 
HETATM    8  C   UNL     1      43.228 -17.329   6.282  1.00  0.00     0.249 C 
HETATM    9  O   UNL     1      43.467 -16.841   7.379  1.00  0.00    -0.271 OA
HETATM   10  C   UNL     1      43.262 -18.767   2.159  1.00  0.00     0.035 C 
HETATM   11  C   UNL     1      43.360 -20.284   1.983  1.00  0.00     0.002 C 
HETATM   12  C   UNL     1      44.311 -20.927   2.997  1.00  0.00     0.002 C 
HETATM   13  C   UNL     1      43.992 -20.532   4.442  1.00  0.00     0.027 C 
HETATM   14  H   UNL     1      44.262 -18.992   6.697  1.00  0.00     0.163 HD
ENDROOT
BRANCH   1  15
HETATM   15  C   UNL     1      42.252 -15.122   5.445  1.00  0.00     0.146 C 
BRANCH  15  16
HETATM   16  C   UNL     1      40.811 -14.733   5.662  1.00  0.00     0.224 C 
HETATM   17  N   UNL     1      40.076 -14.087   4.724  1.00  0.00    -0.327 N 
HETATM   18  H   UNL     1      39.181 -13.774   5.092  1.00  0.00     0.169 HD
HETATM   19  O   UNL     1      40.286 -15.004   6.751  1.00  0.00    -0.273 OA
BRANCH  17  20
HETATM   20  C   UNL     1      40.320 -13.728   3.384  1.00  0.00     0.035 A 
HETATM   21  C   UNL     1      39.991 -14.503   2.273  1.00  0.00     0.036 A 
HETATM   22  C   UNL     1      40.282 -14.055   0.973  1.00  0.00    -0.059 A 
HETATM   23  C   UNL     1      39.882 -14.872  -0.222  1.00  0.00     0.048 C 
HETATM   24  C   UNL     1      40.882 -12.804   0.794  1.00  0.00     0.013 A 
HETATM   25  C   UNL     1      41.209 -12.007   1.894  1.00  0.00    -0.059 A 
HETATM   26  C   UNL     1      40.904 -12.469   3.180  1.00  0.00     0.036 A 
HETATM   27  C   UNL     1      41.826 -10.654   1.692  1.00  0.00     0.048 C 
ENDBRANCH  17  20
ENDBRANCH  15  16
ENDBRANCH   1  15
TORSDOF 3
ENDMDL
MODEL 10
REMARK VINA RESULT:      -7.6      2.422      6.447
REMARK  3 active torsions:
REMARK  status: ('A' for Active; 'I' for Inactive)
REMARK    1  A    between atoms: C_4  and  N_5 
REMARK       I    between atoms: N_5  and  C_6 
REMARK    2  A    between atoms: C_6  and  C_7 
REMARK    3  A    between atoms: C_7  and  C_8 
ROOT
HETATM    1  C   UNL     1      41.921 -15.033   5.306  1.00  0.00     0.286 C 
HETATM    2  N   UNL     1      42.257 -15.429   3.868  1.00  0.00    -0.056 N 
HETATM    3  H   UNL     1      41.427 -15.177   3.290  1.00  0.00     0.278 HD
HETATM    4  H   UNL     1      43.036 -14.863   3.512  1.00  0.00     0.278 HD
HETATM    5  C   UNL     1      42.550 -16.895   3.782  1.00  0.00     0.209 C 
HETATM    6  C   UNL     1      43.786 -17.190   4.664  1.00  0.00     0.115 C 
HETATM    7  N   UNL     1      43.635 -16.680   6.026  1.00  0.00    -0.353 N 
HETATM    8  C   UNL     1      43.029 -15.467   6.290  1.00  0.00     0.249 C 
HETATM    9  O   UNL     1      43.317 -14.834   7.298  1.00  0.00    -0.271 OA
HETATM   10  C   UNL     1      42.796 -17.310   2.338  1.00  0.00     0.035 C 
HETATM   11  C   UNL     1      43.125 -18.804   2.279  1.00  0.00     0.002 C 
HETATM   12  C   UNL     1      44.287 -19.181   3.202  1.00  0.00     0.002 C 
HETATM   13  C   UNL     1      44.087 -18.689   4.638  1.00  0.00     0.027 C 
HETATM   14  H   UNL     1      44.371 -16.897   6.696  1.00  0.00     0.163 HD
ENDROOT
BRANCH   1  15
HETATM   15  C   UNL     1      41.602 -13.539   5.412  1.00  0.00     0.146 C 
BRANCH  15  16
HETATM   16  C   UNL     1      40.112 -13.348   5.548  1.00  0.00     0.224 C 
HETATM   17  N   UNL     1      39.332 -12.912   4.529  1.00  0.00    -0.327 N 
HETATM   18  H   UNL     1      38.386 -12.701   4.839  1.00  0.00     0.169 HD
HETATM   19  O   UNL     1      39.585 -13.588   6.645  1.00  0.00    -0.273 OA
BRANCH  17  20
HETATM   20  C   UNL     1      39.578 -12.651   3.168  1.00  0.00     0.035 A 
HETATM   21  C   UNL     1      39.756 -11.385   2.613  1.00  0.00     0.036 A 
HETATM   22  C   UNL     1      39.993 -11.231   1.236  1.00  0.00    -0.059 A 
HETATM   23  C   UNL     1      40.231  -9.868   0.651  1.00  0.00     0.048 C 
HETATM   24  C   UNL     1      40.080 -12.365   0.421  1.00  0.00     0.013 A 
HETATM   25  C   UNL     1      39.916 -13.643   0.961  1.00  0.00    -0.059 A 
HETATM   26  C   UNL     1      39.689 -13.775   2.336  1.00  0.00     0.036 A 
HETATM   27  C   UNL     1      40.041 -14.856   0.085  1.00  0.00     0.048 C 
ENDBRANCH  17  20
ENDBRANCH  15  16
ENDBRANCH   1  15
TORSDOF 3
ENDMDL
