MODEL 1
REMARK VINA RESULT:      -8.6      0.000      0.000
REMARK  8 active torsions:
REMARK  status: ('A' for Active; 'I' for Inactive)
REMARK    1  A    between atoms: C_2  and  C_3 
REMARK    2  A    between atoms: C_3  and  C_4 
REMARK       I    between atoms: C_4  and  N_5 
REMARK    3  A    between atoms: N_8  and  C_9 
REMARK    4  A    between atoms: C_13  and  N_14 
REMARK    5  A    between atoms: N_14  and  C_15 
REMARK    6  A    between atoms: C_15  and  N_16 
REMARK       I    between atoms: N_16  and  C_17 
REMARK    7  A    between atoms: C_17  and  C_18 
REMARK    8  A    between atoms: C_19  and  O_20 
ROOT
HETATM    1  C   UNL     1      41.536 -12.220   5.856  1.00  0.00     0.052 A 
HETATM    2  C   UNL     1      41.906 -13.583   5.972  1.00  0.00     0.062 A 
HETATM    3 CL   UNL     1      43.176 -14.106   7.037  1.00  0.00    -0.082 Cl
HETATM    4  C   UNL     1      41.339 -14.577   5.153  1.00  0.00     0.055 A 
HETATM    5  C   UNL     1      40.445 -14.226   4.146  1.00  0.00     0.036 A 
HETATM    6  C   UNL     1      40.028 -12.902   4.049  1.00  0.00     0.032 A 
HETATM    7  C   UNL     1      40.557 -11.922   4.894  1.00  0.00     0.033 A 
ENDROOT
BRANCH   5   8
HETATM    8  N   UNL     1      39.964 -15.228   3.281  1.00  0.00    -0.333 N 
HETATM    9  H   UNL     1      39.253 -15.859   3.653  1.00  0.00     0.168 HD
BRANCH   8  10
HETATM   10  C   UNL     1      40.497 -15.639   2.080  1.00  0.00     0.179 C 
HETATM   11  S   UNL     1      40.293 -14.952   0.565  1.00  0.00    -0.040 SA
BRANCH  10  12
HETATM   12  N   UNL     1      41.311 -16.748   2.141  1.00  0.00    -0.299 N 
HETATM   13  C   UNL     1      42.666 -16.822   2.417  1.00  0.00     0.260 C 
HETATM   14  O   UNL     1      43.440 -15.893   2.198  1.00  0.00    -0.267 OA
HETATM   15  H   UNL     1      40.788 -17.614   2.206  1.00  0.00     0.171 HD
BRANCH  13  16
HETATM   16  C   UNL     1      43.168 -18.130   2.959  1.00  0.00     0.065 A 
HETATM   17  C   UNL     1      43.696 -18.301   4.255  1.00  0.00     0.084 A 
HETATM   18  C   UNL     1      44.150 -19.561   4.668  1.00  0.00     0.038 A 
HETATM   19  C   UNL     1      44.128 -20.640   3.787  1.00  0.00     0.003 A 
HETATM   20  C   UNL     1      43.634 -20.476   2.497  1.00  0.00     0.001 A 
HETATM   21  C   UNL     1      43.154 -19.231   2.086  1.00  0.00     0.020 A 
BRANCH  17  22
HETATM   22  O   UNL     1      43.690 -17.248   5.137  1.00  0.00    -0.355 OA
HETATM   23  C   UNL     1      43.467 -17.643   6.494  1.00  0.00     0.210 C 
ENDBRANCH  17  22
ENDBRANCH  13  16
ENDBRANCH  10  12
ENDBRANCH   8  10
ENDBRANCH   5   8
BRANCH   1  24
HETATM   24  N   UNL     1      42.154 -11.201   6.597  1.00  0.00    -0.376 N 
HETATM   25  C   UNL     1      41.320 -10.027   6.928  1.00  0.00     0.143 C 
HETATM   26  C   UNL     1      41.947  -9.271   8.119  1.00  0.00     0.145 C 
HETATM   27  N   UNL     1      43.371  -8.948   7.920  1.00  0.00    -0.349 N 
HETATM   28  C   UNL     1      44.051  -7.979   8.655  1.00  0.00     0.219 C 
HETATM   29  C   UNL     1      44.192 -10.036   7.373  1.00  0.00     0.145 C 
HETATM   30  O   UNL     1      45.276  -7.864   8.597  1.00  0.00    -0.273 OA
HETATM   31  C   UNL     1      43.527 -10.799   6.221  1.00  0.00     0.143 C 
BRANCH  28  32
HETATM   32  C   UNL     1      43.213  -7.064   9.534  1.00  0.00     0.103 C 
BRANCH  32  33
HETATM   33  C   UNL     1      43.111  -7.590  10.967  1.00  0.00     0.005 C 
HETATM   34  C   UNL     1      41.676  -7.586  11.467  1.00  0.00     0.005 C 
ENDBRANCH  32  33
ENDBRANCH  28  32
ENDBRANCH   1  24
TORSDOF 8
ENDMDL
MODEL 2
REMARK VINA RESULT:      -8.3      3.005     10.402
REMARK  8 active torsions:
REMARK  status: ('A' for Active; 'I' for Inactive)
REMARK    1  A    between atoms: C_2  and  C_3 
REMARK    2  A    between atoms: C_3  and  C_4 
REMARK       I    between atoms: C_4  and  N_5 
REMARK    3  A    between atoms: N_8  and  C_9 
REMARK    4  A    between atoms: C_13  and  N_14 
REMARK    5  A    between atoms: N_14  and  C_15 
REMARK    6  A    between atoms: C_15  and  N_16 
REMARK       I    between atoms: N_16  and  C_17 
REMARK    7  A    between atoms: C_17  and  C_18 
REMARK    8  A    between atoms: C_19  and  O_20 
ROOT
HETATM    1  C   UNL     1      42.602 -12.175   6.076  1.00  0.00     0.052 A 
HETATM    2  C   UNL     1      43.589 -11.339   6.653  1.00  0.00     0.062 A 
HETATM    3 CL   UNL     1      45.216 -11.886   6.927  1.00  0.00    -0.082 Cl
HETATM    4  C   UNL     1      43.282 -10.053   7.134  1.00  0.00     0.055 A 
HETATM    5  C   UNL     1      41.966  -9.599   7.122  1.00  0.00     0.036 A 
HETATM    6  C   UNL     1      40.990 -10.381   6.513  1.00  0.00     0.032 A 
HETATM    7  C   UNL     1      41.306 -11.640   5.992  1.00  0.00     0.033 A 
ENDROOT
BRANCH   5   8
HETATM    8  N   UNL     1      41.671  -8.346   7.696  1.00  0.00    -0.333 N 
HETATM    9  H   UNL     1      42.327  -7.586   7.511  1.00  0.00     0.168 HD
BRANCH   8  10
HETATM   10  C   UNL     1      40.754  -8.060   8.681  1.00  0.00     0.179 C 
HETATM   11  S   UNL     1      39.258  -7.320   8.524  1.00  0.00    -0.040 SA
BRANCH  10  12
HETATM   12  N   UNL     1      41.112  -8.445   9.954  1.00  0.00    -0.299 N 
HETATM   13  C   UNL     1      42.290  -8.202  10.641  1.00  0.00     0.260 C 
HETATM   14  O   UNL     1      43.362  -8.008  10.073  1.00  0.00    -0.267 OA
HETATM   15  H   UNL     1      40.319  -8.750  10.508  1.00  0.00     0.171 HD
BRANCH  13  16
HETATM   16  C   UNL     1      42.208  -8.235  12.141  1.00  0.00     0.065 A 
HETATM   17  C   UNL     1      41.372  -9.104  12.870  1.00  0.00     0.084 A 
HETATM   18  C   UNL     1      41.357  -9.053  14.270  1.00  0.00     0.038 A 
HETATM   19  C   UNL     1      42.129  -8.113  14.949  1.00  0.00     0.003 A 
HETATM   20  C   UNL     1      42.937  -7.231  14.237  1.00  0.00     0.001 A 
HETATM   21  C   UNL     1      42.980  -7.294  12.843  1.00  0.00     0.020 A 
BRANCH  17  22
HETATM   22  O   UNL     1      40.634 -10.054  12.208  1.00  0.00    -0.355 OA
HETATM   23  C   UNL     1      39.544 -10.568  12.979  1.00  0.00     0.210 C 
ENDBRANCH  17  22
ENDBRANCH  13  16
ENDBRANCH  10  12
ENDBRANCH   8  10
ENDBRANCH   5   8
BRANCH   1  24
HETATM   24  N   UNL     1      42.866 -13.493   5.673  1.00  0.00    -0.376 N 
HETATM   25  C   UNL     1      42.181 -13.959   4.449  1.00  0.00     0.143 C 
HETATM   26  C   UNL     1      42.929 -15.182   3.876  1.00  0.00     0.145 C 
HETATM   27  N   UNL     1      43.152 -16.247   4.871  1.00  0.00    -0.349 N 
HETATM   28  C   UNL     1      43.462 -17.563   4.534  1.00  0.00     0.219 C 
HETATM   29  C   UNL     1      43.623 -15.790   6.185  1.00  0.00     0.145 C 
HETATM   30  O   UNL     1      43.826 -18.380   5.382  1.00  0.00    -0.273 OA
HETATM   31  C   UNL     1      42.894 -14.547   6.710  1.00  0.00     0.143 C 
BRANCH  28  32
HETATM   32  C   UNL     1      43.328 -17.951   3.070  1.00  0.00     0.103 C 
BRANCH  32  33
HETATM   33  C   UNL     1      44.079 -19.246   2.755  1.00  0.00     0.005 C 
HETATM   34  C   UNL     1      43.216 -20.219   1.970  1.00  0.00     0.005 C 
ENDBRANCH  32  33
ENDBRANCH  28  32
ENDBRANCH   1  24
TORSDOF 8
ENDMDL
MODEL 3
REMARK VINA RESULT:      -8.3      2.321      3.343
REMARK  8 active torsions:
REMARK  status: ('A' for Active; 'I' for Inactive)
REMARK    1  A    between atoms: C_2  and  C_3 
REMARK    2  A    between atoms: C_3  and  C_4 
REMARK       I    between atoms: C_4  and  N_5 
REMARK    3  A    between atoms: N_8  and  C_9 
REMARK    4  A    between atoms: C_13  and  N_14 
REMARK    5  A    between atoms: N_14  and  C_15 
REMARK    6  A    between atoms: C_15  and  N_16 
REMARK       I    between atoms: N_16  and  C_17 
REMARK    7  A    between atoms: C_17  and  C_18 
REMARK    8  A    between atoms: C_19  and  O_20 
ROOT
HETATM    1  C   UNL     1      43.256 -10.055   7.340  1.00  0.00     0.052 A 
HETATM    2  C   UNL     1      44.431 -10.747   6.954  1.00  0.00     0.062 A 
HETATM    3 CL   UNL     1      45.865 -10.748   7.936  1.00  0.00    -0.082 Cl
HETATM    4  C   UNL     1      44.539 -11.383   5.704  1.00  0.00     0.055 A 
HETATM    5  C   UNL     1      43.507 -11.281   4.776  1.00  0.00     0.036 A 
HETATM    6  C   UNL     1      42.324 -10.653   5.154  1.00  0.00     0.032 A 
HETATM    7  C   UNL     1      42.200 -10.061   6.415  1.00  0.00     0.033 A 
ENDROOT
BRANCH   5   8
HETATM    8  N   UNL     1      43.679 -11.848   3.499  1.00  0.00    -0.333 N 
HETATM    9  H   UNL     1      44.255 -11.328   2.835  1.00  0.00     0.168 HD
BRANCH   8  10
HETATM   10  C   UNL     1      42.974 -12.884   2.929  1.00  0.00     0.179 C 
HETATM   11  S   UNL     1      41.683 -12.799   1.862  1.00  0.00    -0.040 SA
BRANCH  10  12
HETATM   12  N   UNL     1      43.397 -14.149   3.273  1.00  0.00    -0.299 N 
HETATM   13  C   UNL     1      42.752 -15.107   4.038  1.00  0.00     0.260 C 
HETATM   14  O   UNL     1      41.925 -14.821   4.901  1.00  0.00    -0.267 OA
HETATM   15  H   UNL     1      44.173 -14.470   2.705  1.00  0.00     0.171 HD
BRANCH  13  16
HETATM   16  C   UNL     1      43.153 -16.535   3.798  1.00  0.00     0.065 A 
HETATM   17  C   UNL     1      43.990 -17.278   4.654  1.00  0.00     0.084 A 
HETATM   18  C   UNL     1      44.316 -18.604   4.339  1.00  0.00     0.038 A 
HETATM   19  C   UNL     1      43.858 -19.180   3.156  1.00  0.00     0.003 A 
HETATM   20  C   UNL     1      43.055 -18.445   2.290  1.00  0.00     0.001 A 
HETATM   21  C   UNL     1      42.700 -17.133   2.609  1.00  0.00     0.020 A 
BRANCH  17  22
HETATM   22  O   UNL     1      44.417 -16.726   5.837  1.00  0.00    -0.355 OA
HETATM   23  C   UNL     1      43.692 -17.194   6.978  1.00  0.00     0.210 C 
ENDBRANCH  17  22
ENDBRANCH  13  16
ENDBRANCH  10  12
ENDBRANCH   8  10
ENDBRANCH   5   8
BRANCH   1  24
HETATM   24  N   UNL     1      43.160  -9.337   8.542  1.00  0.00    -0.376 N 
HETATM   25  C   UNL     1      43.139 -10.134   9.786  1.00  0.00     0.143 C 
HETATM   26  C   UNL     1      43.531  -9.235  10.979  1.00  0.00     0.145 C 
HETATM   27  N   UNL     1      42.739  -7.994  11.058  1.00  0.00    -0.349 N 
HETATM   28  C   UNL     1      42.641  -7.215  12.208  1.00  0.00     0.219 C 
HETATM   29  C   UNL     1      42.548  -7.289   9.784  1.00  0.00     0.145 C 
HETATM   30  O   UNL     1      42.131  -6.093  12.190  1.00  0.00    -0.273 OA
HETATM   31  C   UNL     1      42.204  -8.211   8.606  1.00  0.00     0.143 C 
BRANCH  28  32
HETATM   32  C   UNL     1      43.191  -7.811  13.495  1.00  0.00     0.103 C 
BRANCH  32  33
HETATM   33  C   UNL     1      42.140  -8.647  14.228  1.00  0.00     0.005 C 
HETATM   34  C   UNL     1      41.592  -7.919  15.445  1.00  0.00     0.005 C 
ENDBRANCH  32  33
ENDBRANCH  28  32
ENDBRANCH   1  24
TORSDOF 8
ENDMDL
MODEL 4
REMARK VINA RESULT:      -8.3      1.818      2.045
REMARK  8 active torsions:
REMARK  status: ('A' for Active; 'I' for Inactive)
REMARK    1  A    between atoms: C_2  and  C_3 
REMARK    2  A    between atoms: C_3  and  C_4 
REMARK       I    between atoms: C_4  and  N_5 
REMARK    3  A    between atoms: N_8  and  C_9 
REMARK    4  A    between atoms: C_13  and  N_14 
REMARK    5  A    between atoms: N_14  and  C_15 
REMARK    6  A    between atoms: C_15  and  N_16 
REMARK       I    between atoms: N_16  and  C_17 
REMARK    7  A    between atoms: C_17  and  C_18 
REMARK    8  A    between atoms: C_19  and  O_20 
ROOT
HETATM    1  C   UNL     1      42.475 -11.183   5.344  1.00  0.00     0.052 A 
HETATM    2  C   UNL     1      41.197 -11.719   5.051  1.00  0.00     0.062 A 
HETATM    3 CL   UNL     1      39.972 -11.904   6.270  1.00  0.00    -0.082 Cl
HETATM    4  C   UNL     1      40.882 -12.230   3.778  1.00  0.00     0.055 A 
HETATM    5  C   UNL     1      41.858 -12.290   2.788  1.00  0.00     0.036 A 
HETATM    6  C   UNL     1      43.104 -11.722   3.038  1.00  0.00     0.032 A 
HETATM    7  C   UNL     1      43.401 -11.172   4.288  1.00  0.00     0.033 A 
ENDROOT
BRANCH   5   8
HETATM    8  N   UNL     1      41.543 -12.891   1.554  1.00  0.00    -0.333 N 
HETATM    9  H   UNL     1      41.301 -12.267   0.783  1.00  0.00     0.168 HD
BRANCH   8  10
HETATM   10  C   UNL     1      41.268 -14.216   1.303  1.00  0.00     0.179 C 
HETATM   11  S   UNL     1      40.111 -14.859   0.273  1.00  0.00    -0.040 SA
BRANCH  10  12
HETATM   12  N   UNL     1      42.056 -15.124   1.976  1.00  0.00    -0.299 N 
HETATM   13  C   UNL     1      41.698 -16.029   2.962  1.00  0.00     0.260 C 
HETATM   14  O   UNL     1      40.738 -15.852   3.708  1.00  0.00    -0.267 OA
HETATM   15  H   UNL     1      42.949 -15.278   1.522  1.00  0.00     0.171 HD
BRANCH  13  16
HETATM   16  C   UNL     1      42.580 -17.235   3.114  1.00  0.00     0.065 A 
HETATM   17  C   UNL     1      43.579 -17.367   4.100  1.00  0.00     0.084 A 
HETATM   18  C   UNL     1      44.361 -18.528   4.157  1.00  0.00     0.038 A 
HETATM   19  C   UNL     1      44.192 -19.538   3.211  1.00  0.00     0.003 A 
HETATM   20  C   UNL     1      43.228 -19.405   2.216  1.00  0.00     0.001 A 
HETATM   21  C   UNL     1      42.424 -18.264   2.170  1.00  0.00     0.020 A 
BRANCH  17  22
HETATM   22  O   UNL     1      43.727 -16.389   5.054  1.00  0.00    -0.355 OA
HETATM   23  C   UNL     1      44.035 -16.903   6.353  1.00  0.00     0.210 C 
ENDBRANCH  17  22
ENDBRANCH  13  16
ENDBRANCH  10  12
ENDBRANCH   8  10
ENDBRANCH   5   8
BRANCH   1  24
HETATM   24  N   UNL     1      42.840 -10.753   6.629  1.00  0.00    -0.376 N 
HETATM   25  C   UNL     1      42.319  -9.437   7.056  1.00  0.00     0.143 C 
HETATM   26  C   UNL     1      42.374  -9.339   8.596  1.00  0.00     0.145 C 
HETATM   27  N   UNL     1      43.700  -9.660   9.154  1.00  0.00    -0.349 N 
HETATM   28  C   UNL     1      44.103  -9.300  10.438  1.00  0.00     0.219 C 
HETATM   29  C   UNL     1      44.351 -10.847   8.584  1.00  0.00     0.145 C 
HETATM   30  O   UNL     1      45.137  -9.743  10.941  1.00  0.00    -0.273 OA
HETATM   31  C   UNL     1      44.242 -10.943   7.056  1.00  0.00     0.143 C 
BRANCH  28  32
HETATM   32  C   UNL     1      43.210  -8.329  11.196  1.00  0.00     0.103 C 
BRANCH  32  33
HETATM   33  C   UNL     1      43.209  -8.614  12.698  1.00  0.00     0.005 C 
HETATM   34  C   UNL     1      43.049  -7.340  13.512  1.00  0.00     0.005 C 
ENDBRANCH  32  33
ENDBRANCH  28  32
ENDBRANCH   1  24
TORSDOF 8
ENDMDL
MODEL 5
REMARK VINA RESULT:      -8.2      3.255     10.753
REMARK  8 active torsions:
REMARK  status: ('A' for Active; 'I' for Inactive)
REMARK    1  A    between atoms: C_2  and  C_3 
REMARK    2  A    between atoms: C_3  and  C_4 
REMARK       I    between atoms: C_4  and  N_5 
REMARK    3  A    between atoms: N_8  and  C_9 
REMARK    4  A    between atoms: C_13  and  N_14 
REMARK    5  A    between atoms: N_14  and  C_15 
REMARK    6  A    between atoms: C_15  and  N_16 
REMARK       I    between atoms: N_16  and  C_17 
REMARK    7  A    between atoms: C_17  and  C_18 
REMARK    8  A    between atoms: C_19  and  O_20 
ROOT
HETATM    1  C   UNL     1      43.275 -12.000   6.309  1.00  0.00     0.052 A 
HETATM    2  C   UNL     1      42.274 -11.006   6.438  1.00  0.00     0.062 A 
HETATM    3 CL   UNL     1      40.815 -11.038   5.494  1.00  0.00    -0.082 Cl
HETATM    4  C   UNL     1      42.452  -9.878   7.260  1.00  0.00     0.055 A 
HETATM    5  C   UNL     1      43.663  -9.674   7.914  1.00  0.00     0.036 A 
HETATM    6  C   UNL     1      44.639 -10.663   7.844  1.00  0.00     0.032 A 
HETATM    7  C   UNL     1      44.443 -11.807   7.064  1.00  0.00     0.033 A 
ENDROOT
BRANCH   5   8
HETATM    8  N   UNL     1      43.848  -8.491   8.655  1.00  0.00    -0.333 N 
HETATM    9  H   UNL     1      44.797  -8.285   8.970  1.00  0.00     0.168 HD
BRANCH   8  10
HETATM   10  C   UNL     1      42.886  -7.695   9.235  1.00  0.00     0.179 C 
HETATM   11  S   UNL     1      42.120  -6.352   8.586  1.00  0.00    -0.040 SA
BRANCH  10  12
HETATM   12  N   UNL     1      42.498  -8.063  10.504  1.00  0.00    -0.299 N 
HETATM   13  C   UNL     1      43.271  -8.547  11.547  1.00  0.00     0.260 C 
HETATM   14  O   UNL     1      44.324  -9.153  11.368  1.00  0.00    -0.267 OA
HETATM   15  H   UNL     1      41.574  -7.722  10.745  1.00  0.00     0.171 HD
BRANCH  13  16
HETATM   16  C   UNL     1      42.729  -8.339  12.933  1.00  0.00     0.065 A 
HETATM   17  C   UNL     1      41.692  -9.106  13.502  1.00  0.00     0.084 A 
HETATM   18  C   UNL     1      41.246  -8.830  14.801  1.00  0.00     0.038 A 
HETATM   19  C   UNL     1      41.787  -7.766  15.520  1.00  0.00     0.003 A 
HETATM   20  C   UNL     1      42.791  -6.984  14.956  1.00  0.00     0.001 A 
HETATM   21  C   UNL     1      43.262  -7.271  13.674  1.00  0.00     0.020 A 
BRANCH  17  22
HETATM   22  O   UNL     1      41.178 -10.176  12.811  1.00  0.00    -0.355 OA
HETATM   23  C   UNL     1      39.749 -10.237  12.837  1.00  0.00     0.210 C 
ENDBRANCH  17  22
ENDBRANCH  13  16
ENDBRANCH  10  12
ENDBRANCH   8  10
ENDBRANCH   5   8
BRANCH   1  24
HETATM   24  N   UNL     1      43.157 -13.084   5.426  1.00  0.00    -0.376 N 
HETATM   25  C   UNL     1      43.695 -14.378   5.895  1.00  0.00     0.143 C 
HETATM   26  C   UNL     1      43.063 -15.525   5.076  1.00  0.00     0.145 C 
HETATM   27  N   UNL     1      43.176 -15.330   3.619  1.00  0.00    -0.349 N 
HETATM   28  C   UNL     1      43.025 -16.358   2.691  1.00  0.00     0.219 C 
HETATM   29  C   UNL     1      42.864 -13.978   3.139  1.00  0.00     0.145 C 
HETATM   30  O   UNL     1      42.937 -16.132   1.482  1.00  0.00    -0.273 OA
HETATM   31  C   UNL     1      43.466 -12.858   3.998  1.00  0.00     0.143 C 
BRANCH  28  32
HETATM   32  C   UNL     1      42.974 -17.778   3.234  1.00  0.00     0.103 C 
BRANCH  32  33
HETATM   33  C   UNL     1      43.098 -18.817   2.119  1.00  0.00     0.005 C 
HETATM   34  C   UNL     1      43.562 -20.162   2.653  1.00  0.00     0.005 C 
ENDBRANCH  32  33
ENDBRANCH  28  32
ENDBRANCH   1  24
TORSDOF 8
ENDMDL
MODEL 6
REMARK VINA RESULT:      -8.0      2.971      9.594
REMARK  8 active torsions:
REMARK  status: ('A' for Active; 'I' for Inactive)
REMARK    1  A    between atoms: C_2  and  C_3 
REMARK    2  A    between atoms: C_3  and  C_4 
REMARK       I    between atoms: C_4  and  N_5 
REMARK    3  A    between atoms: N_8  and  C_9 
REMARK    4  A    between atoms: C_13  and  N_14 
REMARK    5  A    between atoms: N_14  and  C_15 
REMARK    6  A    between atoms: C_15  and  N_16 
REMARK       I    between atoms: N_16  and  C_17 
REMARK    7  A    between atoms: C_17  and  C_18 
REMARK    8  A    between atoms: C_19  and  O_20 
ROOT
HETATM    1  C   UNL     1      41.423 -13.293   5.860  1.00  0.00     0.052 A 
HETATM    2  C   UNL     1      42.173 -12.104   6.043  1.00  0.00     0.062 A 
HETATM    3 CL   UNL     1      43.907 -12.117   6.161  1.00  0.00    -0.082 Cl
HETATM    4  C   UNL     1      41.551 -10.859   6.245  1.00  0.00     0.055 A 
HETATM    5  C   UNL     1      40.165 -10.779   6.347  1.00  0.00     0.036 A 
HETATM    6  C   UNL     1      39.407 -11.923   6.118  1.00  0.00     0.032 A 
HETATM    7  C   UNL     1      40.026 -13.152   5.871  1.00  0.00     0.033 A 
ENDROOT
BRANCH   5   8
HETATM    8  N   UNL     1      39.573  -9.536   6.643  1.00  0.00    -0.333 N 
HETATM    9  H   UNL     1      38.631  -9.374   6.285  1.00  0.00     0.168 HD
BRANCH   8  10
HETATM   10  C   UNL     1      40.181  -8.403   7.135  1.00  0.00     0.179 C 
HETATM   11  S   UNL     1      40.615  -7.013   6.303  1.00  0.00    -0.040 SA
BRANCH  10  12
HETATM   12  N   UNL     1      40.452  -8.414   8.485  1.00  0.00    -0.299 N 
HETATM   13  C   UNL     1      39.902  -9.206   9.479  1.00  0.00     0.260 C 
HETATM   14  O   UNL     1      38.777  -9.693   9.395  1.00  0.00    -0.267 OA
HETATM   15  H   UNL     1      41.314  -7.931   8.715  1.00  0.00     0.171 HD
BRANCH  13  16
HETATM   16  C   UNL     1      40.738  -9.408  10.712  1.00  0.00     0.065 A 
HETATM   17  C   UNL     1      42.131  -9.622  10.698  1.00  0.00     0.084 A 
HETATM   18  C   UNL     1      42.824  -9.812  11.901  1.00  0.00     0.038 A 
HETATM   19  C   UNL     1      42.136  -9.840  13.113  1.00  0.00     0.003 A 
HETATM   20  C   UNL     1      40.757  -9.658  13.134  1.00  0.00     0.001 A 
HETATM   21  C   UNL     1      40.062  -9.440  11.943  1.00  0.00     0.020 A 
BRANCH  17  22
HETATM   22  O   UNL     1      42.818  -9.563   9.510  1.00  0.00    -0.355 OA
HETATM   23  C   UNL     1      43.960 -10.423   9.469  1.00  0.00     0.210 C 
ENDBRANCH  17  22
ENDBRANCH  13  16
ENDBRANCH  10  12
ENDBRANCH   8  10
ENDBRANCH   5   8
BRANCH   1  24
HETATM   24  N   UNL     1      42.022 -14.556   5.748  1.00  0.00    -0.376 N 
HETATM   25  C   UNL     1      42.277 -15.046   4.377  1.00  0.00     0.143 C 
HETATM   26  C   UNL     1      43.349 -16.157   4.420  1.00  0.00     0.145 C 
HETATM   27  N   UNL     1      43.039 -17.229   5.383  1.00  0.00    -0.349 N 
HETATM   28  C   UNL     1      43.633 -18.489   5.351  1.00  0.00     0.219 C 
HETATM   29  C   UNL     1      42.561 -16.776   6.696  1.00  0.00     0.145 C 
HETATM   30  O   UNL     1      43.496 -19.294   6.274  1.00  0.00    -0.273 OA
HETATM   31  C   UNL     1      41.531 -15.641   6.626  1.00  0.00     0.143 C 
BRANCH  28  32
HETATM   32  C   UNL     1      44.460 -18.831   4.121  1.00  0.00     0.103 C 
BRANCH  32  33
HETATM   33  C   UNL     1      43.956 -20.101   3.434  1.00  0.00     0.005 C 
HETATM   34  C   UNL     1      43.248 -19.789   2.126  1.00  0.00     0.005 C 
ENDBRANCH  32  33
ENDBRANCH  28  32
ENDBRANCH   1  24
TORSDOF 8
ENDMDL
MODEL 7
REMARK VINA RESULT:      -7.8      2.949      9.188
REMARK  8 active torsions:
REMARK  status: ('A' for Active; 'I' for Inactive)
REMARK    1  A    between atoms: C_2  and  C_3 
REMARK    2  A    between atoms: C_3  and  C_4 
REMARK       I    between atoms: C_4  and  N_5 
REMARK    3  A    between atoms: N_8  and  C_9 
REMARK    4  A    between atoms: C_13  and  N_14 
REMARK    5  A    between atoms: N_14  and  C_15 
REMARK    6  A    between atoms: C_15  and  N_16 
REMARK       I    between atoms: N_16  and  C_17 
REMARK    7  A    between atoms: C_17  and  C_18 
REMARK    8  A    between atoms: C_19  and  O_20 
ROOT
HETATM    1  C   UNL     1      41.042 -12.279   5.249  1.00  0.00     0.052 A 
HETATM    2  C   UNL     1      41.481 -11.038   4.724  1.00  0.00     0.062 A 
HETATM    3 CL   UNL     1      42.870 -10.915   3.686  1.00  0.00    -0.082 Cl
HETATM    4  C   UNL     1      40.882  -9.821   5.098  1.00  0.00     0.055 A 
HETATM    5  C   UNL     1      39.880  -9.804   6.064  1.00  0.00     0.036 A 
HETATM    6  C   UNL     1      39.398 -11.014   6.553  1.00  0.00     0.032 A 
HETATM    7  C   UNL     1      39.963 -12.226   6.145  1.00  0.00     0.033 A 
ENDROOT
BRANCH   5   8
HETATM    8  N   UNL     1      39.363  -8.565   6.489  1.00  0.00    -0.333 N 
HETATM    9  H   UNL     1      38.808  -8.038   5.812  1.00  0.00     0.168 HD
BRANCH   8  10
HETATM   10  C   UNL     1      39.709  -7.840   7.606  1.00  0.00     0.179 C 
HETATM   11  S   UNL     1      38.784  -6.721   8.445  1.00  0.00    -0.040 SA
BRANCH  10  12
HETATM   12  N   UNL     1      40.971  -8.079   8.101  1.00  0.00    -0.299 N 
HETATM   13  C   UNL     1      41.378  -9.010   9.043  1.00  0.00     0.260 C 
HETATM   14  O   UNL     1      40.627  -9.449   9.911  1.00  0.00    -0.267 OA
HETATM   15  H   UNL     1      41.700  -7.662   7.533  1.00  0.00     0.171 HD
BRANCH  13  16
HETATM   16  C   UNL     1      42.819  -9.432   8.986  1.00  0.00     0.065 A 
HETATM   17  C   UNL     1      43.824  -8.935   9.840  1.00  0.00     0.084 A 
HETATM   18  C   UNL     1      45.145  -9.382   9.704  1.00  0.00     0.038 A 
HETATM   19  C   UNL     1      45.484 -10.282   8.695  1.00  0.00     0.003 A 
HETATM   20  C   UNL     1      44.504 -10.757   7.828  1.00  0.00     0.001 A 
HETATM   21  C   UNL     1      43.180 -10.339   7.975  1.00  0.00     0.020 A 
BRANCH  17  22
HETATM   22  O   UNL     1      43.490  -8.074  10.857  1.00  0.00    -0.355 OA
HETATM   23  C   UNL     1      43.403  -8.709  12.136  1.00  0.00     0.210 C 
ENDBRANCH  17  22
ENDBRANCH  13  16
ENDBRANCH  10  12
ENDBRANCH   8  10
ENDBRANCH   5   8
BRANCH   1  24
HETATM   24  N   UNL     1      41.683 -13.493   4.960  1.00  0.00    -0.376 N 
HETATM   25  C   UNL     1      40.988 -14.398   4.021  1.00  0.00     0.143 C 
HETATM   26  C   UNL     1      42.001 -15.404   3.434  1.00  0.00     0.145 C 
HETATM   27  N   UNL     1      42.787 -16.109   4.463  1.00  0.00    -0.349 N 
HETATM   28  C   UNL     1      43.481 -17.293   4.226  1.00  0.00     0.219 C 
HETATM   29  C   UNL     1      43.308 -15.263   5.545  1.00  0.00     0.145 C 
HETATM   30  O   UNL     1      44.277 -17.754   5.047  1.00  0.00    -0.273 OA
HETATM   31  C   UNL     1      42.295 -14.241   6.079  1.00  0.00     0.143 C 
BRANCH  28  32
HETATM   32  C   UNL     1      43.213 -17.999   2.905  1.00  0.00     0.103 C 
BRANCH  32  33
HETATM   33  C   UNL     1      43.999 -19.306   2.790  1.00  0.00     0.005 C 
HETATM   34  C   UNL     1      43.318 -20.290   1.853  1.00  0.00     0.005 C 
ENDBRANCH  32  33
ENDBRANCH  28  32
ENDBRANCH   1  24
TORSDOF 8
ENDMDL
MODEL 8
REMARK VINA RESULT:      -7.5      2.359      3.146
REMARK  8 active torsions:
REMARK  status: ('A' for Active; 'I' for Inactive)
REMARK    1  A    between atoms: C_2  and  C_3 
REMARK    2  A    between atoms: C_3  and  C_4 
REMARK       I    between atoms: C_4  and  N_5 
REMARK    3  A    between atoms: N_8  and  C_9 
REMARK    4  A    between atoms: C_13  and  N_14 
REMARK    5  A    between atoms: N_14  and  C_15 
REMARK    6  A    between atoms: C_15  and  N_16 
REMARK       I    between atoms: N_16  and  C_17 
REMARK    7  A    between atoms: C_17  and  C_18 
REMARK    8  A    between atoms: C_19  and  O_20 
ROOT
HETATM    1  C   UNL     1      42.550 -10.087   6.742  1.00  0.00     0.052 A 
HETATM    2  C   UNL     1      42.020  -9.729   5.478  1.00  0.00     0.062 A 
HETATM    3 CL   UNL     1      40.983  -8.349   5.271  1.00  0.00    -0.082 Cl
HETATM    4  C   UNL     1      42.215 -10.529   4.338  1.00  0.00     0.055 A 
HETATM    5  C   UNL     1      42.879 -11.748   4.446  1.00  0.00     0.036 A 
HETATM    6  C   UNL     1      43.454 -12.094   5.664  1.00  0.00     0.032 A 
HETATM    7  C   UNL     1      43.300 -11.274   6.786  1.00  0.00     0.033 A 
ENDROOT
BRANCH   5   8
HETATM    8  N   UNL     1      42.979 -12.573   3.309  1.00  0.00    -0.333 N 
HETATM    9  H   UNL     1      43.777 -12.417   2.691  1.00  0.00     0.168 HD
BRANCH   8  10
HETATM   10  C   UNL     1      42.016 -13.397   2.772  1.00  0.00     0.179 C 
HETATM   11  S   UNL     1      40.669 -12.970   1.870  1.00  0.00    -0.040 SA
BRANCH  10  12
HETATM   12  N   UNL     1      42.196 -14.744   2.997  1.00  0.00    -0.299 N 
HETATM   13  C   UNL     1      43.178 -15.588   2.505  1.00  0.00     0.260 C 
HETATM   14  O   UNL     1      43.762 -15.380   1.445  1.00  0.00    -0.267 OA
HETATM   15  H   UNL     1      41.664 -15.082   3.792  1.00  0.00     0.171 HD
BRANCH  13  16
HETATM   16  C   UNL     1      43.469 -16.819   3.316  1.00  0.00     0.065 A 
HETATM   17  C   UNL     1      43.698 -16.816   4.707  1.00  0.00     0.084 A 
HETATM   18  C   UNL     1      43.973 -18.016   5.376  1.00  0.00     0.038 A 
HETATM   19  C   UNL     1      44.070 -19.211   4.666  1.00  0.00     0.003 A 
HETATM   20  C   UNL     1      43.873 -19.221   3.289  1.00  0.00     0.001 A 
HETATM   21  C   UNL     1      43.571 -18.034   2.618  1.00  0.00     0.020 A 
BRANCH  17  22
HETATM   22  O   UNL     1      43.572 -15.646   5.415  1.00  0.00    -0.355 OA
HETATM   23  C   UNL     1      42.746 -15.770   6.578  1.00  0.00     0.210 C 
ENDBRANCH  17  22
ENDBRANCH  13  16
ENDBRANCH  10  12
ENDBRANCH   8  10
ENDBRANCH   5   8
BRANCH   1  24
HETATM   24  N   UNL     1      42.292  -9.352   7.909  1.00  0.00    -0.376 N 
HETATM   25  C   UNL     1      43.335  -9.388   8.955  1.00  0.00     0.143 C 
HETATM   26  C   UNL     1      43.150  -8.185   9.905  1.00  0.00     0.145 C 
HETATM   27  N   UNL     1      41.780  -8.069  10.438  1.00  0.00    -0.349 N 
HETATM   28  C   UNL     1      41.454  -7.318  11.566  1.00  0.00     0.219 C 
HETATM   29  C   UNL     1      40.705  -8.255   9.455  1.00  0.00     0.145 C 
HETATM   30  O   UNL     1      40.283  -7.088  11.874  1.00  0.00    -0.273 OA
HETATM   31  C   UNL     1      40.936  -9.429   8.495  1.00  0.00     0.143 C 
BRANCH  28  32
HETATM   32  C   UNL     1      42.609  -6.794  12.406  1.00  0.00     0.103 C 
BRANCH  32  33
HETATM   33  C   UNL     1      43.130  -7.853  13.379  1.00  0.00     0.005 C 
HETATM   34  C   UNL     1      42.122  -8.153  14.476  1.00  0.00     0.005 C 
ENDBRANCH  32  33
ENDBRANCH  28  32
ENDBRANCH   1  24
TORSDOF 8
ENDMDL
MODEL 9
REMARK VINA RESULT:      -7.4     17.028     18.960
REMARK  8 active torsions:
REMARK  status: ('A' for Active; 'I' for Inactive)
REMARK    1  A    between atoms: C_2  and  C_3 
REMARK    2  A    between atoms: C_3  and  C_4 
REMARK       I    between atoms: C_4  and  N_5 
REMARK    3  A    between atoms: N_8  and  C_9 
REMARK    4  A    between atoms: C_13  and  N_14 
REMARK    5  A    between atoms: N_14  and  C_15 
REMARK    6  A    between atoms: C_15  and  N_16 
REMARK       I    between atoms: N_16  and  C_17 
REMARK    7  A    between atoms: C_17  and  C_18 
REMARK    8  A    between atoms: C_19  and  O_20 
ROOT
HETATM    1  C   UNL     1      42.301 -30.865   2.481  1.00  0.00     0.052 A 
HETATM    2  C   UNL     1      43.694 -31.118   2.552  1.00  0.00     0.062 A 
HETATM    3 CL   UNL     1      44.380 -32.168   3.755  1.00  0.00    -0.082 Cl
HETATM    4  C   UNL     1      44.612 -30.451   1.720  1.00  0.00     0.055 A 
HETATM    5  C   UNL     1      44.172 -29.458   0.849  1.00  0.00     0.036 A 
HETATM    6  C   UNL     1      42.805 -29.231   0.725  1.00  0.00     0.032 A 
HETATM    7  C   UNL     1      41.889 -29.928   1.519  1.00  0.00     0.033 A 
ENDROOT
BRANCH   5   8
HETATM    8  N   UNL     1      45.122 -28.741   0.096  1.00  0.00    -0.333 N 
HETATM    9  H   UNL     1      45.409 -27.831   0.458  1.00  0.00     0.168 HD
BRANCH   8  10
HETATM   10  C   UNL     1      45.534 -28.979  -1.196  1.00  0.00     0.179 C 
HETATM   11  S   UNL     1      44.637 -28.873  -2.608  1.00  0.00    -0.040 SA
BRANCH  10  12
HETATM   12  N   UNL     1      46.856 -29.336  -1.340  1.00  0.00    -0.299 N 
HETATM   13  C   UNL     1      47.979 -28.783  -0.746  1.00  0.00     0.260 C 
HETATM   14  O   UNL     1      48.023 -27.616  -0.364  1.00  0.00    -0.267 OA
HETATM   15  H   UNL     1      46.971 -30.250  -1.762  1.00  0.00     0.171 HD
BRANCH  13  16
HETATM   16  C   UNL     1      49.182 -29.676  -0.630  1.00  0.00     0.065 A 
HETATM   17  C   UNL     1      49.674 -30.190   0.587  1.00  0.00     0.084 A 
HETATM   18  C   UNL     1      50.812 -31.008   0.595  1.00  0.00     0.038 A 
HETATM   19  C   UNL     1      51.493 -31.279  -0.591  1.00  0.00     0.003 A 
HETATM   20  C   UNL     1      51.032 -30.753  -1.794  1.00  0.00     0.001 A 
HETATM   21  C   UNL     1      49.882 -29.960  -1.815  1.00  0.00     0.020 A 
BRANCH  17  22
HETATM   22  O   UNL     1      48.989 -29.953   1.753  1.00  0.00    -0.355 OA
HETATM   23  C   UNL     1      49.837 -29.842   2.900  1.00  0.00     0.210 C 
ENDBRANCH  17  22
ENDBRANCH  13  16
ENDBRANCH  10  12
ENDBRANCH   8  10
ENDBRANCH   5   8
BRANCH   1  24
HETATM   24  N   UNL     1      41.379 -31.450   3.361  1.00  0.00    -0.376 N 
HETATM   25  C   UNL     1      40.235 -32.155   2.745  1.00  0.00     0.143 C 
HETATM   26  C   UNL     1      39.622 -33.133   3.770  1.00  0.00     0.145 C 
HETATM   27  N   UNL     1      39.301 -32.498   5.061  1.00  0.00    -0.349 N 
HETATM   28  C   UNL     1      38.428 -33.052   5.995  1.00  0.00     0.219 C 
HETATM   29  C   UNL     1      40.335 -31.604   5.597  1.00  0.00     0.145 C 
HETATM   30  O   UNL     1      38.326 -32.596   7.136  1.00  0.00    -0.273 OA
HETATM   31  C   UNL     1      40.959 -30.674   4.548  1.00  0.00     0.143 C 
BRANCH  28  32
HETATM   32  C   UNL     1      37.601 -34.247   5.546  1.00  0.00     0.103 C 
BRANCH  32  33
HETATM   33  C   UNL     1      36.120 -33.892   5.406  1.00  0.00     0.005 C 
HETATM   34  C   UNL     1      35.849 -33.099   4.138  1.00  0.00     0.005 C 
ENDBRANCH  32  33
ENDBRANCH  28  32
ENDBRANCH   1  24
TORSDOF 8
ENDMDL
MODEL 10
REMARK VINA RESULT:      -7.4     16.953     19.004
REMARK  8 active torsions:
REMARK  status: ('A' for Active; 'I' for Inactive)
REMARK    1  A    between atoms: C_2  and  C_3 
REMARK    2  A    between atoms: C_3  and  C_4 
REMARK       I    between atoms: C_4  and  N_5 
REMARK    3  A    between atoms: N_8  and  C_9 
REMARK    4  A    between atoms: C_13  and  N_14 
REMARK    5  A    between atoms: N_14  and  C_15 
REMARK    6  A    between atoms: C_15  and  N_16 
REMARK       I    between atoms: N_16  and  C_17 
REMARK    7  A    between atoms: C_17  and  C_18 
REMARK    8  A    between atoms: C_19  and  O_20 
ROOT
HETATM    1  C   UNL     1      42.089 -30.909   1.751  1.00  0.00     0.052 A 
HETATM    2  C   UNL     1      42.903 -31.706   0.908  1.00  0.00     0.062 A 
HETATM    3 CL   UNL     1      42.980 -33.435   1.067  1.00  0.00    -0.082 Cl
HETATM    4  C   UNL     1      43.776 -31.134  -0.036  1.00  0.00     0.055 A 
HETATM    5  C   UNL     1      43.916 -29.751  -0.110  1.00  0.00     0.036 A 
HETATM    6  C   UNL     1      43.088 -28.950   0.670  1.00  0.00     0.032 A 
HETATM    7  C   UNL     1      42.187 -29.519   1.574  1.00  0.00     0.033 A 
ENDROOT
BRANCH   5   8
HETATM    8  N   UNL     1      44.865 -29.208  -0.998  1.00  0.00    -0.333 N 
HETATM    9  H   UNL     1      44.599 -28.359  -1.497  1.00  0.00     0.168 HD
BRANCH   8  10
HETATM   10  C   UNL     1      46.010 -29.800  -1.481  1.00  0.00     0.179 C 
HETATM   11  S   UNL     1      46.292 -30.419  -3.013  1.00  0.00    -0.040 SA
BRANCH  10  12
HETATM   12  N   UNL     1      47.057 -29.879  -0.590  1.00  0.00    -0.299 N 
HETATM   13  C   UNL     1      47.663 -28.867   0.137  1.00  0.00     0.260 C 
HETATM   14  O   UNL     1      47.671 -27.696  -0.234  1.00  0.00    -0.267 OA
HETATM   15  H   UNL     1      47.242 -30.828  -0.286  1.00  0.00     0.171 HD
BRANCH  13  16
HETATM   16  C   UNL     1      48.365 -29.280   1.399  1.00  0.00     0.065 A 
HETATM   17  C   UNL     1      49.293 -30.338   1.480  1.00  0.00     0.084 A 
HETATM   18  C   UNL     1      49.890 -30.656   2.708  1.00  0.00     0.038 A 
HETATM   19  C   UNL     1      49.536 -29.963   3.864  1.00  0.00     0.003 A 
HETATM   20  C   UNL     1      48.600 -28.935   3.799  1.00  0.00     0.001 A 
HETATM   21  C   UNL     1      48.021 -28.592   2.576  1.00  0.00     0.020 A 
BRANCH  17  22
HETATM   22  O   UNL     1      49.670 -31.002   0.339  1.00  0.00    -0.355 OA
HETATM   23  C   UNL     1      51.088 -31.090   0.172  1.00  0.00     0.210 C 
ENDBRANCH  17  22
ENDBRANCH  13  16
ENDBRANCH  10  12
ENDBRANCH   8  10
ENDBRANCH   5   8
BRANCH   1  24
HETATM   24  N   UNL     1      41.280 -31.454   2.759  1.00  0.00    -0.376 N 
HETATM   25  C   UNL     1      40.057 -32.156   2.316  1.00  0.00     0.143 C 
HETATM   26  C   UNL     1      39.569 -33.095   3.441  1.00  0.00     0.145 C 
HETATM   27  N   UNL     1      39.425 -32.419   4.743  1.00  0.00    -0.349 N 
HETATM   28  C   UNL     1      38.673 -32.932   5.797  1.00  0.00     0.219 C 
HETATM   29  C   UNL     1      40.531 -31.528   5.114  1.00  0.00     0.145 C 
HETATM   30  O   UNL     1      38.724 -32.444   6.928  1.00  0.00    -0.273 OA
HETATM   31  C   UNL     1      41.027 -30.639   3.967  1.00  0.00     0.143 C 
BRANCH  28  32
HETATM   32  C   UNL     1      37.779 -34.125   5.494  1.00  0.00     0.103 C 
BRANCH  32  33
HETATM   33  C   UNL     1      36.298 -33.746   5.516  1.00  0.00     0.005 C 
HETATM   34  C   UNL     1      35.886 -33.013   4.250  1.00  0.00     0.005 C 
ENDBRANCH  32  33
ENDBRANCH  28  32
ENDBRANCH   1  24
TORSDOF 8
ENDMDL
