MODEL 1
REMARK VINA RESULT:      -9.0      0.000      0.000
REMARK  9 active torsions:
REMARK  status: ('A' for Active; 'I' for Inactive)
REMARK    1  A    between atoms: O_2  and  C_3 
REMARK    2  A    between atoms: C_6  and  N_7 
REMARK    3  A    between atoms: N_10  and  C_11 
REMARK    4  A    between atoms: C_11  and  C_12 
REMARK    5  A    between atoms: C_14  and  O_15 
REMARK    6  A    between atoms: C_17  and  O_18 
REMARK    7  A    between atoms: C_22  and  C_23 
REMARK    8  A    between atoms: C_23  and  C_24 
REMARK       I    between atoms: C_24  and  N_25 
REMARK    9  A    between atoms: N_25  and  C_26 
ROOT
HETATM    1  N   UNL     1      42.775 -12.154   5.450  1.00  0.00    -0.232 N 
HETATM    2  C   UNL     1      42.263 -13.420   5.645  1.00  0.00     0.333 C 
HETATM    3  O   UNL     1      42.330 -14.132   6.636  1.00  0.00    -0.246 OA
HETATM    4  N   UNL     1      41.610 -13.812   4.481  1.00  0.00    -0.315 N 
HETATM    5  C   UNL     1      41.523 -12.742   3.512  1.00  0.00     0.191 C 
HETATM    6  C   UNL     1      42.490 -11.752   4.165  1.00  0.00     0.256 C 
HETATM    7  O   UNL     1      42.928 -10.777   3.560  1.00  0.00    -0.270 OA
ENDROOT
BRANCH   4   8
HETATM    8  C   UNL     1      40.907 -15.082   4.348  1.00  0.00     0.167 C 
BRANCH   8   9
HETATM    9  C   UNL     1      41.812 -16.188   3.856  1.00  0.00    -0.037 A 
HETATM   10  C   UNL     1      42.593 -16.929   4.759  1.00  0.00     0.048 A 
HETATM   11  C   UNL     1      43.422 -17.967   4.312  1.00  0.00     0.102 A 
HETATM   12  C   UNL     1      43.485 -18.268   2.937  1.00  0.00     0.101 A 
HETATM   13  C   UNL     1      42.725 -17.518   2.036  1.00  0.00     0.040 A 
HETATM   14  C   UNL     1      41.903 -16.485   2.491  1.00  0.00     0.012 A 
BRANCH  11  15
HETATM   15  O   UNL     1      44.201 -18.746   5.132  1.00  0.00    -0.353 OA
HETATM   16  C   UNL     1      43.547 -19.527   6.122  1.00  0.00     0.210 C 
ENDBRANCH  11  15
BRANCH  12  17
HETATM   17  O   UNL     1      44.312 -19.304   2.580  1.00  0.00    -0.353 OA
HETATM   18  C   UNL     1      43.708 -20.482   2.067  1.00  0.00     0.210 C 
ENDBRANCH  12  17
ENDBRANCH   8   9
ENDBRANCH   4   8
BRANCH   5  19
HETATM   19  C   UNL     1      41.962 -13.074   2.095  1.00  0.00     0.138 C 
BRANCH  19  20
HETATM   20  C   UNL     1      40.754 -13.123   1.176  1.00  0.00     0.224 C 
HETATM   21  N   UNL     1      41.035 -13.660  -0.063  1.00  0.00    -0.327 N 
HETATM   22  H   UNL     1      42.019 -13.822  -0.276  1.00  0.00     0.169 HD
HETATM   23  O   UNL     1      39.677 -12.673   1.556  1.00  0.00    -0.273 OA
BRANCH  21  24
HETATM   24  C   UNL     1      40.158 -13.867  -1.145  1.00  0.00     0.034 A 
HETATM   25  C   UNL     1      39.445 -15.045  -1.365  1.00  0.00     0.029 A 
HETATM   26  C   UNL     1      38.593 -15.157  -2.469  1.00  0.00     0.002 A 
HETATM   27  C   UNL     1      38.454 -14.096  -3.363  1.00  0.00     0.000 A 
HETATM   28  C   UNL     1      39.167 -12.920  -3.155  1.00  0.00     0.002 A 
HETATM   29  C   UNL     1      40.013 -12.806  -2.050  1.00  0.00     0.029 A 
ENDBRANCH  21  24
ENDBRANCH  19  20
ENDBRANCH   5  19
BRANCH   1  30
HETATM   30  C   UNL     1      43.572 -11.418   6.379  1.00  0.00     0.047 A 
HETATM   31  C   UNL     1      43.012 -10.489   7.267  1.00  0.00     0.033 A 
HETATM   32  C   UNL     1      43.803  -9.806   8.203  1.00  0.00     0.039 A 
HETATM   33  C   UNL     1      45.174 -10.030   8.280  1.00  0.00     0.068 A 
HETATM   34  C   UNL     1      45.757 -10.914   7.382  1.00  0.00     0.039 A 
HETATM   35  C   UNL     1      44.965 -11.595   6.445  1.00  0.00     0.033 A 
BRANCH  33  36
HETATM   36  O   UNL     1      45.828  -9.326   9.251  1.00  0.00    -0.356 OA
HETATM   37  C   UNL     1      45.279  -9.400  10.562  1.00  0.00     0.210 C 
ENDBRANCH  33  36
ENDBRANCH   1  30
TORSDOF 9
ENDMDL
MODEL 2
REMARK VINA RESULT:      -8.4      1.992      8.759
REMARK  9 active torsions:
REMARK  status: ('A' for Active; 'I' for Inactive)
REMARK    1  A    between atoms: O_2  and  C_3 
REMARK    2  A    between atoms: C_6  and  N_7 
REMARK    3  A    between atoms: N_10  and  C_11 
REMARK    4  A    between atoms: C_11  and  C_12 
REMARK    5  A    between atoms: C_14  and  O_15 
REMARK    6  A    between atoms: C_17  and  O_18 
REMARK    7  A    between atoms: C_22  and  C_23 
REMARK    8  A    between atoms: C_23  and  C_24 
REMARK       I    between atoms: C_24  and  N_25 
REMARK    9  A    between atoms: N_25  and  C_26 
ROOT
HETATM    1  N   UNL     1      41.890 -14.062   4.373  1.00  0.00    -0.232 N 
HETATM    2  C   UNL     1      42.980 -13.249   4.602  1.00  0.00     0.333 C 
HETATM    3  O   UNL     1      43.583 -12.533   3.816  1.00  0.00    -0.246 OA
HETATM    4  N   UNL     1      43.331 -13.354   5.944  1.00  0.00    -0.315 N 
HETATM    5  C   UNL     1      42.375 -14.129   6.703  1.00  0.00     0.191 C 
HETATM    6  C   UNL     1      41.568 -14.714   5.542  1.00  0.00     0.256 C 
HETATM    7  O   UNL     1      40.784 -15.646   5.700  1.00  0.00    -0.270 OA
ENDROOT
BRANCH   4   8
HETATM    8  C   UNL     1      44.415 -12.592   6.549  1.00  0.00     0.167 C 
BRANCH   8   9
HETATM    9  C   UNL     1      43.913 -11.384   7.306  1.00  0.00    -0.037 A 
HETATM   10  C   UNL     1      44.278 -11.177   8.647  1.00  0.00     0.048 A 
HETATM   11  C   UNL     1      43.830 -10.051   9.351  1.00  0.00     0.102 A 
HETATM   12  C   UNL     1      42.992  -9.117   8.712  1.00  0.00     0.101 A 
HETATM   13  C   UNL     1      42.610  -9.332   7.385  1.00  0.00     0.040 A 
HETATM   14  C   UNL     1      43.062 -10.457   6.693  1.00  0.00     0.012 A 
BRANCH  11  15
HETATM   15  O   UNL     1      44.156  -9.771  10.655  1.00  0.00    -0.353 OA
HETATM   16  C   UNL     1      43.543 -10.550  11.673  1.00  0.00     0.210 C 
ENDBRANCH  11  15
BRANCH  12  17
HETATM   17  O   UNL     1      42.603  -8.036   9.465  1.00  0.00    -0.353 OA
HETATM   18  C   UNL     1      41.989  -6.949   8.790  1.00  0.00     0.210 C 
ENDBRANCH  12  17
ENDBRANCH   8   9
ENDBRANCH   4   8
BRANCH   5  19
HETATM   19  C   UNL     1      42.941 -15.234   7.580  1.00  0.00     0.138 C 
BRANCH  19  20
HETATM   20  C   UNL     1      43.730 -16.216   6.732  1.00  0.00     0.224 C 
HETATM   21  N   UNL     1      42.978 -17.293   6.307  1.00  0.00    -0.327 N 
HETATM   22  H   UNL     1      42.049 -17.389   6.717  1.00  0.00     0.169 HD
HETATM   23  O   UNL     1      44.923 -16.024   6.522  1.00  0.00    -0.273 OA
BRANCH  21  24
HETATM   24  C   UNL     1      43.380 -18.375   5.502  1.00  0.00     0.034 A 
HETATM   25  C   UNL     1      43.620 -18.288   4.131  1.00  0.00     0.029 A 
HETATM   26  C   UNL     1      44.020 -19.421   3.413  1.00  0.00     0.002 A 
HETATM   27  C   UNL     1      44.175 -20.647   4.058  1.00  0.00     0.000 A 
HETATM   28  C   UNL     1      43.931 -20.744   5.424  1.00  0.00     0.002 A 
HETATM   29  C   UNL     1      43.537 -19.613   6.142  1.00  0.00     0.029 A 
ENDBRANCH  21  24
ENDBRANCH  19  20
ENDBRANCH   5  19
BRANCH   1  30
HETATM   30  C   UNL     1      41.262 -14.290   3.111  1.00  0.00     0.047 A 
HETATM   31  C   UNL     1      40.471 -13.316   2.486  1.00  0.00     0.033 A 
HETATM   32  C   UNL     1      39.897 -13.540   1.226  1.00  0.00     0.039 A 
HETATM   33  C   UNL     1      40.095 -14.742   0.553  1.00  0.00     0.068 A 
HETATM   34  C   UNL     1      40.839 -15.738   1.171  1.00  0.00     0.039 A 
HETATM   35  C   UNL     1      41.412 -15.513   2.433  1.00  0.00     0.033 A 
BRANCH  33  36
HETATM   36  O   UNL     1      39.509 -14.827  -0.678  1.00  0.00    -0.356 OA
HETATM   37  C   UNL     1      39.916 -13.860  -1.639  1.00  0.00     0.210 C 
ENDBRANCH  33  36
ENDBRANCH   1  30
TORSDOF 9
ENDMDL
MODEL 3
REMARK VINA RESULT:      -8.3      2.336      8.074
REMARK  9 active torsions:
REMARK  status: ('A' for Active; 'I' for Inactive)
REMARK    1  A    between atoms: O_2  and  C_3 
REMARK    2  A    between atoms: C_6  and  N_7 
REMARK    3  A    between atoms: N_10  and  C_11 
REMARK    4  A    between atoms: C_11  and  C_12 
REMARK    5  A    between atoms: C_14  and  O_15 
REMARK    6  A    between atoms: C_17  and  O_18 
REMARK    7  A    between atoms: C_22  and  C_23 
REMARK    8  A    between atoms: C_23  and  C_24 
REMARK       I    between atoms: C_24  and  N_25 
REMARK    9  A    between atoms: N_25  and  C_26 
ROOT
HETATM    1  N   UNL     1      39.537 -12.636   0.710  1.00  0.00    -0.232 N 
HETATM    2  C   UNL     1      39.345 -12.209   2.008  1.00  0.00     0.333 C 
HETATM    3  O   UNL     1      38.761 -11.214   2.410  1.00  0.00    -0.246 OA
HETATM    4  N   UNL     1      39.946 -13.126   2.865  1.00  0.00    -0.315 N 
HETATM    5  C   UNL     1      40.427 -14.297   2.166  1.00  0.00     0.191 C 
HETATM    6  C   UNL     1      40.286 -13.792   0.729  1.00  0.00     0.256 C 
HETATM    7  O   UNL     1      40.813 -14.369  -0.218  1.00  0.00    -0.270 OA
ENDROOT
BRANCH   4   8
HETATM    8  C   UNL     1      39.898 -13.013   4.316  1.00  0.00     0.167 C 
BRANCH   8   9
HETATM    9  C   UNL     1      41.265 -12.782   4.919  1.00  0.00    -0.037 A 
HETATM   10  C   UNL     1      41.732 -13.594   5.965  1.00  0.00     0.048 A 
HETATM   11  C   UNL     1      43.005 -13.396   6.518  1.00  0.00     0.102 A 
HETATM   12  C   UNL     1      43.825 -12.361   6.028  1.00  0.00     0.101 A 
HETATM   13  C   UNL     1      43.353 -11.538   5.002  1.00  0.00     0.040 A 
HETATM   14  C   UNL     1      42.084 -11.744   4.458  1.00  0.00     0.012 A 
BRANCH  11  15
HETATM   15  O   UNL     1      43.539 -14.157   7.529  1.00  0.00    -0.353 OA
HETATM   16  C   UNL     1      42.948 -15.422   7.789  1.00  0.00     0.210 C 
ENDBRANCH  11  15
BRANCH  12  17
HETATM   17  O   UNL     1      45.061 -12.237   6.614  1.00  0.00    -0.353 OA
HETATM   18  C   UNL     1      45.368 -11.006   7.252  1.00  0.00     0.210 C 
ENDBRANCH  12  17
ENDBRANCH   8   9
ENDBRANCH   4   8
BRANCH   5  19
HETATM   19  C   UNL     1      41.860 -14.717   2.455  1.00  0.00     0.138 C 
BRANCH  19  20
HETATM   20  C   UNL     1      41.881 -16.116   3.045  1.00  0.00     0.224 C 
HETATM   21  N   UNL     1      42.986 -16.849   2.666  1.00  0.00    -0.327 N 
HETATM   22  H   UNL     1      43.572 -16.444   1.937  1.00  0.00     0.169 HD
HETATM   23  O   UNL     1      40.951 -16.498   3.749  1.00  0.00    -0.273 OA
BRANCH  21  24
HETATM   24  C   UNL     1      43.331 -18.164   3.034  1.00  0.00     0.034 A 
HETATM   25  C   UNL     1      43.205 -19.273   2.198  1.00  0.00     0.029 A 
HETATM   26  C   UNL     1      43.576 -20.543   2.652  1.00  0.00     0.002 A 
HETATM   27  C   UNL     1      44.068 -20.714   3.946  1.00  0.00     0.000 A 
HETATM   28  C   UNL     1      44.190 -19.614   4.788  1.00  0.00     0.002 A 
HETATM   29  C   UNL     1      43.824 -18.346   4.334  1.00  0.00     0.029 A 
ENDBRANCH  21  24
ENDBRANCH  19  20
ENDBRANCH   5  19
BRANCH   1  30
HETATM   30  C   UNL     1      39.132 -11.944  -0.471  1.00  0.00     0.047 A 
HETATM   31  C   UNL     1      37.933 -12.239  -1.133  1.00  0.00     0.033 A 
HETATM   32  C   UNL     1      37.529 -11.519  -2.267  1.00  0.00     0.039 A 
HETATM   33  C   UNL     1      38.311 -10.486  -2.775  1.00  0.00     0.068 A 
HETATM   34  C   UNL     1      39.524 -10.205  -2.162  1.00  0.00     0.039 A 
HETATM   35  C   UNL     1      39.927 -10.927  -1.028  1.00  0.00     0.033 A 
BRANCH  33  36
HETATM   36  O   UNL     1      37.795  -9.843  -3.865  1.00  0.00    -0.356 OA
HETATM   37  C   UNL     1      38.391  -8.595  -4.201  1.00  0.00     0.210 C 
ENDBRANCH  33  36
ENDBRANCH   1  30
TORSDOF 9
ENDMDL
MODEL 4
REMARK VINA RESULT:      -8.1      1.486      7.194
REMARK  9 active torsions:
REMARK  status: ('A' for Active; 'I' for Inactive)
REMARK    1  A    between atoms: O_2  and  C_3 
REMARK    2  A    between atoms: C_6  and  N_7 
REMARK    3  A    between atoms: N_10  and  C_11 
REMARK    4  A    between atoms: C_11  and  C_12 
REMARK    5  A    between atoms: C_14  and  O_15 
REMARK    6  A    between atoms: C_17  and  O_18 
REMARK    7  A    between atoms: C_22  and  C_23 
REMARK    8  A    between atoms: C_23  and  C_24 
REMARK       I    between atoms: C_24  and  N_25 
REMARK    9  A    between atoms: N_25  and  C_26 
ROOT
HETATM    1  N   UNL     1      42.821 -14.719   3.788  1.00  0.00    -0.232 N 
HETATM    2  C   UNL     1      42.092 -14.175   4.825  1.00  0.00     0.333 C 
HETATM    3  O   UNL     1      41.541 -14.743   5.757  1.00  0.00    -0.246 OA
HETATM    4  N   UNL     1      42.059 -12.794   4.661  1.00  0.00    -0.315 N 
HETATM    5  C   UNL     1      42.915 -12.349   3.584  1.00  0.00     0.191 C 
HETATM    6  C   UNL     1      43.221 -13.705   2.947  1.00  0.00     0.256 C 
HETATM    7  O   UNL     1      43.726 -13.800   1.831  1.00  0.00    -0.270 OA
ENDROOT
BRANCH   4   8
HETATM    8  C   UNL     1      41.411 -11.893   5.604  1.00  0.00     0.167 C 
BRANCH   8   9
HETATM    9  C   UNL     1      42.407 -11.160   6.474  1.00  0.00    -0.037 A 
HETATM   10  C   UNL     1      42.264  -9.786   6.724  1.00  0.00     0.048 A 
HETATM   11  C   UNL     1      43.174  -9.103   7.543  1.00  0.00     0.102 A 
HETATM   12  C   UNL     1      44.256  -9.800   8.115  1.00  0.00     0.101 A 
HETATM   13  C   UNL     1      44.413 -11.163   7.850  1.00  0.00     0.040 A 
HETATM   14  C   UNL     1      43.500 -11.833   7.033  1.00  0.00     0.012 A 
BRANCH  11  15
HETATM   15  O   UNL     1      43.093  -7.767   7.848  1.00  0.00    -0.353 OA
HETATM   16  C   UNL     1      42.080  -7.002   7.210  1.00  0.00     0.210 C 
ENDBRANCH  11  15
BRANCH  12  17
HETATM   17  O   UNL     1      45.098  -9.064   8.912  1.00  0.00    -0.353 OA
HETATM   18  C   UNL     1      45.410  -9.581  10.198  1.00  0.00     0.210 C 
ENDBRANCH  12  17
ENDBRANCH   8   9
ENDBRANCH   4   8
BRANCH   5  19
HETATM   19  C   UNL     1      42.291 -11.402   2.571  1.00  0.00     0.138 C 
BRANCH  19  20
HETATM   20  C   UNL     1      41.132 -12.086   1.867  1.00  0.00     0.224 C 
HETATM   21  N   UNL     1      41.383 -12.346   0.535  1.00  0.00    -0.327 N 
HETATM   22  H   UNL     1      42.228 -11.932   0.142  1.00  0.00     0.169 HD
HETATM   23  O   UNL     1      40.094 -12.317   2.479  1.00  0.00    -0.273 OA
BRANCH  21  24
HETATM   24  C   UNL     1      40.544 -12.975  -0.405  1.00  0.00     0.034 A 
HETATM   25  C   UNL     1      39.985 -12.336  -1.511  1.00  0.00     0.029 A 
HETATM   26  C   UNL     1      39.164 -13.047  -2.394  1.00  0.00     0.002 A 
HETATM   27  C   UNL     1      38.891 -14.396  -2.172  1.00  0.00     0.000 A 
HETATM   28  C   UNL     1      39.440 -15.039  -1.068  1.00  0.00     0.002 A 
HETATM   29  C   UNL     1      40.263 -14.332  -0.190  1.00  0.00     0.029 A 
ENDBRANCH  21  24
ENDBRANCH  19  20
ENDBRANCH   5  19
BRANCH   1  30
HETATM   30  C   UNL     1      43.036 -16.111   3.551  1.00  0.00     0.047 A 
HETATM   31  C   UNL     1      42.447 -16.781   2.471  1.00  0.00     0.033 A 
HETATM   32  C   UNL     1      42.704 -18.139   2.227  1.00  0.00     0.039 A 
HETATM   33  C   UNL     1      43.555 -18.866   3.054  1.00  0.00     0.068 A 
HETATM   34  C   UNL     1      44.115 -18.233   4.155  1.00  0.00     0.039 A 
HETATM   35  C   UNL     1      43.856 -16.876   4.399  1.00  0.00     0.033 A 
BRANCH  33  36
HETATM   36  O   UNL     1      43.746 -20.170   2.696  1.00  0.00    -0.356 OA
HETATM   37  C   UNL     1      43.870 -21.106   3.761  1.00  0.00     0.210 C 
ENDBRANCH  33  36
ENDBRANCH   1  30
TORSDOF 9
ENDMDL
MODEL 5
REMARK VINA RESULT:      -8.1      2.279      6.752
REMARK  9 active torsions:
REMARK  status: ('A' for Active; 'I' for Inactive)
REMARK    1  A    between atoms: O_2  and  C_3 
REMARK    2  A    between atoms: C_6  and  N_7 
REMARK    3  A    between atoms: N_10  and  C_11 
REMARK    4  A    between atoms: C_11  and  C_12 
REMARK    5  A    between atoms: C_14  and  O_15 
REMARK    6  A    between atoms: C_17  and  O_18 
REMARK    7  A    between atoms: C_22  and  C_23 
REMARK    8  A    between atoms: C_23  and  C_24 
REMARK       I    between atoms: C_24  and  N_25 
REMARK    9  A    between atoms: N_25  and  C_26 
ROOT
HETATM    1  N   UNL     1      42.056 -12.756   3.654  1.00  0.00    -0.232 N 
HETATM    2  C   UNL     1      40.707 -12.572   3.435  1.00  0.00     0.333 C 
HETATM    3  O   UNL     1      39.872 -12.066   4.171  1.00  0.00    -0.246 OA
HETATM    4  N   UNL     1      40.394 -13.072   2.176  1.00  0.00    -0.315 N 
HETATM    5  C   UNL     1      41.570 -13.468   1.434  1.00  0.00     0.191 C 
HETATM    6  C   UNL     1      42.598 -13.403   2.566  1.00  0.00     0.256 C 
HETATM    7  O   UNL     1      43.715 -13.901   2.458  1.00  0.00    -0.270 OA
ENDROOT
BRANCH   4   8
HETATM    8  C   UNL     1      39.059 -13.001   1.596  1.00  0.00     0.167 C 
BRANCH   8   9
HETATM    9  C   UNL     1      39.057 -12.324   0.244  1.00  0.00    -0.037 A 
HETATM   10  C   UNL     1      38.933 -13.079  -0.934  1.00  0.00     0.048 A 
HETATM   11  C   UNL     1      38.914 -12.458  -2.190  1.00  0.00     0.102 A 
HETATM   12  C   UNL     1      39.033 -11.057  -2.277  1.00  0.00     0.101 A 
HETATM   13  C   UNL     1      39.177 -10.306  -1.108  1.00  0.00     0.040 A 
HETATM   14  C   UNL     1      39.196 -10.935   0.139  1.00  0.00     0.012 A 
BRANCH  11  15
HETATM   15  O   UNL     1      38.780 -13.124  -3.383  1.00  0.00    -0.353 OA
HETATM   16  C   UNL     1      38.294 -14.458  -3.347  1.00  0.00     0.210 C 
ENDBRANCH  11  15
BRANCH  12  17
HETATM   17  O   UNL     1      38.995 -10.523  -3.542  1.00  0.00    -0.353 OA
HETATM   18  C   UNL     1      39.813  -9.391  -3.804  1.00  0.00     0.210 C 
ENDBRANCH  12  17
ENDBRANCH   8   9
ENDBRANCH   4   8
BRANCH   5  19
HETATM   19  C   UNL     1      41.542 -14.852   0.806  1.00  0.00     0.138 C 
BRANCH  19  20
HETATM   20  C   UNL     1      41.644 -15.914   1.887  1.00  0.00     0.224 C 
HETATM   21  N   UNL     1      42.837 -16.607   1.857  1.00  0.00    -0.327 N 
HETATM   22  H   UNL     1      43.438 -16.442   1.050  1.00  0.00     0.169 HD
HETATM   23  O   UNL     1      40.702 -16.105   2.649  1.00  0.00    -0.273 OA
BRANCH  21  24
HETATM   24  C   UNL     1      43.270 -17.638   2.712  1.00  0.00     0.034 A 
HETATM   25  C   UNL     1      43.327 -18.984   2.353  1.00  0.00     0.029 A 
HETATM   26  C   UNL     1      43.774 -19.940   3.273  1.00  0.00     0.002 A 
HETATM   27  C   UNL     1      44.160 -19.557   4.557  1.00  0.00     0.000 A 
HETATM   28  C   UNL     1      44.100 -18.217   4.925  1.00  0.00     0.002 A 
HETATM   29  C   UNL     1      43.659 -17.263   4.006  1.00  0.00     0.029 A 
ENDBRANCH  21  24
ENDBRANCH  19  20
ENDBRANCH   5  19
BRANCH   1  30
HETATM   30  C   UNL     1      42.764 -12.440   4.852  1.00  0.00     0.047 A 
HETATM   31  C   UNL     1      43.124 -11.125   5.179  1.00  0.00     0.033 A 
HETATM   32  C   UNL     1      43.782 -10.826   6.382  1.00  0.00     0.039 A 
HETATM   33  C   UNL     1      44.099 -11.829   7.292  1.00  0.00     0.068 A 
HETATM   34  C   UNL     1      43.791 -13.144   6.970  1.00  0.00     0.039 A 
HETATM   35  C   UNL     1      43.135 -13.442   5.766  1.00  0.00     0.033 A 
BRANCH  33  36
HETATM   36  O   UNL     1      44.712 -11.407   8.438  1.00  0.00    -0.356 OA
HETATM   37  C   UNL     1      45.851 -10.570   8.272  1.00  0.00     0.210 C 
ENDBRANCH  33  36
ENDBRANCH   1  30
TORSDOF 9
ENDMDL
MODEL 6
REMARK VINA RESULT:      -7.9      2.011      8.828
REMARK  9 active torsions:
REMARK  status: ('A' for Active; 'I' for Inactive)
REMARK    1  A    between atoms: O_2  and  C_3 
REMARK    2  A    between atoms: C_6  and  N_7 
REMARK    3  A    between atoms: N_10  and  C_11 
REMARK    4  A    between atoms: C_11  and  C_12 
REMARK    5  A    between atoms: C_14  and  O_15 
REMARK    6  A    between atoms: C_17  and  O_18 
REMARK    7  A    between atoms: C_22  and  C_23 
REMARK    8  A    between atoms: C_23  and  C_24 
REMARK       I    between atoms: C_24  and  N_25 
REMARK    9  A    between atoms: N_25  and  C_26 
ROOT
HETATM    1  N   UNL     1      42.367 -14.936   5.178  1.00  0.00    -0.232 N 
HETATM    2  C   UNL     1      41.311 -14.464   4.426  1.00  0.00     0.333 C 
HETATM    3  O   UNL     1      40.567 -15.079   3.676  1.00  0.00    -0.246 OA
HETATM    4  N   UNL     1      41.193 -13.096   4.647  1.00  0.00    -0.315 N 
HETATM    5  C   UNL     1      42.075 -12.630   5.693  1.00  0.00     0.191 C 
HETATM    6  C   UNL     1      42.945 -13.879   5.845  1.00  0.00     0.256 C 
HETATM    7  O   UNL     1      44.007 -13.862   6.462  1.00  0.00    -0.270 OA
ENDROOT
BRANCH   4   8
HETATM    8  C   UNL     1      40.148 -12.277   4.047  1.00  0.00     0.167 C 
BRANCH   8   9
HETATM    9  C   UNL     1      40.534 -11.772   2.675  1.00  0.00    -0.037 A 
HETATM   10  C   UNL     1      40.329 -12.568   1.536  1.00  0.00     0.048 A 
HETATM   11  C   UNL     1      40.669 -12.100   0.259  1.00  0.00     0.102 A 
HETATM   12  C   UNL     1      41.234 -10.818   0.113  1.00  0.00     0.101 A 
HETATM   13  C   UNL     1      41.458 -10.033   1.247  1.00  0.00     0.040 A 
HETATM   14  C   UNL     1      41.117 -10.509   2.515  1.00  0.00     0.012 A 
BRANCH  11  15
HETATM   15  O   UNL     1      40.485 -12.810  -0.902  1.00  0.00    -0.353 OA
HETATM   16  C   UNL     1      39.225 -13.434  -1.105  1.00  0.00     0.210 C 
ENDBRANCH  11  15
BRANCH  12  17
HETATM   17  O   UNL     1      41.530 -10.428  -1.170  1.00  0.00    -0.353 OA
HETATM   18  C   UNL     1      41.992  -9.100  -1.366  1.00  0.00     0.210 C 
ENDBRANCH  12  17
ENDBRANCH   8   9
ENDBRANCH   4   8
BRANCH   5  19
HETATM   19  C   UNL     1      42.927 -11.413   5.370  1.00  0.00     0.138 C 
BRANCH  19  20
HETATM   20  C   UNL     1      42.896 -10.434   6.531  1.00  0.00     0.224 C 
HETATM   21  N   UNL     1      43.505 -10.922   7.669  1.00  0.00    -0.327 N 
HETATM   22  H   UNL     1      43.769 -11.907   7.657  1.00  0.00     0.169 HD
HETATM   23  O   UNL     1      42.331  -9.352   6.406  1.00  0.00    -0.273 OA
BRANCH  21  24
HETATM   24  C   UNL     1      43.670 -10.284   8.913  1.00  0.00     0.034 A 
HETATM   25  C   UNL     1      44.890 -10.155   9.575  1.00  0.00     0.029 A 
HETATM   26  C   UNL     1      44.955  -9.501  10.811  1.00  0.00     0.002 A 
HETATM   27  C   UNL     1      43.802  -8.980  11.395  1.00  0.00     0.000 A 
HETATM   28  C   UNL     1      42.579  -9.110  10.744  1.00  0.00     0.002 A 
HETATM   29  C   UNL     1      42.514  -9.758   9.509  1.00  0.00     0.029 A 
ENDBRANCH  21  24
ENDBRANCH  19  20
ENDBRANCH   5  19
BRANCH   1  30
HETATM   30  C   UNL     1      42.861 -16.276   5.185  1.00  0.00     0.047 A 
HETATM   31  C   UNL     1      43.437 -16.862   4.049  1.00  0.00     0.033 A 
HETATM   32  C   UNL     1      43.958 -18.164   4.085  1.00  0.00     0.039 A 
HETATM   33  C   UNL     1      43.918 -18.919   5.254  1.00  0.00     0.068 A 
HETATM   34  C   UNL     1      43.313 -18.375   6.378  1.00  0.00     0.039 A 
HETATM   35  C   UNL     1      42.791 -17.072   6.341  1.00  0.00     0.033 A 
BRANCH  33  36
HETATM   36  O   UNL     1      44.482 -20.160   5.168  1.00  0.00    -0.356 OA
HETATM   37  C   UNL     1      43.946 -21.029   4.177  1.00  0.00     0.210 C 
ENDBRANCH  33  36
ENDBRANCH   1  30
TORSDOF 9
ENDMDL
MODEL 7
REMARK VINA RESULT:      -7.8      2.552      7.083
REMARK  9 active torsions:
REMARK  status: ('A' for Active; 'I' for Inactive)
REMARK    1  A    between atoms: O_2  and  C_3 
REMARK    2  A    between atoms: C_6  and  N_7 
REMARK    3  A    between atoms: N_10  and  C_11 
REMARK    4  A    between atoms: C_11  and  C_12 
REMARK    5  A    between atoms: C_14  and  O_15 
REMARK    6  A    between atoms: C_17  and  O_18 
REMARK    7  A    between atoms: C_22  and  C_23 
REMARK    8  A    between atoms: C_23  and  C_24 
REMARK       I    between atoms: C_24  and  N_25 
REMARK    9  A    between atoms: N_25  and  C_26 
ROOT
HETATM    1  N   UNL     1      42.541 -14.337   4.106  1.00  0.00    -0.232 N 
HETATM    2  C   UNL     1      42.871 -13.146   4.718  1.00  0.00     0.333 C 
HETATM    3  O   UNL     1      43.499 -12.960   5.750  1.00  0.00    -0.246 OA
HETATM    4  N   UNL     1      42.360 -12.103   3.952  1.00  0.00    -0.315 N 
HETATM    5  C   UNL     1      41.803 -12.563   2.699  1.00  0.00     0.191 C 
HETATM    6  C   UNL     1      41.794 -14.067   2.982  1.00  0.00     0.256 C 
HETATM    7  O   UNL     1      41.166 -14.856   2.280  1.00  0.00    -0.270 OA
ENDROOT
BRANCH   4   8
HETATM    8  C   UNL     1      42.563 -10.698   4.278  1.00  0.00     0.167 C 
BRANCH   8   9
HETATM    9  C   UNL     1      41.599 -10.211   5.336  1.00  0.00    -0.037 A 
HETATM   10  C   UNL     1      40.246  -9.994   5.026  1.00  0.00     0.048 A 
HETATM   11  C   UNL     1      39.343  -9.558   6.005  1.00  0.00     0.102 A 
HETATM   12  C   UNL     1      39.797  -9.322   7.318  1.00  0.00     0.101 A 
HETATM   13  C   UNL     1      41.147  -9.516   7.623  1.00  0.00     0.040 A 
HETATM   14  C   UNL     1      42.038  -9.950   6.639  1.00  0.00     0.012 A 
BRANCH  11  15
HETATM   15  O   UNL     1      38.005  -9.339   5.785  1.00  0.00    -0.353 OA
HETATM   16  C   UNL     1      37.639  -8.233   4.972  1.00  0.00     0.210 C 
ENDBRANCH  11  15
BRANCH  12  17
HETATM   17  O   UNL     1      38.850  -8.906   8.221  1.00  0.00    -0.353 OA
HETATM   18  C   UNL     1      39.269  -8.684   9.560  1.00  0.00     0.210 C 
ENDBRANCH  12  17
ENDBRANCH   8   9
ENDBRANCH   4   8
BRANCH   5  19
HETATM   19  C   UNL     1      40.407 -12.068   2.356  1.00  0.00     0.138 C 
BRANCH  19  20
HETATM   20  C   UNL     1      40.185 -12.144   0.855  1.00  0.00     0.224 C 
HETATM   21  N   UNL     1      39.305 -13.141   0.486  1.00  0.00    -0.327 N 
HETATM   22  H   UNL     1      39.025 -13.793   1.218  1.00  0.00     0.169 HD
HETATM   23  O   UNL     1      40.794 -11.387   0.106  1.00  0.00    -0.273 OA
BRANCH  21  24
HETATM   24  C   UNL     1      38.863 -13.482  -0.806  1.00  0.00     0.034 A 
HETATM   25  C   UNL     1      37.979 -12.714  -1.563  1.00  0.00     0.029 A 
HETATM   26  C   UNL     1      37.599 -13.134  -2.842  1.00  0.00     0.002 A 
HETATM   27  C   UNL     1      38.093 -14.326  -3.369  1.00  0.00     0.000 A 
HETATM   28  C   UNL     1      38.971 -15.102  -2.619  1.00  0.00     0.002 A 
HETATM   29  C   UNL     1      39.355 -14.681  -1.344  1.00  0.00     0.029 A 
ENDBRANCH  21  24
ENDBRANCH  19  20
ENDBRANCH   5  19
BRANCH   1  30
HETATM   30  C   UNL     1      42.821 -15.645   4.607  1.00  0.00     0.047 A 
HETATM   31  C   UNL     1      43.628 -16.552   3.907  1.00  0.00     0.033 A 
HETATM   32  C   UNL     1      43.929 -17.817   4.434  1.00  0.00     0.039 A 
HETATM   33  C   UNL     1      43.434 -18.213   5.672  1.00  0.00     0.068 A 
HETATM   34  C   UNL     1      42.597 -17.347   6.364  1.00  0.00     0.039 A 
HETATM   35  C   UNL     1      42.296 -16.083   5.835  1.00  0.00     0.033 A 
BRANCH  33  36
HETATM   36  O   UNL     1      43.821 -19.455   6.088  1.00  0.00    -0.356 OA
HETATM   37  C   UNL     1      44.245 -20.357   5.071  1.00  0.00     0.210 C 
ENDBRANCH  33  36
ENDBRANCH   1  30
TORSDOF 9
ENDMDL
MODEL 8
REMARK VINA RESULT:      -7.8      2.071      8.354
REMARK  9 active torsions:
REMARK  status: ('A' for Active; 'I' for Inactive)
REMARK    1  A    between atoms: O_2  and  C_3 
REMARK    2  A    between atoms: C_6  and  N_7 
REMARK    3  A    between atoms: N_10  and  C_11 
REMARK    4  A    between atoms: C_11  and  C_12 
REMARK    5  A    between atoms: C_14  and  O_15 
REMARK    6  A    between atoms: C_17  and  O_18 
REMARK    7  A    between atoms: C_22  and  C_23 
REMARK    8  A    between atoms: C_23  and  C_24 
REMARK       I    between atoms: C_24  and  N_25 
REMARK    9  A    between atoms: N_25  and  C_26 
ROOT
HETATM    1  N   UNL     1      40.793 -12.991   1.929  1.00  0.00    -0.232 N 
HETATM    2  C   UNL     1      40.277 -12.470   3.098  1.00  0.00     0.333 C 
HETATM    3  O   UNL     1      39.492 -11.545   3.245  1.00  0.00    -0.246 OA
HETATM    4  N   UNL     1      40.805 -13.187   4.167  1.00  0.00    -0.315 N 
HETATM    5  C   UNL     1      41.577 -14.330   3.735  1.00  0.00     0.191 C 
HETATM    6  C   UNL     1      41.671 -14.004   2.243  1.00  0.00     0.256 C 
HETATM    7  O   UNL     1      42.459 -14.583   1.499  1.00  0.00    -0.270 OA
ENDROOT
BRANCH   4   8
HETATM    8  C   UNL     1      40.440 -12.936   5.555  1.00  0.00     0.167 C 
BRANCH   8   9
HETATM    9  C   UNL     1      41.165 -11.742   6.132  1.00  0.00    -0.037 A 
HETATM   10  C   UNL     1      42.543 -11.803   6.400  1.00  0.00     0.048 A 
HETATM   11  C   UNL     1      43.226 -10.695   6.920  1.00  0.00     0.102 A 
HETATM   12  C   UNL     1      42.522  -9.504   7.189  1.00  0.00     0.101 A 
HETATM   13  C   UNL     1      41.147  -9.449   6.943  1.00  0.00     0.040 A 
HETATM   14  C   UNL     1      40.477 -10.559   6.426  1.00  0.00     0.012 A 
BRANCH  11  15
HETATM   15  O   UNL     1      44.571 -10.670   7.193  1.00  0.00    -0.353 OA
HETATM   16  C   UNL     1      45.425 -11.471   6.389  1.00  0.00     0.210 C 
ENDBRANCH  11  15
BRANCH  12  17
HETATM   17  O   UNL     1      43.263  -8.461   7.688  1.00  0.00    -0.353 OA
HETATM   18  C   UNL     1      42.698  -7.696   8.742  1.00  0.00     0.210 C 
ENDBRANCH  12  17
ENDBRANCH   8   9
ENDBRANCH   4   8
BRANCH   5  19
HETATM   19  C   UNL     1      42.961 -14.484   4.345  1.00  0.00     0.138 C 
BRANCH  19  20
HETATM   20  C   UNL     1      43.208 -15.938   4.710  1.00  0.00     0.224 C 
HETATM   21  N   UNL     1      43.315 -16.764   3.610  1.00  0.00    -0.327 N 
HETATM   22  H   UNL     1      43.076 -16.353   2.708  1.00  0.00     0.169 HD
HETATM   23  O   UNL     1      43.255 -16.274   5.889  1.00  0.00    -0.273 OA
BRANCH  21  24
HETATM   24  C   UNL     1      43.555 -18.151   3.579  1.00  0.00     0.034 A 
HETATM   25  C   UNL     1      44.110 -18.876   4.632  1.00  0.00     0.029 A 
HETATM   26  C   UNL     1      44.309 -20.256   4.510  1.00  0.00     0.002 A 
HETATM   27  C   UNL     1      43.962 -20.917   3.332  1.00  0.00     0.000 A 
HETATM   28  C   UNL     1      43.414 -20.199   2.274  1.00  0.00     0.002 A 
HETATM   29  C   UNL     1      43.210 -18.824   2.398  1.00  0.00     0.029 A 
ENDBRANCH  21  24
ENDBRANCH  19  20
ENDBRANCH   5  19
BRANCH   1  30
HETATM   30  C   UNL     1      40.553 -12.496   0.611  1.00  0.00     0.047 A 
HETATM   31  C   UNL     1      41.130 -11.307   0.146  1.00  0.00     0.033 A 
HETATM   32  C   UNL     1      40.920 -10.857  -1.166  1.00  0.00     0.039 A 
HETATM   33  C   UNL     1      40.127 -11.582  -2.051  1.00  0.00     0.068 A 
HETATM   34  C   UNL     1      39.510 -12.740  -1.600  1.00  0.00     0.039 A 
HETATM   35  C   UNL     1      39.721 -13.187  -0.286  1.00  0.00     0.033 A 
BRANCH  33  36
HETATM   36  O   UNL     1      40.022 -11.055  -3.308  1.00  0.00    -0.356 OA
HETATM   37  C   UNL     1      39.995  -9.635  -3.396  1.00  0.00     0.210 C 
ENDBRANCH  33  36
ENDBRANCH   1  30
TORSDOF 9
ENDMDL
MODEL 9
REMARK VINA RESULT:      -7.5      3.361      5.677
REMARK  9 active torsions:
REMARK  status: ('A' for Active; 'I' for Inactive)
REMARK    1  A    between atoms: O_2  and  C_3 
REMARK    2  A    between atoms: C_6  and  N_7 
REMARK    3  A    between atoms: N_10  and  C_11 
REMARK    4  A    between atoms: C_11  and  C_12 
REMARK    5  A    between atoms: C_14  and  O_15 
REMARK    6  A    between atoms: C_17  and  O_18 
REMARK    7  A    between atoms: C_22  and  C_23 
REMARK    8  A    between atoms: C_23  and  C_24 
REMARK       I    between atoms: C_24  and  N_25 
REMARK    9  A    between atoms: N_25  and  C_26 
ROOT
HETATM    1  N   UNL     1      42.678  -9.601   9.958  1.00  0.00    -0.232 N 
HETATM    2  C   UNL     1      43.764 -10.232   9.389  1.00  0.00     0.333 C 
HETATM    3  O   UNL     1      44.764 -10.678   9.931  1.00  0.00    -0.246 OA
HETATM    4  N   UNL     1      43.559 -10.301   8.014  1.00  0.00    -0.315 N 
HETATM    5  C   UNL     1      42.238  -9.857   7.632  1.00  0.00     0.191 C 
HETATM    6  C   UNL     1      41.804  -9.233   8.960  1.00  0.00     0.256 C 
HETATM    7  O   UNL     1      40.822  -8.500   9.044  1.00  0.00    -0.270 OA
ENDROOT
BRANCH   4   8
HETATM    8  C   UNL     1      44.490 -10.949   7.100  1.00  0.00     0.167 C 
BRANCH   8   9
HETATM    9  C   UNL     1      43.871 -12.138   6.399  1.00  0.00    -0.037 A 
HETATM   10  C   UNL     1      43.513 -13.287   7.122  1.00  0.00     0.048 A 
HETATM   11  C   UNL     1      42.923 -14.387   6.483  1.00  0.00     0.102 A 
HETATM   12  C   UNL     1      42.696 -14.346   5.093  1.00  0.00     0.101 A 
HETATM   13  C   UNL     1      43.071 -13.211   4.369  1.00  0.00     0.040 A 
HETATM   14  C   UNL     1      43.658 -12.122   5.016  1.00  0.00     0.012 A 
BRANCH  11  15
HETATM   15  O   UNL     1      42.531 -15.537   7.121  1.00  0.00    -0.353 OA
HETATM   16  C   UNL     1      43.546 -16.422   7.574  1.00  0.00     0.210 C 
ENDBRANCH  11  15
BRANCH  12  17
HETATM   17  O   UNL     1      42.107 -15.457   4.542  1.00  0.00    -0.353 OA
HETATM   18  C   UNL     1      41.605 -15.349   3.218  1.00  0.00     0.210 C 
ENDBRANCH  12  17
ENDBRANCH   8   9
ENDBRANCH   4   8
BRANCH   5  19
HETATM   19  C   UNL     1      42.164  -8.839   6.506  1.00  0.00     0.138 C 
BRANCH  19  20
HETATM   20  C   UNL     1      40.958  -9.125   5.627  1.00  0.00     0.224 C 
HETATM   21  N   UNL     1      41.243  -9.970   4.574  1.00  0.00    -0.327 N 
HETATM   22  H   UNL     1      42.227 -10.184   4.415  1.00  0.00     0.169 HD
HETATM   23  O   UNL     1      39.881  -8.590   5.870  1.00  0.00    -0.273 OA
BRANCH  21  24
HETATM   24  C   UNL     1      40.369 -10.453   3.581  1.00  0.00     0.034 A 
HETATM   25  C   UNL     1      39.995  -9.735   2.445  1.00  0.00     0.029 A 
HETATM   26  C   UNL     1      39.121 -10.300   1.510  1.00  0.00     0.002 A 
HETATM   27  C   UNL     1      38.610 -11.582   1.708  1.00  0.00     0.000 A 
HETATM   28  C   UNL     1      38.972 -12.303   2.841  1.00  0.00     0.002 A 
HETATM   29  C   UNL     1      39.848 -11.741   3.772  1.00  0.00     0.029 A 
ENDBRANCH  21  24
ENDBRANCH  19  20
ENDBRANCH   5  19
BRANCH   1  30
HETATM   30  C   UNL     1      42.526  -9.273  11.340  1.00  0.00     0.047 A 
HETATM   31  C   UNL     1      43.296  -8.279  11.958  1.00  0.00     0.033 A 
HETATM   32  C   UNL     1      43.104  -7.938  13.305  1.00  0.00     0.039 A 
HETATM   33  C   UNL     1      42.138  -8.581  14.074  1.00  0.00     0.068 A 
HETATM   34  C   UNL     1      41.394  -9.599  13.495  1.00  0.00     0.039 A 
HETATM   35  C   UNL     1      41.588  -9.939  12.148  1.00  0.00     0.033 A 
BRANCH  33  36
HETATM   36  O   UNL     1      42.029  -8.141  15.363  1.00  0.00    -0.356 OA
HETATM   37  C   UNL     1      42.425  -6.796  15.605  1.00  0.00     0.210 C 
ENDBRANCH  33  36
ENDBRANCH   1  30
TORSDOF 9
ENDMDL
MODEL 10
REMARK VINA RESULT:      -7.5      2.534      3.968
REMARK  9 active torsions:
REMARK  status: ('A' for Active; 'I' for Inactive)
REMARK    1  A    between atoms: O_2  and  C_3 
REMARK    2  A    between atoms: C_6  and  N_7 
REMARK    3  A    between atoms: N_10  and  C_11 
REMARK    4  A    between atoms: C_11  and  C_12 
REMARK    5  A    between atoms: C_14  and  O_15 
REMARK    6  A    between atoms: C_17  and  O_18 
REMARK    7  A    between atoms: C_22  and  C_23 
REMARK    8  A    between atoms: C_23  and  C_24 
REMARK       I    between atoms: C_24  and  N_25 
REMARK    9  A    between atoms: N_25  and  C_26 
ROOT
HETATM    1  N   UNL     1      42.166  -9.731   7.864  1.00  0.00    -0.232 N 
HETATM    2  C   UNL     1      43.215 -10.450   7.330  1.00  0.00     0.333 C 
HETATM    3  O   UNL     1      44.357 -10.567   7.749  1.00  0.00    -0.246 OA
HETATM    4  N   UNL     1      42.774 -11.071   6.166  1.00  0.00    -0.315 N 
HETATM    5  C   UNL     1      41.350 -10.918   5.968  1.00  0.00     0.191 C 
HETATM    6  C   UNL     1      41.074  -9.857   7.035  1.00  0.00     0.256 C 
HETATM    7  O   UNL     1      40.019  -9.228   7.069  1.00  0.00    -0.270 OA
ENDROOT
BRANCH   4   8
HETATM    8  C   UNL     1      43.611 -11.954   5.365  1.00  0.00     0.167 C 
BRANCH   8   9
HETATM    9  C   UNL     1      43.293 -13.413   5.598  1.00  0.00    -0.037 A 
HETATM   10  C   UNL     1      42.826 -14.220   4.547  1.00  0.00     0.048 A 
HETATM   11  C   UNL     1      42.545 -15.578   4.751  1.00  0.00     0.102 A 
HETATM   12  C   UNL     1      42.720 -16.143   6.030  1.00  0.00     0.101 A 
HETATM   13  C   UNL     1      43.165 -15.336   7.081  1.00  0.00     0.040 A 
HETATM   14  C   UNL     1      43.442 -13.985   6.867  1.00  0.00     0.012 A 
BRANCH  11  15
HETATM   15  O   UNL     1      42.101 -16.434   3.773  1.00  0.00    -0.353 OA
HETATM   16  C   UNL     1      43.030 -16.844   2.780  1.00  0.00     0.210 C 
ENDBRANCH  11  15
BRANCH  12  17
HETATM   17  O   UNL     1      42.433 -17.480   6.147  1.00  0.00    -0.353 OA
HETATM   18  C   UNL     1      43.521 -18.376   6.316  1.00  0.00     0.210 C 
ENDBRANCH  12  17
ENDBRANCH   8   9
ENDBRANCH   4   8
BRANCH   5  19
HETATM   19  C   UNL     1      40.905 -10.436   4.596  1.00  0.00     0.138 C 
BRANCH  19  20
HETATM   20  C   UNL     1      40.295 -11.588   3.815  1.00  0.00     0.224 C 
HETATM   21  N   UNL     1      40.803 -11.706   2.538  1.00  0.00    -0.327 N 
HETATM   22  H   UNL     1      41.400 -10.946   2.213  1.00  0.00     0.169 HD
HETATM   23  O   UNL     1      39.415 -12.275   4.324  1.00  0.00    -0.273 OA
BRANCH  21  24
HETATM   24  C   UNL     1      40.478 -12.660   1.554  1.00  0.00     0.034 A 
HETATM   25  C   UNL     1      40.835 -14.006   1.616  1.00  0.00     0.029 A 
HETATM   26  C   UNL     1      40.464 -14.881   0.589  1.00  0.00     0.002 A 
HETATM   27  C   UNL     1      39.742 -14.415  -0.509  1.00  0.00     0.000 A 
HETATM   28  C   UNL     1      39.387 -13.072  -0.581  1.00  0.00     0.002 A 
HETATM   29  C   UNL     1      39.752 -12.200   0.446  1.00  0.00     0.029 A 
ENDBRANCH  21  24
ENDBRANCH  19  20
ENDBRANCH   5  19
BRANCH   1  30
HETATM   30  C   UNL     1      42.221  -8.897   9.022  1.00  0.00     0.047 A 
HETATM   31  C   UNL     1      41.766  -9.332  10.274  1.00  0.00     0.033 A 
HETATM   32  C   UNL     1      41.868  -8.516  11.411  1.00  0.00     0.039 A 
HETATM   33  C   UNL     1      42.426  -7.243  11.330  1.00  0.00     0.068 A 
HETATM   34  C   UNL     1      42.844  -6.776  10.092  1.00  0.00     0.039 A 
HETATM   35  C   UNL     1      42.740  -7.593   8.956  1.00  0.00     0.033 A 
BRANCH  33  36
HETATM   36  O   UNL     1      42.495  -6.559  12.511  1.00  0.00    -0.356 OA
HETATM   37  C   UNL     1      42.955  -7.294  13.639  1.00  0.00     0.210 C 
ENDBRANCH  33  36
ENDBRANCH   1  30
TORSDOF 9
ENDMDL
