MODEL 1
REMARK VINA RESULT:      -9.0      0.000      0.000
REMARK  8 active torsions:
REMARK  status: ('A' for Active; 'I' for Inactive)
REMARK    1  A    between atoms: C_2  and  C_3 
REMARK    2  A    between atoms: C_3  and  O_4 
REMARK    3  A    between atoms: O_4  and  C_5 
REMARK    4  A    between atoms: C_7  and  C_8 
REMARK    5  A    between atoms: N_9  and  C_10 
REMARK    6  A    between atoms: C_10  and  C_11 
REMARK    7  A    between atoms: C_24  and  C_25 
REMARK    8  A    between atoms: C_26  and  O_27 
ROOT
HETATM    1  C   UNL     1      43.327 -15.374   4.625  1.00  0.00     0.159 A 
HETATM    2  N   UNL     1      43.250 -14.354   5.707  1.00  0.00    -0.329 N 
HETATM    3  C   UNL     1      43.292 -14.890   6.996  1.00  0.00     0.273 A 
HETATM    4  O   UNL     1      43.290 -14.303   8.063  1.00  0.00    -0.266 OA
HETATM    5  C   UNL     1      43.363 -16.283   6.772  1.00  0.00     0.129 A 
HETATM    6  C   UNL     1      43.398 -16.605   5.446  1.00  0.00     0.034 A 
HETATM    7  N   UNL     1      43.409 -17.421   7.478  1.00  0.00    -0.272 N 
HETATM    8  H   UNL     1      43.400 -17.553   8.486  1.00  0.00     0.189 HD
HETATM    9  N   UNL     1      43.464 -18.508   6.665  1.00  0.00    -0.173 NA
HETATM   10  C   UNL     1      43.513 -18.005   5.401  1.00  0.00     0.101 A 
ENDROOT
BRANCH   1  11
HETATM   11  C   UNL     1      42.072 -15.458   3.787  1.00  0.00    -0.028 A 
HETATM   12  C   UNL     1      42.097 -15.009   2.455  1.00  0.00     0.046 A 
HETATM   13  C   UNL     1      40.966 -15.085   1.636  1.00  0.00     0.069 A 
HETATM   14  C   UNL     1      39.780 -15.602   2.153  1.00  0.00     0.037 A 
HETATM   15  C   UNL     1      39.729 -16.045   3.475  1.00  0.00     0.003 A 
HETATM   16  C   UNL     1      40.863 -15.975   4.285  1.00  0.00     0.010 A 
BRANCH  13  17
HETATM   17  O   UNL     1      41.154 -14.621   0.363  1.00  0.00    -0.348 OA
BRANCH  17  18
HETATM   18  C   UNL     1      40.167 -13.730  -0.153  1.00  0.00     0.202 C 
BRANCH  18  19
HETATM   19  C   UNL     1      39.599 -14.356  -1.391  1.00  0.00    -0.011 C 
HETATM   20  C   UNL     1      39.957 -14.039  -2.642  1.00  0.00     0.009 C 
ENDBRANCH  18  19
ENDBRANCH  17  18
ENDBRANCH  13  17
ENDBRANCH   1  11
BRANCH   2  21
HETATM   21  C   UNL     1      43.304 -12.935   5.436  1.00  0.00     0.165 C 
BRANCH  21  22
HETATM   22  C   UNL     1      41.957 -12.382   5.053  1.00  0.00    -0.037 A 
HETATM   23  C   UNL     1      40.831 -12.615   5.848  1.00  0.00     0.028 A 
HETATM   24  C   UNL     1      39.614 -12.087   5.446  1.00  0.00     0.116 A 
HETATM   25  N   UNL     1      39.444 -11.361   4.320  1.00  0.00    -0.273 NA
HETATM   26  C   UNL     1      40.544 -11.146   3.566  1.00  0.00     0.116 A 
HETATM   27  C   UNL     1      41.802 -11.627   3.886  1.00  0.00     0.028 A 
ENDBRANCH  21  22
ENDBRANCH   2  21
BRANCH  10  28
HETATM   28  C   UNL     1      43.633 -18.900   4.247  1.00  0.00     0.028 A 
HETATM   29  C   UNL     1      44.014 -20.246   4.401  1.00  0.00     0.078 A 
HETATM   30  C   UNL     1      44.099 -21.104   3.306  1.00  0.00     0.037 A 
HETATM   31  C   UNL     1      43.827 -20.624   2.028  1.00  0.00     0.003 A 
HETATM   32  C   UNL     1      43.476 -19.287   1.847  1.00  0.00     0.001 A 
HETATM   33  C   UNL     1      43.383 -18.430   2.950  1.00  0.00     0.017 A 
BRANCH  29  34
HETATM   34  O   UNL     1      44.330 -20.785   5.622  1.00  0.00    -0.360 OA
HETATM   35  H   UNL     1      44.391 -20.025   6.245  1.00  0.00     0.217 HD
ENDBRANCH  29  34
ENDBRANCH  10  28
TORSDOF 8
ENDMDL
MODEL 2
REMARK VINA RESULT:      -8.7      2.354      4.867
REMARK  8 active torsions:
REMARK  status: ('A' for Active; 'I' for Inactive)
REMARK    1  A    between atoms: C_2  and  C_3 
REMARK    2  A    between atoms: C_3  and  O_4 
REMARK    3  A    between atoms: O_4  and  C_5 
REMARK    4  A    between atoms: C_7  and  C_8 
REMARK    5  A    between atoms: N_9  and  C_10 
REMARK    6  A    between atoms: C_10  and  C_11 
REMARK    7  A    between atoms: C_24  and  C_25 
REMARK    8  A    between atoms: C_26  and  O_27 
ROOT
HETATM    1  C   UNL     1      41.124 -15.749   3.763  1.00  0.00     0.159 A 
HETATM    2  N   UNL     1      40.673 -14.540   3.019  1.00  0.00    -0.329 N 
HETATM    3  C   UNL     1      41.345 -14.333   1.812  1.00  0.00     0.273 A 
HETATM    4  O   UNL     1      41.163 -13.461   0.982  1.00  0.00    -0.266 OA
HETATM    5  C   UNL     1      42.275 -15.395   1.766  1.00  0.00     0.129 A 
HETATM    6  C   UNL     1      42.179 -16.230   2.842  1.00  0.00     0.034 A 
HETATM    7  N   UNL     1      43.251 -15.853   0.969  1.00  0.00    -0.272 N 
HETATM    8  H   UNL     1      43.591 -15.476   0.089  1.00  0.00     0.189 HD
HETATM    9  N   UNL     1      43.827 -16.971   1.483  1.00  0.00    -0.173 NA
HETATM   10  C   UNL     1      43.129 -17.242   2.619  1.00  0.00     0.101 A 
ENDROOT
BRANCH   1  11
HETATM   11  C   UNL     1      41.784 -15.432   5.084  1.00  0.00    -0.028 A 
HETATM   12  C   UNL     1      42.807 -14.468   5.134  1.00  0.00     0.046 A 
HETATM   13  C   UNL     1      43.433 -14.127   6.338  1.00  0.00     0.069 A 
HETATM   14  C   UNL     1      43.049 -14.767   7.514  1.00  0.00     0.037 A 
HETATM   15  C   UNL     1      42.043 -15.734   7.487  1.00  0.00     0.003 A 
HETATM   16  C   UNL     1      41.415 -16.063   6.285  1.00  0.00     0.010 A 
BRANCH  13  17
HETATM   17  O   UNL     1      44.398 -13.165   6.223  1.00  0.00    -0.348 OA
BRANCH  17  18
HETATM   18  C   UNL     1      43.959 -11.807   6.226  1.00  0.00     0.202 C 
BRANCH  18  19
HETATM   19  C   UNL     1      44.495 -11.165   7.470  1.00  0.00    -0.011 C 
HETATM   20  C   UNL     1      45.776 -10.827   7.665  1.00  0.00     0.009 C 
ENDBRANCH  18  19
ENDBRANCH  17  18
ENDBRANCH  13  17
ENDBRANCH   1  11
BRANCH   2  21
HETATM   21  C   UNL     1      39.529 -13.760   3.434  1.00  0.00     0.165 C 
BRANCH  21  22
HETATM   22  C   UNL     1      39.926 -12.587   4.291  1.00  0.00    -0.037 A 
HETATM   23  C   UNL     1      39.657 -12.573   5.662  1.00  0.00     0.028 A 
HETATM   24  C   UNL     1      40.039 -11.465   6.402  1.00  0.00     0.116 A 
HETATM   25  N   UNL     1      40.654 -10.385   5.875  1.00  0.00    -0.273 NA
HETATM   26  C   UNL     1      40.907 -10.417   4.549  1.00  0.00     0.116 A 
HETATM   27  C   UNL     1      40.568 -11.479   3.728  1.00  0.00     0.028 A 
ENDBRANCH  21  22
ENDBRANCH   2  21
BRANCH  10  28
HETATM   28  C   UNL     1      43.443 -18.428   3.421  1.00  0.00     0.028 A 
HETATM   29  C   UNL     1      43.493 -19.710   2.844  1.00  0.00     0.078 A 
HETATM   30  C   UNL     1      43.820 -20.833   3.601  1.00  0.00     0.037 A 
HETATM   31  C   UNL     1      44.082 -20.697   4.963  1.00  0.00     0.003 A 
HETATM   32  C   UNL     1      44.010 -19.441   5.562  1.00  0.00     0.001 A 
HETATM   33  C   UNL     1      43.688 -18.314   4.797  1.00  0.00     0.017 A 
BRANCH  29  34
HETATM   34  O   UNL     1      43.216 -19.930   1.518  1.00  0.00    -0.360 OA
HETATM   35  H   UNL     1      43.070 -20.899   1.430  1.00  0.00     0.217 HD
ENDBRANCH  29  34
ENDBRANCH  10  28
TORSDOF 8
ENDMDL
MODEL 3
REMARK VINA RESULT:      -8.5      2.235      6.865
REMARK  8 active torsions:
REMARK  status: ('A' for Active; 'I' for Inactive)
REMARK    1  A    between atoms: C_2  and  C_3 
REMARK    2  A    between atoms: C_3  and  O_4 
REMARK    3  A    between atoms: O_4  and  C_5 
REMARK    4  A    between atoms: C_7  and  C_8 
REMARK    5  A    between atoms: N_9  and  C_10 
REMARK    6  A    between atoms: C_10  and  C_11 
REMARK    7  A    between atoms: C_24  and  C_25 
REMARK    8  A    between atoms: C_26  and  O_27 
ROOT
HETATM    1  C   UNL     1      39.645 -13.343   3.127  1.00  0.00     0.159 A 
HETATM    2  N   UNL     1      39.769 -12.566   4.392  1.00  0.00    -0.329 N 
HETATM    3  C   UNL     1      39.628 -11.187   4.227  1.00  0.00     0.273 A 
HETATM    4  O   UNL     1      39.639 -10.315   5.077  1.00  0.00    -0.266 OA
HETATM    5  C   UNL     1      39.441 -11.039   2.834  1.00  0.00     0.129 A 
HETATM    6  C   UNL     1      39.430 -12.232   2.172  1.00  0.00     0.034 A 
HETATM    7  N   UNL     1      39.263 -10.061   1.935  1.00  0.00    -0.272 N 
HETATM    8  H   UNL     1      39.220  -9.056   2.079  1.00  0.00     0.189 HD
HETATM    9  N   UNL     1      39.143 -10.560   0.677  1.00  0.00    -0.173 NA
HETATM   10  C   UNL     1      39.191 -11.912   0.824  1.00  0.00     0.101 A 
ENDROOT
BRANCH   1  11
HETATM   11  C   UNL     1      40.919 -14.048   2.726  1.00  0.00    -0.028 A 
HETATM   12  C   UNL     1      40.946 -15.453   2.671  1.00  0.00     0.046 A 
HETATM   13  C   UNL     1      42.097 -16.149   2.286  1.00  0.00     0.069 A 
HETATM   14  C   UNL     1      43.251 -15.437   1.964  1.00  0.00     0.037 A 
HETATM   15  C   UNL     1      43.250 -14.043   2.021  1.00  0.00     0.003 A 
HETATM   16  C   UNL     1      42.097 -13.354   2.397  1.00  0.00     0.010 A 
BRANCH  13  17
HETATM   17  O   UNL     1      41.959 -17.509   2.269  1.00  0.00    -0.348 OA
BRANCH  17  18
HETATM   18  C   UNL     1      43.116 -18.280   2.592  1.00  0.00     0.202 C 
BRANCH  18  19
HETATM   19  C   UNL     1      42.856 -19.688   2.147  1.00  0.00    -0.011 C 
HETATM   20  C   UNL     1      43.796 -20.542   1.724  1.00  0.00     0.009 C 
ENDBRANCH  18  19
ENDBRANCH  17  18
ENDBRANCH  13  17
ENDBRANCH   1  11
BRANCH   2  21
HETATM   21  C   UNL     1      39.854 -13.206   5.685  1.00  0.00     0.165 C 
BRANCH  21  22
HETATM   22  C   UNL     1      41.264 -13.617   6.020  1.00  0.00    -0.037 A 
HETATM   23  C   UNL     1      42.306 -12.685   6.017  1.00  0.00     0.028 A 
HETATM   24  C   UNL     1      43.586 -13.120   6.326  1.00  0.00     0.116 A 
HETATM   25  N   UNL     1      43.893 -14.400   6.627  1.00  0.00    -0.273 NA
HETATM   26  C   UNL     1      42.873 -15.285   6.626  1.00  0.00     0.116 A 
HETATM   27  C   UNL     1      41.562 -14.947   6.335  1.00  0.00     0.028 A 
ENDBRANCH  21  22
ENDBRANCH   2  21
BRANCH  10  28
HETATM   28  C   UNL     1      39.037 -12.793  -0.337  1.00  0.00     0.028 A 
HETATM   29  C   UNL     1      38.069 -12.540  -1.325  1.00  0.00     0.078 A 
HETATM   30  C   UNL     1      37.943 -13.362  -2.444  1.00  0.00     0.037 A 
HETATM   31  C   UNL     1      38.772 -14.472  -2.583  1.00  0.00     0.003 A 
HETATM   32  C   UNL     1      39.719 -14.760  -1.602  1.00  0.00     0.001 A 
HETATM   33  C   UNL     1      39.848 -13.928  -0.484  1.00  0.00     0.017 A 
BRANCH  29  34
HETATM   34  O   UNL     1      37.194 -11.486  -1.243  1.00  0.00    -0.360 OA
HETATM   35  H   UNL     1      36.486 -11.770  -0.622  1.00  0.00     0.217 HD
ENDBRANCH  29  34
ENDBRANCH  10  28
TORSDOF 8
ENDMDL
MODEL 4
REMARK VINA RESULT:      -8.3      2.873      6.005
REMARK  8 active torsions:
REMARK  status: ('A' for Active; 'I' for Inactive)
REMARK    1  A    between atoms: C_2  and  C_3 
REMARK    2  A    between atoms: C_3  and  O_4 
REMARK    3  A    between atoms: O_4  and  C_5 
REMARK    4  A    between atoms: C_7  and  C_8 
REMARK    5  A    between atoms: N_9  and  C_10 
REMARK    6  A    between atoms: C_10  and  C_11 
REMARK    7  A    between atoms: C_24  and  C_25 
REMARK    8  A    between atoms: C_26  and  O_27 
ROOT
HETATM    1  C   UNL     1      40.506 -13.210   4.771  1.00  0.00     0.159 A 
HETATM    2  N   UNL     1      39.524 -12.252   4.192  1.00  0.00    -0.329 N 
HETATM    3  C   UNL     1      39.016 -12.642   2.951  1.00  0.00     0.273 A 
HETATM    4  O   UNL     1      38.176 -12.087   2.266  1.00  0.00    -0.266 OA
HETATM    5  C   UNL     1      39.691 -13.854   2.684  1.00  0.00     0.129 A 
HETATM    6  C   UNL     1      40.535 -14.223   3.691  1.00  0.00     0.034 A 
HETATM    7  N   UNL     1      39.760 -14.783   1.720  1.00  0.00    -0.272 N 
HETATM    8  H   UNL     1      39.269 -14.825   0.832  1.00  0.00     0.189 HD
HETATM    9  N   UNL     1      40.638 -15.768   2.044  1.00  0.00    -0.173 NA
HETATM   10  C   UNL     1      41.083 -15.455   3.291  1.00  0.00     0.101 A 
ENDROOT
BRANCH   1  11
HETATM   11  C   UNL     1      41.900 -12.641   4.898  1.00  0.00    -0.028 A 
HETATM   12  C   UNL     1      42.514 -12.586   6.161  1.00  0.00     0.046 A 
HETATM   13  C   UNL     1      43.810 -12.086   6.324  1.00  0.00     0.069 A 
HETATM   14  C   UNL     1      44.506 -11.613   5.214  1.00  0.00     0.037 A 
HETATM   15  C   UNL     1      43.912 -11.648   3.951  1.00  0.00     0.003 A 
HETATM   16  C   UNL     1      42.623 -12.157   3.793  1.00  0.00     0.010 A 
BRANCH  13  17
HETATM   17  O   UNL     1      44.271 -12.113   7.612  1.00  0.00    -0.348 OA
BRANCH  17  18
HETATM   18  C   UNL     1      44.112 -10.921   8.380  1.00  0.00     0.202 C 
BRANCH  18  19
HETATM   19  C   UNL     1      45.483 -10.389   8.673  1.00  0.00    -0.011 C 
HETATM   20  C   UNL     1      45.958  -9.217   8.232  1.00  0.00     0.009 C 
ENDBRANCH  18  19
ENDBRANCH  17  18
ENDBRANCH  13  17
ENDBRANCH   1  11
BRANCH   2  21
HETATM   21  C   UNL     1      39.022 -11.118   4.934  1.00  0.00     0.165 C 
BRANCH  21  22
HETATM   22  C   UNL     1      39.832  -9.874   4.681  1.00  0.00    -0.037 A 
HETATM   23  C   UNL     1      39.749  -9.197   3.461  1.00  0.00     0.028 A 
HETATM   24  C   UNL     1      40.522  -8.060   3.279  1.00  0.00     0.116 A 
HETATM   25  N   UNL     1      41.362  -7.566   4.212  1.00  0.00    -0.273 NA
HETATM   26  C   UNL     1      41.428  -8.233   5.385  1.00  0.00     0.116 A 
HETATM   27  C   UNL     1      40.693  -9.373   5.663  1.00  0.00     0.028 A 
ENDBRANCH  21  22
ENDBRANCH   2  21
BRANCH  10  28
HETATM   28  C   UNL     1      42.019 -16.337   3.992  1.00  0.00     0.028 A 
HETATM   29  C   UNL     1      43.044 -17.012   3.304  1.00  0.00     0.078 A 
HETATM   30  C   UNL     1      43.952 -17.827   3.976  1.00  0.00     0.037 A 
HETATM   31  C   UNL     1      43.837 -18.003   5.353  1.00  0.00     0.003 A 
HETATM   32  C   UNL     1      42.812 -17.368   6.052  1.00  0.00     0.001 A 
HETATM   33  C   UNL     1      41.907 -16.543   5.375  1.00  0.00     0.017 A 
BRANCH  29  34
HETATM   34  O   UNL     1      43.202 -16.916   1.945  1.00  0.00    -0.360 OA
HETATM   35  H   UNL     1      43.563 -17.784   1.653  1.00  0.00     0.217 HD
ENDBRANCH  29  34
ENDBRANCH  10  28
TORSDOF 8
ENDMDL
MODEL 5
REMARK VINA RESULT:      -8.1      1.531      2.231
REMARK  8 active torsions:
REMARK  status: ('A' for Active; 'I' for Inactive)
REMARK    1  A    between atoms: C_2  and  C_3 
REMARK    2  A    between atoms: C_3  and  O_4 
REMARK    3  A    between atoms: O_4  and  C_5 
REMARK    4  A    between atoms: C_7  and  C_8 
REMARK    5  A    between atoms: N_9  and  C_10 
REMARK    6  A    between atoms: C_10  and  C_11 
REMARK    7  A    between atoms: C_24  and  C_25 
REMARK    8  A    between atoms: C_26  and  O_27 
ROOT
HETATM    1  C   UNL     1      43.306 -15.050   4.468  1.00  0.00     0.159 A 
HETATM    2  N   UNL     1      43.233 -13.956   5.475  1.00  0.00    -0.329 N 
HETATM    3  C   UNL     1      43.287 -14.398   6.799  1.00  0.00     0.273 A 
HETATM    4  O   UNL     1      43.290 -13.737   7.821  1.00  0.00    -0.266 OA
HETATM    5  C   UNL     1      43.363 -15.804   6.674  1.00  0.00     0.129 A 
HETATM    6  C   UNL     1      43.390 -16.219   5.374  1.00  0.00     0.034 A 
HETATM    7  N   UNL     1      43.421 -16.888   7.459  1.00  0.00    -0.272 N 
HETATM    8  H   UNL     1      43.420 -16.948   8.473  1.00  0.00     0.189 HD
HETATM    9  N   UNL     1      43.476 -18.030   6.725  1.00  0.00    -0.173 NA
HETATM   10  C   UNL     1      43.512 -17.619   5.428  1.00  0.00     0.101 A 
ENDROOT
BRANCH   1  11
HETATM   11  C   UNL     1      42.046 -15.200   3.648  1.00  0.00    -0.028 A 
HETATM   12  C   UNL     1      42.012 -14.705   2.333  1.00  0.00     0.046 A 
HETATM   13  C   UNL     1      40.874 -14.839   1.529  1.00  0.00     0.069 A 
HETATM   14  C   UNL     1      39.740 -15.460   2.047  1.00  0.00     0.037 A 
HETATM   15  C   UNL     1      39.747 -15.950   3.354  1.00  0.00     0.003 A 
HETATM   16  C   UNL     1      40.888 -15.823   4.147  1.00  0.00     0.010 A 
BRANCH  13  17
HETATM   17  O   UNL     1      41.004 -14.319   0.271  1.00  0.00    -0.348 OA
BRANCH  17  18
HETATM   18  C   UNL     1      39.829 -13.771  -0.326  1.00  0.00     0.202 C 
BRANCH  18  19
HETATM   19  C   UNL     1      39.596 -14.506  -1.612  1.00  0.00    -0.011 C 
HETATM   20  C   UNL     1      38.580 -14.270  -2.453  1.00  0.00     0.009 C 
ENDBRANCH  18  19
ENDBRANCH  17  18
ENDBRANCH  13  17
ENDBRANCH   1  11
BRANCH   2  21
HETATM   21  C   UNL     1      43.277 -12.560   5.103  1.00  0.00     0.165 C 
BRANCH  21  22
HETATM   22  C   UNL     1      44.020 -11.729   6.116  1.00  0.00    -0.037 A 
HETATM   23  C   UNL     1      43.339 -10.859   6.972  1.00  0.00     0.028 A 
HETATM   24  C   UNL     1      44.074 -10.114   7.881  1.00  0.00     0.116 A 
HETATM   25  N   UNL     1      45.418 -10.170   7.988  1.00  0.00    -0.273 NA
HETATM   26  C   UNL     1      46.058 -11.017   7.153  1.00  0.00     0.116 A 
HETATM   27  C   UNL     1      45.413 -11.806   6.216  1.00  0.00     0.028 A 
ENDBRANCH  21  22
ENDBRANCH   2  21
BRANCH  10  28
HETATM   28  C   UNL     1      43.628 -18.593   4.340  1.00  0.00     0.028 A 
HETATM   29  C   UNL     1      43.918 -19.946   4.596  1.00  0.00     0.078 A 
HETATM   30  C   UNL     1      43.999 -20.878   3.564  1.00  0.00     0.037 A 
HETATM   31  C   UNL     1      43.815 -20.467   2.245  1.00  0.00     0.003 A 
HETATM   32  C   UNL     1      43.556 -19.127   1.964  1.00  0.00     0.001 A 
HETATM   33  C   UNL     1      43.467 -18.195   3.005  1.00  0.00     0.017 A 
BRANCH  29  34
HETATM   34  O   UNL     1      44.145 -20.421   5.863  1.00  0.00    -0.360 OA
HETATM   35  H   UNL     1      44.980 -20.940   5.812  1.00  0.00     0.217 HD
ENDBRANCH  29  34
ENDBRANCH  10  28
TORSDOF 8
ENDMDL
MODEL 6
REMARK VINA RESULT:      -8.1      2.786      7.603
REMARK  8 active torsions:
REMARK  status: ('A' for Active; 'I' for Inactive)
REMARK    1  A    between atoms: C_2  and  C_3 
REMARK    2  A    between atoms: C_3  and  O_4 
REMARK    3  A    between atoms: O_4  and  C_5 
REMARK    4  A    between atoms: C_7  and  C_8 
REMARK    5  A    between atoms: N_9  and  C_10 
REMARK    6  A    between atoms: C_10  and  C_11 
REMARK    7  A    between atoms: C_24  and  C_25 
REMARK    8  A    between atoms: C_26  and  O_27 
ROOT
HETATM    1  C   UNL     1      42.535 -14.846   4.638  1.00  0.00     0.159 A 
HETATM    2  N   UNL     1      43.132 -16.080   5.221  1.00  0.00    -0.329 N 
HETATM    3  C   UNL     1      42.362 -16.660   6.231  1.00  0.00     0.273 A 
HETATM    4  O   UNL     1      42.573 -17.685   6.854  1.00  0.00    -0.266 OA
HETATM    5  C   UNL     1      41.257 -15.786   6.347  1.00  0.00     0.129 A 
HETATM    6  C   UNL     1      41.305 -14.753   5.458  1.00  0.00     0.034 A 
HETATM    7  N   UNL     1      40.143 -15.655   7.080  1.00  0.00    -0.272 N 
HETATM    8  H   UNL     1      39.795 -16.244   7.832  1.00  0.00     0.189 HD
HETATM    9  N   UNL     1      39.438 -14.552   6.718  1.00  0.00    -0.173 NA
HETATM   10  C   UNL     1      40.126 -14.016   5.673  1.00  0.00     0.101 A 
ENDROOT
BRANCH   1  11
HETATM   11  C   UNL     1      43.351 -13.601   4.899  1.00  0.00    -0.028 A 
HETATM   12  C   UNL     1      43.733 -13.287   6.216  1.00  0.00     0.046 A 
HETATM   13  C   UNL     1      44.505 -12.156   6.504  1.00  0.00     0.069 A 
HETATM   14  C   UNL     1      44.892 -11.310   5.467  1.00  0.00     0.037 A 
HETATM   15  C   UNL     1      44.516 -11.597   4.154  1.00  0.00     0.003 A 
HETATM   16  C   UNL     1      43.753 -12.731   3.872  1.00  0.00     0.010 A 
BRANCH  13  17
HETATM   17  O   UNL     1      44.806 -11.997   7.828  1.00  0.00    -0.348 OA
BRANCH  17  18
HETATM   18  C   UNL     1      44.285 -10.836   8.473  1.00  0.00     0.202 C 
BRANCH  18  19
HETATM   19  C   UNL     1      45.453 -10.032   8.962  1.00  0.00    -0.011 C 
HETATM   20  C   UNL     1      46.049  -9.052   8.271  1.00  0.00     0.009 C 
ENDBRANCH  18  19
ENDBRANCH  17  18
ENDBRANCH  13  17
ENDBRANCH   1  11
BRANCH   2  21
HETATM   21  C   UNL     1      44.311 -16.704   4.665  1.00  0.00     0.165 C 
BRANCH  21  22
HETATM   22  C   UNL     1      43.983 -17.979   3.934  1.00  0.00    -0.037 A 
HETATM   23  C   UNL     1      43.293 -17.956   2.719  1.00  0.00     0.028 A 
HETATM   24  C   UNL     1      43.012 -19.160   2.092  1.00  0.00     0.116 A 
HETATM   25  N   UNL     1      43.361 -20.366   2.589  1.00  0.00    -0.273 NA
HETATM   26  C   UNL     1      44.029 -20.368   3.763  1.00  0.00     0.116 A 
HETATM   27  C   UNL     1      44.359 -19.219   4.462  1.00  0.00     0.028 A 
ENDBRANCH  21  22
ENDBRANCH   2  21
BRANCH  10  28
HETATM   28  C   UNL     1      39.624 -12.826   4.982  1.00  0.00     0.028 A 
HETATM   29  C   UNL     1      39.247 -11.671   5.691  1.00  0.00     0.078 A 
HETATM   30  C   UNL     1      38.797 -10.530   5.031  1.00  0.00     0.037 A 
HETATM   31  C   UNL     1      38.694 -10.530   3.642  1.00  0.00     0.003 A 
HETATM   32  C   UNL     1      39.034 -11.671   2.920  1.00  0.00     0.001 A 
HETATM   33  C   UNL     1      39.492 -12.814   3.585  1.00  0.00     0.017 A 
BRANCH  29  34
HETATM   34  O   UNL     1      39.289 -11.605   7.061  1.00  0.00    -0.360 OA
HETATM   35  H   UNL     1      39.396 -12.532   7.374  1.00  0.00     0.217 HD
ENDBRANCH  29  34
ENDBRANCH  10  28
TORSDOF 8
ENDMDL
MODEL 7
REMARK VINA RESULT:      -8.0      5.153      9.456
REMARK  8 active torsions:
REMARK  status: ('A' for Active; 'I' for Inactive)
REMARK    1  A    between atoms: C_2  and  C_3 
REMARK    2  A    between atoms: C_3  and  O_4 
REMARK    3  A    between atoms: O_4  and  C_5 
REMARK    4  A    between atoms: C_7  and  C_8 
REMARK    5  A    between atoms: N_9  and  C_10 
REMARK    6  A    between atoms: C_10  and  C_11 
REMARK    7  A    between atoms: C_24  and  C_25 
REMARK    8  A    between atoms: C_26  and  O_27 
ROOT
HETATM    1  C   UNL     1      42.833 -10.820   7.633  1.00  0.00     0.159 A 
HETATM    2  N   UNL     1      43.434 -11.206   6.326  1.00  0.00    -0.329 N 
HETATM    3  C   UNL     1      44.807 -10.971   6.242  1.00  0.00     0.273 A 
HETATM    4  O   UNL     1      45.567 -11.222   5.324  1.00  0.00    -0.266 OA
HETATM    5  C   UNL     1      45.120 -10.392   7.492  1.00  0.00     0.129 A 
HETATM    6  C   UNL     1      44.038 -10.298   8.318  1.00  0.00     0.034 A 
HETATM    7  N   UNL     1      46.183  -9.892   8.140  1.00  0.00    -0.272 N 
HETATM    8  H   UNL     1      47.144  -9.805   7.824  1.00  0.00     0.189 HD
HETATM    9  N   UNL     1      45.846  -9.452   9.380  1.00  0.00    -0.173 NA
HETATM   10  C   UNL     1      44.525  -9.751   9.518  1.00  0.00     0.101 A 
ENDROOT
BRANCH   1  11
HETATM   11  C   UNL     1      41.841  -9.685   7.528  1.00  0.00    -0.028 A 
HETATM   12  C   UNL     1      40.689  -9.695   8.334  1.00  0.00     0.046 A 
HETATM   13  C   UNL     1      39.753  -8.656   8.285  1.00  0.00     0.069 A 
HETATM   14  C   UNL     1      39.955  -7.593   7.408  1.00  0.00     0.037 A 
HETATM   15  C   UNL     1      41.087  -7.568   6.592  1.00  0.00     0.003 A 
HETATM   16  C   UNL     1      42.022  -8.602   6.651  1.00  0.00     0.010 A 
BRANCH  13  17
HETATM   17  O   UNL     1      38.694  -8.806   9.139  1.00  0.00    -0.348 OA
BRANCH  17  18
HETATM   18  C   UNL     1      38.507  -7.787  10.120  1.00  0.00     0.202 C 
BRANCH  18  19
HETATM   19  C   UNL     1      39.291  -8.183  11.335  1.00  0.00    -0.011 C 
HETATM   20  C   UNL     1      39.005  -7.803  12.587  1.00  0.00     0.009 C 
ENDBRANCH  18  19
ENDBRANCH  17  18
ENDBRANCH  13  17
ENDBRANCH   1  11
BRANCH   2  21
HETATM   21  C   UNL     1      42.687 -11.917   5.313  1.00  0.00     0.165 C 
BRANCH  21  22
HETATM   22  C   UNL     1      42.146 -13.226   5.825  1.00  0.00    -0.037 A 
HETATM   23  C   UNL     1      43.007 -14.250   6.232  1.00  0.00     0.028 A 
HETATM   24  C   UNL     1      42.455 -15.437   6.689  1.00  0.00     0.116 A 
HETATM   25  N   UNL     1      41.128 -15.672   6.760  1.00  0.00    -0.273 NA
HETATM   26  C   UNL     1      40.313 -14.670   6.363  1.00  0.00     0.116 A 
HETATM   27  C   UNL     1      40.767 -13.449   5.897  1.00  0.00     0.028 A 
ENDBRANCH  21  22
ENDBRANCH   2  21
BRANCH  10  28
HETATM   28  C   UNL     1      43.823  -9.463  10.771  1.00  0.00     0.028 A 
HETATM   29  C   UNL     1      43.444 -10.493  11.652  1.00  0.00     0.078 A 
HETATM   30  C   UNL     1      42.803 -10.216  12.858  1.00  0.00     0.037 A 
HETATM   31  C   UNL     1      42.506  -8.898  13.196  1.00  0.00     0.003 A 
HETATM   32  C   UNL     1      42.845  -7.863  12.326  1.00  0.00     0.001 A 
HETATM   33  C   UNL     1      43.496  -8.144  11.120  1.00  0.00     0.017 A 
BRANCH  29  34
HETATM   34  O   UNL     1      43.672 -11.817  11.374  1.00  0.00    -0.360 OA
HETATM   35  H   UNL     1      43.633 -12.285  12.239  1.00  0.00     0.217 HD
ENDBRANCH  29  34
ENDBRANCH  10  28
TORSDOF 8
ENDMDL
MODEL 8
REMARK VINA RESULT:      -7.9      2.574      8.283
REMARK  8 active torsions:
REMARK  status: ('A' for Active; 'I' for Inactive)
REMARK    1  A    between atoms: C_2  and  C_3 
REMARK    2  A    between atoms: C_3  and  O_4 
REMARK    3  A    between atoms: O_4  and  C_5 
REMARK    4  A    between atoms: C_7  and  C_8 
REMARK    5  A    between atoms: N_9  and  C_10 
REMARK    6  A    between atoms: C_10  and  C_11 
REMARK    7  A    between atoms: C_24  and  C_25 
REMARK    8  A    between atoms: C_26  and  O_27 
ROOT
HETATM    1  C   UNL     1      42.237 -13.211   2.910  1.00  0.00     0.159 A 
HETATM    2  N   UNL     1      42.178 -14.624   2.443  1.00  0.00    -0.329 N 
HETATM    3  C   UNL     1      40.882 -15.095   2.224  1.00  0.00     0.273 A 
HETATM    4  O   UNL     1      40.530 -16.183   1.805  1.00  0.00    -0.266 OA
HETATM    5  C   UNL     1      40.067 -13.997   2.580  1.00  0.00     0.129 A 
HETATM    6  C   UNL     1      40.789 -12.904   2.962  1.00  0.00     0.034 A 
HETATM    7  N   UNL     1      38.766 -13.686   2.660  1.00  0.00    -0.272 N 
HETATM    8  H   UNL     1      37.954 -14.261   2.453  1.00  0.00     0.189 HD
HETATM    9  N   UNL     1      38.587 -12.412   3.097  1.00  0.00    -0.173 NA
HETATM   10  C   UNL     1      39.841 -11.903   3.235  1.00  0.00     0.101 A 
ENDROOT
BRANCH   1  11
HETATM   11  C   UNL     1      42.785 -13.062   4.310  1.00  0.00    -0.028 A 
HETATM   12  C   UNL     1      43.772 -12.094   4.568  1.00  0.00     0.046 A 
HETATM   13  C   UNL     1      44.295 -11.907   5.853  1.00  0.00     0.069 A 
HETATM   14  C   UNL     1      43.841 -12.706   6.900  1.00  0.00     0.037 A 
HETATM   15  C   UNL     1      42.869 -13.680   6.664  1.00  0.00     0.003 A 
HETATM   16  C   UNL     1      42.345 -13.856   5.383  1.00  0.00     0.010 A 
BRANCH  13  17
HETATM   17  O   UNL     1      45.236 -10.919   5.944  1.00  0.00    -0.348 OA
BRANCH  17  18
HETATM   18  C   UNL     1      46.120 -10.970   7.062  1.00  0.00     0.202 C 
BRANCH  18  19
HETATM   19  C   UNL     1      45.931  -9.704   7.843  1.00  0.00    -0.011 C 
HETATM   20  C   UNL     1      45.491  -9.644   9.106  1.00  0.00     0.009 C 
ENDBRANCH  18  19
ENDBRANCH  17  18
ENDBRANCH  13  17
ENDBRANCH   1  11
BRANCH   2  21
HETATM   21  C   UNL     1      43.364 -15.370   2.087  1.00  0.00     0.165 C 
BRANCH  21  22
HETATM   22  C   UNL     1      43.518 -16.616   2.918  1.00  0.00    -0.037 A 
HETATM   23  C   UNL     1      43.518 -17.882   2.324  1.00  0.00     0.028 A 
HETATM   24  C   UNL     1      43.657 -18.996   3.137  1.00  0.00     0.116 A 
HETATM   25  N   UNL     1      43.786 -18.936   4.480  1.00  0.00    -0.273 NA
HETATM   26  C   UNL     1      43.784 -17.705   5.035  1.00  0.00     0.116 A 
HETATM   27  C   UNL     1      43.656 -16.534   4.307  1.00  0.00     0.028 A 
ENDBRANCH  21  22
ENDBRANCH   2  21
BRANCH  10  28
HETATM   28  C   UNL     1      40.039 -10.510   3.646  1.00  0.00     0.028 A 
HETATM   29  C   UNL     1      39.669  -9.440   2.810  1.00  0.00     0.078 A 
HETATM   30  C   UNL     1      39.830  -8.117   3.214  1.00  0.00     0.037 A 
HETATM   31  C   UNL     1      40.389  -7.836   4.458  1.00  0.00     0.003 A 
HETATM   32  C   UNL     1      40.789  -8.879   5.292  1.00  0.00     0.001 A 
HETATM   33  C   UNL     1      40.619 -10.207   4.886  1.00  0.00     0.017 A 
BRANCH  29  34
HETATM   34  O   UNL     1      39.144  -9.635   1.557  1.00  0.00    -0.360 OA
HETATM   35  H   UNL     1      39.089  -8.742   1.146  1.00  0.00     0.217 HD
ENDBRANCH  29  34
ENDBRANCH  10  28
TORSDOF 8
ENDMDL
MODEL 9
REMARK VINA RESULT:      -7.9      2.780      7.595
REMARK  8 active torsions:
REMARK  status: ('A' for Active; 'I' for Inactive)
REMARK    1  A    between atoms: C_2  and  C_3 
REMARK    2  A    between atoms: C_3  and  O_4 
REMARK    3  A    between atoms: O_4  and  C_5 
REMARK    4  A    between atoms: C_7  and  C_8 
REMARK    5  A    between atoms: N_9  and  C_10 
REMARK    6  A    between atoms: C_10  and  C_11 
REMARK    7  A    between atoms: C_24  and  C_25 
REMARK    8  A    between atoms: C_26  and  O_27 
ROOT
HETATM    1  C   UNL     1      42.683 -14.111   2.217  1.00  0.00     0.159 A 
HETATM    2  N   UNL     1      42.509 -15.530   2.636  1.00  0.00    -0.329 N 
HETATM    3  C   UNL     1      41.408 -16.162   2.055  1.00  0.00     0.273 A 
HETATM    4  O   UNL     1      41.043 -17.317   2.176  1.00  0.00    -0.266 OA
HETATM    5  C   UNL     1      40.822 -15.146   1.266  1.00  0.00     0.129 A 
HETATM    6  C   UNL     1      41.516 -13.972   1.315  1.00  0.00     0.034 A 
HETATM    7  N   UNL     1      39.767 -14.973   0.459  1.00  0.00    -0.272 N 
HETATM    8  H   UNL     1      39.041 -15.635   0.199  1.00  0.00     0.189 HD
HETATM    9  N   UNL     1      39.721 -13.707  -0.033  1.00  0.00    -0.173 NA
HETATM   10  C   UNL     1      40.836 -13.096   0.452  1.00  0.00     0.101 A 
ENDROOT
BRANCH   1  11
HETATM   11  C   UNL     1      42.507 -13.123   3.346  1.00  0.00    -0.028 A 
HETATM   12  C   UNL     1      43.633 -12.465   3.872  1.00  0.00     0.046 A 
HETATM   13  C   UNL     1      43.516 -11.528   4.905  1.00  0.00     0.069 A 
HETATM   14  C   UNL     1      42.259 -11.249   5.437  1.00  0.00     0.037 A 
HETATM   15  C   UNL     1      41.129 -11.898   4.936  1.00  0.00     0.003 A 
HETATM   16  C   UNL     1      41.250 -12.825   3.900  1.00  0.00     0.010 A 
BRANCH  13  17
HETATM   17  O   UNL     1      44.699 -10.965   5.297  1.00  0.00    -0.348 OA
BRANCH  17  18
HETATM   18  C   UNL     1      45.370 -11.575   6.399  1.00  0.00     0.202 C 
BRANCH  18  19
HETATM   19  C   UNL     1      45.729 -10.486   7.364  1.00  0.00    -0.011 C 
HETATM   20  C   UNL     1      45.340 -10.440   8.645  1.00  0.00     0.009 C 
ENDBRANCH  18  19
ENDBRANCH  17  18
ENDBRANCH  13  17
ENDBRANCH   1  11
BRANCH   2  21
HETATM   21  C   UNL     1      43.493 -16.225   3.435  1.00  0.00     0.165 C 
BRANCH  21  22
HETATM   22  C   UNL     1      43.163 -16.180   4.903  1.00  0.00    -0.037 A 
HETATM   23  C   UNL     1      44.167 -16.275   5.870  1.00  0.00     0.028 A 
HETATM   24  C   UNL     1      43.806 -16.233   7.208  1.00  0.00     0.116 A 
HETATM   25  N   UNL     1      42.533 -16.112   7.640  1.00  0.00    -0.273 NA
HETATM   26  C   UNL     1      41.576 -16.019   6.691  1.00  0.00     0.116 A 
HETATM   27  C   UNL     1      41.838 -16.046   5.332  1.00  0.00     0.028 A 
ENDBRANCH  21  22
ENDBRANCH   2  21
BRANCH  10  28
HETATM   28  C   UNL     1      41.148 -11.713   0.080  1.00  0.00     0.028 A 
HETATM   29  C   UNL     1      41.449 -11.362  -1.249  1.00  0.00     0.078 A 
HETATM   30  C   UNL     1      41.717 -10.043  -1.607  1.00  0.00     0.037 A 
HETATM   31  C   UNL     1      41.714  -9.047  -0.632  1.00  0.00     0.003 A 
HETATM   32  C   UNL     1      41.447  -9.375   0.696  1.00  0.00     0.001 A 
HETATM   33  C   UNL     1      41.170 -10.700   1.050  1.00  0.00     0.017 A 
BRANCH  29  34
HETATM   34  O   UNL     1      41.505 -12.290  -2.258  1.00  0.00    -0.360 OA
HETATM   35  H   UNL     1      40.612 -12.701  -2.297  1.00  0.00     0.217 HD
ENDBRANCH  29  34
ENDBRANCH  10  28
TORSDOF 8
ENDMDL
MODEL 10
REMARK VINA RESULT:      -7.8      1.791      2.266
REMARK  8 active torsions:
REMARK  status: ('A' for Active; 'I' for Inactive)
REMARK    1  A    between atoms: C_2  and  C_3 
REMARK    2  A    between atoms: C_3  and  O_4 
REMARK    3  A    between atoms: O_4  and  C_5 
REMARK    4  A    between atoms: C_7  and  C_8 
REMARK    5  A    between atoms: N_9  and  C_10 
REMARK    6  A    between atoms: C_10  and  C_11 
REMARK    7  A    between atoms: C_24  and  C_25 
REMARK    8  A    between atoms: C_26  and  O_27 
ROOT
HETATM    1  C   UNL     1      43.355 -13.519   4.591  1.00  0.00     0.159 A 
HETATM    2  N   UNL     1      43.516 -12.495   5.661  1.00  0.00    -0.329 N 
HETATM    3  C   UNL     1      43.615 -13.029   6.947  1.00  0.00     0.273 A 
HETATM    4  O   UNL     1      43.793 -12.445   8.001  1.00  0.00    -0.266 OA
HETATM    5  C   UNL     1      43.483 -14.421   6.738  1.00  0.00     0.129 A 
HETATM    6  C   UNL     1      43.347 -14.747   5.420  1.00  0.00     0.034 A 
HETATM    7  N   UNL     1      43.453 -15.554   7.453  1.00  0.00    -0.272 N 
HETATM    8  H   UNL     1      43.525 -15.681   8.459  1.00  0.00     0.189 HD
HETATM    9  N   UNL     1      43.288 -16.640   6.654  1.00  0.00    -0.173 NA
HETATM   10  C   UNL     1      43.277 -16.150   5.384  1.00  0.00     0.101 A 
ENDROOT
BRANCH   1  11
HETATM   11  C   UNL     1      42.023 -13.442   3.881  1.00  0.00    -0.028 A 
HETATM   12  C   UNL     1      41.992 -13.354   2.478  1.00  0.00     0.046 A 
HETATM   13  C   UNL     1      40.783 -13.300   1.775  1.00  0.00     0.069 A 
HETATM   14  C   UNL     1      39.581 -13.318   2.479  1.00  0.00     0.037 A 
HETATM   15  C   UNL     1      39.589 -13.394   3.872  1.00  0.00     0.003 A 
HETATM   16  C   UNL     1      40.797 -13.457   4.567  1.00  0.00     0.010 A 
BRANCH  13  17
HETATM   17  O   UNL     1      40.919 -13.231   0.416  1.00  0.00    -0.348 OA
BRANCH  17  18
HETATM   18  C   UNL     1      39.825 -13.703  -0.368  1.00  0.00     0.202 C 
BRANCH  18  19
HETATM   19  C   UNL     1      39.226 -12.517  -1.063  1.00  0.00    -0.011 C 
HETATM   20  C   UNL     1      38.053 -11.956  -0.743  1.00  0.00     0.009 C 
ENDBRANCH  18  19
ENDBRANCH  17  18
ENDBRANCH  13  17
ENDBRANCH   1  11
BRANCH   2  21
HETATM   21  C   UNL     1      43.725 -11.096   5.365  1.00  0.00     0.165 C 
BRANCH  21  22
HETATM   22  C   UNL     1      42.431 -10.326   5.333  1.00  0.00    -0.037 A 
HETATM   23  C   UNL     1      41.891  -9.874   4.126  1.00  0.00     0.028 A 
HETATM   24  C   UNL     1      40.700  -9.166   4.156  1.00  0.00     0.116 A 
HETATM   25  N   UNL     1      40.025  -8.876   5.289  1.00  0.00    -0.273 NA
HETATM   26  C   UNL     1      40.561  -9.323   6.445  1.00  0.00     0.116 A 
HETATM   27  C   UNL     1      41.742 -10.042   6.518  1.00  0.00     0.028 A 
ENDBRANCH  21  22
ENDBRANCH   2  21
BRANCH  10  28
HETATM   28  C   UNL     1      43.167 -17.056   4.238  1.00  0.00     0.028 A 
HETATM   29  C   UNL     1      44.036 -18.151   4.084  1.00  0.00     0.078 A 
HETATM   30  C   UNL     1      43.912 -19.029   3.009  1.00  0.00     0.037 A 
HETATM   31  C   UNL     1      42.927 -18.812   2.049  1.00  0.00     0.003 A 
HETATM   32  C   UNL     1      42.073 -17.717   2.164  1.00  0.00     0.001 A 
HETATM   33  C   UNL     1      42.195 -16.842   3.249  1.00  0.00     0.017 A 
BRANCH  29  34
HETATM   34  O   UNL     1      45.052 -18.413   4.969  1.00  0.00    -0.360 OA
HETATM   35  H   UNL     1      44.769 -18.023   5.827  1.00  0.00     0.217 HD
ENDBRANCH  29  34
ENDBRANCH  10  28
TORSDOF 8
ENDMDL
