MODEL 1
REMARK VINA RESULT:      -8.4      0.000      0.000
REMARK  9 active torsions:
REMARK  status: ('A' for Active; 'I' for Inactive)
REMARK    1  A    between atoms: N_5  and  C_6 
REMARK    2  A    between atoms: C_6  and  C_7 
REMARK    3  A    between atoms: C_7  and  O_8 
REMARK    4  A    between atoms: C_7  and  C_9 
REMARK    5  A    between atoms: C_9  and  O_10 
REMARK    6  A    between atoms: O_10  and  C_11 
REMARK    7  A    between atoms: N_23  and  C_24 
REMARK    8  A    between atoms: C_24  and  C_25 
REMARK    9  A    between atoms: C_25  and  N_26 
ROOT
HETATM    1  C   UNL     1      45.890  -9.731   8.488  1.00  0.00     0.002 A 
HETATM    2  C   UNL     1      44.580  -9.253   8.580  1.00  0.00     0.032 A 
HETATM    3  C   UNL     1      43.641  -9.830   7.749  1.00  0.00     0.079 A 
HETATM    4  C   UNL     1      43.968 -10.874   6.848  1.00  0.00     0.079 A 
HETATM    5  N   UNL     1      42.805 -11.246   6.172  1.00  0.00    -0.179 N 
HETATM    6  C   UNL     1      41.746 -10.440   6.668  1.00  0.00     0.681 A 
HETATM    7  N   UNL     1      40.457 -10.545   6.283  1.00  0.00    -0.234 N 
HETATM    8  H   UNL     1      39.700 -10.020   6.696  1.00  0.00     0.174 HD
HETATM    9  H   UNL     1      40.198 -11.191   5.541  1.00  0.00     0.174 HD
HETATM   10  N   UNL     1      42.229  -9.541   7.630  1.00  0.00    -0.180 N 
HETATM   11  C   UNL     1      45.259 -11.346   6.762  1.00  0.00     0.032 A 
HETATM   12  C   UNL     1      46.224 -10.761   7.589  1.00  0.00     0.002 A 
ENDROOT
BRANCH   5  13
HETATM   13  C   UNL     1      42.731 -12.453   5.362  1.00  0.00     0.181 C 
BRANCH  13  14
HETATM   14  C   UNL     1      41.891 -13.576   6.007  1.00  0.00     0.161 C 
BRANCH  14  15
HETATM   15  O   UNL     1      42.606 -14.053   7.148  1.00  0.00    -0.392 OA
HETATM   16  H   UNL     1      43.188 -14.778   6.846  1.00  0.00     0.210 HD
ENDBRANCH  14  15
BRANCH  14  17
HETATM   17  C   UNL     1      41.668 -14.745   5.041  1.00  0.00     0.209 C 
BRANCH  17  18
HETATM   18  O   UNL     1      42.819 -14.914   4.212  1.00  0.00    -0.347 OA
BRANCH  18  19
HETATM   19  C   UNL     1      43.120 -16.217   3.899  1.00  0.00     0.090 A 
HETATM   20  C   UNL     1      43.892 -17.113   4.659  1.00  0.00     0.069 A 
HETATM   21 CL   UNL     1      44.653 -16.688   6.157  1.00  0.00    -0.081 Cl
HETATM   22  C   UNL     1      44.110 -18.415   4.197  1.00  0.00     0.050 A 
HETATM   23  C   UNL     1      43.582 -18.818   2.972  1.00  0.00     0.035 A 
HETATM   24 CL   UNL     1      43.850 -20.421   2.417  1.00  0.00    -0.084 Cl
HETATM   25  C   UNL     1      42.848 -17.927   2.195  1.00  0.00     0.026 A 
HETATM   26  C   UNL     1      42.626 -16.627   2.654  1.00  0.00     0.040 A 
ENDBRANCH  18  19
ENDBRANCH  17  18
ENDBRANCH  14  17
ENDBRANCH  13  14
ENDBRANCH   5  13
BRANCH  10  27
HETATM   27  C   UNL     1      41.478  -8.622   8.499  1.00  0.00     0.175 C 
BRANCH  27  28
HETATM   28  C   UNL     1      40.359  -9.324   9.297  1.00  0.00     0.256 C 
BRANCH  28  29
HETATM   29  N   UNL     1      40.766  -9.793  10.679  1.00  0.00    -0.066 N 
HETATM   30  H   UNL     1      40.960 -10.802  10.583  1.00  0.00     0.280 HD
HETATM   31  C   UNL     1      42.065  -9.188  11.219  1.00  0.00     0.261 C 
HETATM   32  C   UNL     1      42.420  -9.838  12.562  1.00  0.00     0.195 C 
HETATM   33  O   UNL     1      41.345  -9.676  13.491  1.00  0.00    -0.388 OA
HETATM   34  C   UNL     1      40.151 -10.330  13.051  1.00  0.00     0.195 C 
HETATM   35  C   UNL     1      39.657  -9.711  11.738  1.00  0.00     0.261 C 
ENDBRANCH  28  29
ENDBRANCH  27  28
ENDBRANCH  10  27
TORSDOF 9
ENDMDL
MODEL 2
REMARK VINA RESULT:      -8.2      4.289      9.555
REMARK  9 active torsions:
REMARK  status: ('A' for Active; 'I' for Inactive)
REMARK    1  A    between atoms: N_5  and  C_6 
REMARK    2  A    between atoms: C_6  and  C_7 
REMARK    3  A    between atoms: C_7  and  O_8 
REMARK    4  A    between atoms: C_7  and  C_9 
REMARK    5  A    between atoms: C_9  and  O_10 
REMARK    6  A    between atoms: O_10  and  C_11 
REMARK    7  A    between atoms: N_23  and  C_24 
REMARK    8  A    between atoms: C_24  and  C_25 
REMARK    9  A    between atoms: C_25  and  N_26 
ROOT
HETATM    1  C   UNL     1      43.541 -18.211   2.929  1.00  0.00     0.002 A 
HETATM    2  C   UNL     1      42.450 -17.549   2.359  1.00  0.00     0.032 A 
HETATM    3  C   UNL     1      41.867 -16.542   3.102  1.00  0.00     0.079 A 
HETATM    4  C   UNL     1      42.351 -16.170   4.381  1.00  0.00     0.079 A 
HETATM    5  N   UNL     1      41.563 -15.120   4.856  1.00  0.00    -0.179 N 
HETATM    6  C   UNL     1      40.596 -14.826   3.857  1.00  0.00     0.681 A 
HETATM    7  N   UNL     1      39.685 -13.834   3.941  1.00  0.00    -0.234 N 
HETATM    8  H   UNL     1      39.052 -13.585   3.195  1.00  0.00     0.174 HD
HETATM    9  H   UNL     1      39.614 -13.279   4.790  1.00  0.00     0.174 HD
HETATM   10  N   UNL     1      40.742 -15.698   2.768  1.00  0.00    -0.180 N 
HETATM   11  C   UNL     1      43.428 -16.822   4.939  1.00  0.00     0.032 A 
HETATM   12  C   UNL     1      44.020 -17.853   4.203  1.00  0.00     0.002 A 
ENDROOT
BRANCH   5  13
HETATM   13  C   UNL     1      41.939 -14.334   6.021  1.00  0.00     0.181 C 
BRANCH  13  14
HETATM   14  C   UNL     1      42.930 -13.194   5.702  1.00  0.00     0.161 C 
BRANCH  14  15
HETATM   15  O   UNL     1      44.120 -13.429   6.456  1.00  0.00    -0.392 OA
HETATM   16  H   UNL     1      43.906 -13.272   7.397  1.00  0.00     0.210 HD
ENDBRANCH  14  15
BRANCH  14  17
HETATM   17  C   UNL     1      42.364 -11.824   6.090  1.00  0.00     0.209 C 
BRANCH  17  18
HETATM   18  O   UNL     1      43.421 -10.866   6.165  1.00  0.00    -0.347 OA
BRANCH  18  19
HETATM   19  C   UNL     1      43.645 -10.350   7.417  1.00  0.00     0.090 A 
HETATM   20  C   UNL     1      44.874 -10.282   8.097  1.00  0.00     0.069 A 
HETATM   21 CL   UNL     1      46.359 -10.900   7.452  1.00  0.00    -0.081 Cl
HETATM   22  C   UNL     1      44.935  -9.726   9.379  1.00  0.00     0.050 A 
HETATM   23  C   UNL     1      43.775  -9.260   9.992  1.00  0.00     0.035 A 
HETATM   24 CL   UNL     1      43.861  -8.572  11.564  1.00  0.00    -0.084 Cl
HETATM   25  C   UNL     1      42.548  -9.357   9.344  1.00  0.00     0.026 A 
HETATM   26  C   UNL     1      42.483  -9.909   8.063  1.00  0.00     0.040 A 
ENDBRANCH  18  19
ENDBRANCH  17  18
ENDBRANCH  14  17
ENDBRANCH  13  14
ENDBRANCH   5  13
BRANCH  10  27
HETATM   27  C   UNL     1      40.059 -15.675   1.466  1.00  0.00     0.175 C 
BRANCH  27  28
HETATM   28  C   UNL     1      40.466 -14.470   0.591  1.00  0.00     0.256 C 
BRANCH  28  29
HETATM   29  N   UNL     1      39.345 -13.888  -0.245  1.00  0.00    -0.066 N 
HETATM   30  H   UNL     1      38.475 -14.280   0.147  1.00  0.00     0.280 HD
HETATM   31  C   UNL     1      39.177 -12.369  -0.147  1.00  0.00     0.261 C 
HETATM   32  C   UNL     1      37.939 -11.932  -0.939  1.00  0.00     0.195 C 
HETATM   33  O   UNL     1      38.046 -12.356  -2.301  1.00  0.00    -0.388 OA
HETATM   34  C   UNL     1      38.094 -13.782  -2.417  1.00  0.00     0.195 C 
HETATM   35  C   UNL     1      39.342 -14.331  -1.715  1.00  0.00     0.261 C 
ENDBRANCH  28  29
ENDBRANCH  27  28
ENDBRANCH  10  27
TORSDOF 9
ENDMDL
MODEL 3
REMARK VINA RESULT:      -8.1      2.745      4.898
REMARK  9 active torsions:
REMARK  status: ('A' for Active; 'I' for Inactive)
REMARK    1  A    between atoms: N_5  and  C_6 
REMARK    2  A    between atoms: C_6  and  C_7 
REMARK    3  A    between atoms: C_7  and  O_8 
REMARK    4  A    between atoms: C_7  and  C_9 
REMARK    5  A    between atoms: C_9  and  O_10 
REMARK    6  A    between atoms: O_10  and  C_11 
REMARK    7  A    between atoms: N_23  and  C_24 
REMARK    8  A    between atoms: C_24  and  C_25 
REMARK    9  A    between atoms: C_25  and  N_26 
ROOT
HETATM    1  C   UNL     1      40.207 -15.679   6.765  1.00  0.00     0.002 A 
HETATM    2  C   UNL     1      40.233 -14.283   6.703  1.00  0.00     0.032 A 
HETATM    3  C   UNL     1      40.304 -13.710   5.450  1.00  0.00     0.079 A 
HETATM    4  C   UNL     1      40.333 -14.486   4.264  1.00  0.00     0.079 A 
HETATM    5  N   UNL     1      40.388 -13.615   3.175  1.00  0.00    -0.179 N 
HETATM    6  C   UNL     1      40.376 -12.290   3.686  1.00  0.00     0.681 A 
HETATM    7  N   UNL     1      40.372 -11.175   2.926  1.00  0.00    -0.234 N 
HETATM    8  H   UNL     1      40.287 -10.239   3.297  1.00  0.00     0.174 HD
HETATM    9  H   UNL     1      40.448 -11.248   1.915  1.00  0.00     0.174 HD
HETATM   10  N   UNL     1      40.344 -12.310   5.088  1.00  0.00    -0.180 N 
HETATM   11  C   UNL     1      40.304 -15.861   4.327  1.00  0.00     0.032 A 
HETATM   12  C   UNL     1      40.245 -16.456   5.592  1.00  0.00     0.002 A 
ENDROOT
BRANCH   5  13
HETATM   13  C   UNL     1      40.175 -14.068   1.809  1.00  0.00     0.181 C 
BRANCH  13  14
HETATM   14  C   UNL     1      41.486 -14.300   1.027  1.00  0.00     0.161 C 
BRANCH  14  15
HETATM   15  O   UNL     1      41.172 -14.267  -0.367  1.00  0.00    -0.392 OA
HETATM   16  H   UNL     1      41.200 -13.331  -0.651  1.00  0.00     0.210 HD
ENDBRANCH  14  15
BRANCH  14  17
HETATM   17  C   UNL     1      42.111 -15.660   1.358  1.00  0.00     0.209 C 
BRANCH  17  18
HETATM   18  O   UNL     1      43.160 -15.491   2.312  1.00  0.00    -0.347 OA
BRANCH  18  19
HETATM   19  C   UNL     1      43.446 -16.607   3.060  1.00  0.00     0.090 A 
HETATM   20  C   UNL     1      43.684 -16.659   4.444  1.00  0.00     0.069 A 
HETATM   21 CL   UNL     1      43.696 -15.260   5.467  1.00  0.00    -0.081 Cl
HETATM   22  C   UNL     1      43.967 -17.883   5.061  1.00  0.00     0.050 A 
HETATM   23  C   UNL     1      44.036 -19.047   4.299  1.00  0.00     0.035 A 
HETATM   24 CL   UNL     1      44.377 -20.546   5.066  1.00  0.00    -0.084 Cl
HETATM   25  C   UNL     1      43.838 -19.001   2.923  1.00  0.00     0.026 A 
HETATM   26  C   UNL     1      43.553 -17.782   2.304  1.00  0.00     0.040 A 
ENDBRANCH  18  19
ENDBRANCH  17  18
ENDBRANCH  14  17
ENDBRANCH  13  14
ENDBRANCH   5  13
BRANCH  10  27
HETATM   27  C   UNL     1      40.185 -11.190   6.028  1.00  0.00     0.175 C 
BRANCH  27  28
HETATM   28  C   UNL     1      41.445 -10.305   6.133  1.00  0.00     0.256 C 
BRANCH  28  29
HETATM   29  N   UNL     1      42.585 -10.918   6.921  1.00  0.00    -0.066 N 
HETATM   30  H   UNL     1      42.180 -11.737   7.401  1.00  0.00     0.280 HD
HETATM   31  C   UNL     1      43.735 -11.478   6.079  1.00  0.00     0.261 C 
HETATM   32  C   UNL     1      44.753 -12.173   6.991  1.00  0.00     0.195 C 
HETATM   33  O   UNL     1      45.231 -11.264   7.986  1.00  0.00    -0.388 OA
HETATM   34  C   UNL     1      44.183 -10.815   8.851  1.00  0.00     0.195 C 
HETATM   35  C   UNL     1      43.130 -10.037   8.052  1.00  0.00     0.261 C 
ENDBRANCH  28  29
ENDBRANCH  27  28
ENDBRANCH  10  27
TORSDOF 9
ENDMDL
MODEL 4
REMARK VINA RESULT:      -8.0      4.081      9.116
REMARK  9 active torsions:
REMARK  status: ('A' for Active; 'I' for Inactive)
REMARK    1  A    between atoms: N_5  and  C_6 
REMARK    2  A    between atoms: C_6  and  C_7 
REMARK    3  A    between atoms: C_7  and  O_8 
REMARK    4  A    between atoms: C_7  and  C_9 
REMARK    5  A    between atoms: C_9  and  O_10 
REMARK    6  A    between atoms: O_10  and  C_11 
REMARK    7  A    between atoms: N_23  and  C_24 
REMARK    8  A    between atoms: C_24  and  C_25 
REMARK    9  A    between atoms: C_25  and  N_26 
ROOT
HETATM    1  C   UNL     1      44.106 -18.878   3.379  1.00  0.00     0.002 A 
HETATM    2  C   UNL     1      43.333 -17.929   2.706  1.00  0.00     0.032 A 
HETATM    3  C   UNL     1      42.600 -17.051   3.480  1.00  0.00     0.079 A 
HETATM    4  C   UNL     1      42.631 -17.085   4.896  1.00  0.00     0.079 A 
HETATM    5  N   UNL     1      41.803 -16.068   5.374  1.00  0.00    -0.179 N 
HETATM    6  C   UNL     1      41.269 -15.387   4.248  1.00  0.00     0.681 A 
HETATM    7  N   UNL     1      40.459 -14.310   4.316  1.00  0.00    -0.234 N 
HETATM    8  H   UNL     1      40.146 -13.787   3.511  1.00  0.00     0.174 HD
HETATM    9  H   UNL     1      40.134 -13.974   5.219  1.00  0.00     0.174 HD
HETATM   10  N   UNL     1      41.725 -15.979   3.061  1.00  0.00    -0.180 N 
HETATM   11  C   UNL     1      43.396 -18.020   5.558  1.00  0.00     0.032 A 
HETATM   12  C   UNL     1      44.134 -18.923   4.786  1.00  0.00     0.002 A 
ENDROOT
BRANCH   5  13
HETATM   13  C   UNL     1      41.802 -15.661   6.771  1.00  0.00     0.181 C 
BRANCH  13  14
HETATM   14  C   UNL     1      43.195 -15.246   7.292  1.00  0.00     0.161 C 
BRANCH  14  15
HETATM   15  O   UNL     1      43.055 -14.892   8.670  1.00  0.00    -0.392 OA
HETATM   16  H   UNL     1      42.694 -15.671   9.137  1.00  0.00     0.210 HD
ENDBRANCH  14  15
BRANCH  14  17
HETATM   17  C   UNL     1      43.751 -14.040   6.528  1.00  0.00     0.209 C 
BRANCH  17  18
HETATM   18  O   UNL     1      42.754 -13.021   6.439  1.00  0.00    -0.347 OA
BRANCH  18  19
HETATM   19  C   UNL     1      43.135 -11.797   6.933  1.00  0.00     0.090 A 
HETATM   20  C   UNL     1      42.385 -10.608   6.916  1.00  0.00     0.069 A 
HETATM   21 CL   UNL     1      40.809 -10.480   6.205  1.00  0.00    -0.081 Cl
HETATM   22  C   UNL     1      42.920  -9.435   7.460  1.00  0.00     0.050 A 
HETATM   23  C   UNL     1      44.205  -9.440   7.997  1.00  0.00     0.035 A 
HETATM   24 CL   UNL     1      44.850  -7.996   8.669  1.00  0.00    -0.084 Cl
HETATM   25  C   UNL     1      44.969 -10.601   7.985  1.00  0.00     0.026 A 
HETATM   26  C   UNL     1      44.438 -11.775   7.446  1.00  0.00     0.040 A 
ENDBRANCH  18  19
ENDBRANCH  17  18
ENDBRANCH  14  17
ENDBRANCH  13  14
ENDBRANCH   5  13
BRANCH  10  27
HETATM   27  C   UNL     1      41.544 -15.530   1.672  1.00  0.00     0.175 C 
BRANCH  27  28
HETATM   28  C   UNL     1      40.083 -15.640   1.187  1.00  0.00     0.256 C 
BRANCH  28  29
HETATM   29  N   UNL     1      39.557 -14.409   0.477  1.00  0.00    -0.066 N 
HETATM   30  H   UNL     1      38.585 -14.294   0.805  1.00  0.00     0.280 HD
HETATM   31  C   UNL     1      40.256 -13.096   0.841  1.00  0.00     0.261 C 
HETATM   32  C   UNL     1      39.549 -11.923   0.150  1.00  0.00     0.195 C 
HETATM   33  O   UNL     1      39.523 -12.124  -1.265  1.00  0.00    -0.388 OA
HETATM   34  C   UNL     1      38.778 -13.291  -1.629  1.00  0.00     0.195 C 
HETATM   35  C   UNL     1      39.439 -14.547  -1.047  1.00  0.00     0.261 C 
ENDBRANCH  28  29
ENDBRANCH  27  28
ENDBRANCH  10  27
TORSDOF 9
ENDMDL
MODEL 5
REMARK VINA RESULT:      -8.0      4.230      8.931
REMARK  9 active torsions:
REMARK  status: ('A' for Active; 'I' for Inactive)
REMARK    1  A    between atoms: N_5  and  C_6 
REMARK    2  A    between atoms: C_6  and  C_7 
REMARK    3  A    between atoms: C_7  and  O_8 
REMARK    4  A    between atoms: C_7  and  C_9 
REMARK    5  A    between atoms: C_9  and  O_10 
REMARK    6  A    between atoms: O_10  and  C_11 
REMARK    7  A    between atoms: N_23  and  C_24 
REMARK    8  A    between atoms: C_24  and  C_25 
REMARK    9  A    between atoms: C_25  and  N_26 
ROOT
HETATM    1  C   UNL     1      40.446 -15.759   6.227  1.00  0.00     0.002 A 
HETATM    2  C   UNL     1      40.797 -16.290   4.983  1.00  0.00     0.032 A 
HETATM    3  C   UNL     1      40.965 -15.398   3.943  1.00  0.00     0.079 A 
HETATM    4  C   UNL     1      40.811 -14.000   4.115  1.00  0.00     0.079 A 
HETATM    5  N   UNL     1      41.063 -13.380   2.890  1.00  0.00    -0.179 N 
HETATM    6  C   UNL     1      41.392 -14.399   1.956  1.00  0.00     0.681 A 
HETATM    7  N   UNL     1      41.743 -14.178   0.672  1.00  0.00    -0.234 N 
HETATM    8  H   UNL     1      42.049 -14.901   0.038  1.00  0.00     0.174 HD
HETATM    9  H   UNL     1      41.719 -13.234   0.293  1.00  0.00     0.174 HD
HETATM   10  N   UNL     1      41.323 -15.660   2.567  1.00  0.00    -0.180 N 
HETATM   11  C   UNL     1      40.469 -13.478   5.343  1.00  0.00     0.032 A 
HETATM   12  C   UNL     1      40.283 -14.372   6.402  1.00  0.00     0.002 A 
ENDROOT
BRANCH   5  13
HETATM   13  C   UNL     1      41.239 -11.941   2.770  1.00  0.00     0.181 C 
BRANCH  13  14
HETATM   14  C   UNL     1      42.709 -11.489   2.897  1.00  0.00     0.161 C 
BRANCH  14  15
HETATM   15  O   UNL     1      43.531 -12.655   2.821  1.00  0.00    -0.392 OA
HETATM   16  H   UNL     1      44.165 -12.615   3.564  1.00  0.00     0.210 HD
ENDBRANCH  14  15
BRANCH  14  17
HETATM   17  C   UNL     1      42.973 -10.787   4.234  1.00  0.00     0.209 C 
BRANCH  17  18
HETATM   18  O   UNL     1      43.421 -11.739   5.200  1.00  0.00    -0.347 OA
BRANCH  18  19
HETATM   19  C   UNL     1      43.790 -11.204   6.410  1.00  0.00     0.090 A 
HETATM   20  C   UNL     1      42.963 -10.528   7.323  1.00  0.00     0.069 A 
HETATM   21 CL   UNL     1      41.282 -10.214   7.041  1.00  0.00    -0.081 Cl
HETATM   22  C   UNL     1      43.496 -10.036   8.520  1.00  0.00     0.050 A 
HETATM   23  C   UNL     1      44.852 -10.194   8.795  1.00  0.00     0.035 A 
HETATM   24 CL   UNL     1      45.496  -9.592  10.270  1.00  0.00    -0.084 Cl
HETATM   25  C   UNL     1      45.687 -10.828   7.881  1.00  0.00     0.026 A 
HETATM   26  C   UNL     1      45.158 -11.324   6.687  1.00  0.00     0.040 A 
ENDBRANCH  18  19
ENDBRANCH  17  18
ENDBRANCH  14  17
ENDBRANCH  13  14
ENDBRANCH   5  13
BRANCH  10  27
HETATM   27  C   UNL     1      41.711 -16.973   2.029  1.00  0.00     0.175 C 
BRANCH  27  28
HETATM   28  C   UNL     1      43.163 -17.363   2.377  1.00  0.00     0.256 C 
BRANCH  28  29
HETATM   29  N   UNL     1      43.294 -18.550   3.308  1.00  0.00    -0.066 N 
HETATM   30  H   UNL     1      42.329 -18.797   3.579  1.00  0.00     0.280 HD
HETATM   31  C   UNL     1      43.865 -19.821   2.673  1.00  0.00     0.261 C 
HETATM   32  C   UNL     1      43.826 -20.970   3.687  1.00  0.00     0.195 C 
HETATM   33  O   UNL     1      44.545 -20.612   4.870  1.00  0.00    -0.388 OA
HETATM   34  C   UNL     1      43.957 -19.491   5.537  1.00  0.00     0.195 C 
HETATM   35  C   UNL     1      44.004 -18.251   4.635  1.00  0.00     0.261 C 
ENDBRANCH  28  29
ENDBRANCH  27  28
ENDBRANCH  10  27
TORSDOF 9
ENDMDL
MODEL 6
REMARK VINA RESULT:      -8.0      4.068      8.145
REMARK  9 active torsions:
REMARK  status: ('A' for Active; 'I' for Inactive)
REMARK    1  A    between atoms: N_5  and  C_6 
REMARK    2  A    between atoms: C_6  and  C_7 
REMARK    3  A    between atoms: C_7  and  O_8 
REMARK    4  A    between atoms: C_7  and  C_9 
REMARK    5  A    between atoms: C_9  and  O_10 
REMARK    6  A    between atoms: O_10  and  C_11 
REMARK    7  A    between atoms: N_23  and  C_24 
REMARK    8  A    between atoms: C_24  and  C_25 
REMARK    9  A    between atoms: C_25  and  N_26 
ROOT
HETATM    1  C   UNL     1      42.183 -15.558   1.239  1.00  0.00     0.002 A 
HETATM    2  C   UNL     1      41.016 -14.796   1.337  1.00  0.00     0.032 A 
HETATM    3  C   UNL     1      40.975 -13.831   2.323  1.00  0.00     0.079 A 
HETATM    4  C   UNL     1      42.067 -13.596   3.196  1.00  0.00     0.079 A 
HETATM    5  N   UNL     1      41.718 -12.554   4.057  1.00  0.00    -0.179 N 
HETATM    6  C   UNL     1      40.410 -12.128   3.706  1.00  0.00     0.681 A 
HETATM    7  N   UNL     1      39.753 -11.105   4.291  1.00  0.00    -0.234 N 
HETATM    8  H   UNL     1      38.855 -10.761   3.984  1.00  0.00     0.174 HD
HETATM    9  H   UNL     1      40.167 -10.623   5.085  1.00  0.00     0.174 HD
HETATM   10  N   UNL     1      39.911 -12.908   2.651  1.00  0.00    -0.180 N 
HETATM   11  C   UNL     1      43.218 -14.345   3.095  1.00  0.00     0.032 A 
HETATM   12  C   UNL     1      43.267 -15.335   2.108  1.00  0.00     0.002 A 
ENDROOT
BRANCH   5  13
HETATM   13  C   UNL     1      42.695 -11.892   4.908  1.00  0.00     0.181 C 
BRANCH  13  14
HETATM   14  C   UNL     1      42.533 -12.227   6.406  1.00  0.00     0.161 C 
BRANCH  14  15
HETATM   15  O   UNL     1      42.480 -10.993   7.124  1.00  0.00    -0.392 OA
HETATM   16  H   UNL     1      43.340 -10.544   6.998  1.00  0.00     0.210 HD
ENDBRANCH  14  15
BRANCH  14  17
HETATM   17  C   UNL     1      43.711 -13.053   6.934  1.00  0.00     0.209 C 
BRANCH  17  18
HETATM   18  O   UNL     1      43.230 -14.265   7.518  1.00  0.00    -0.347 OA
BRANCH  18  19
HETATM   19  C   UNL     1      43.225 -15.349   6.674  1.00  0.00     0.090 A 
HETATM   20  C   UNL     1      42.101 -15.972   6.104  1.00  0.00     0.069 A 
HETATM   21 CL   UNL     1      40.470 -15.474   6.416  1.00  0.00    -0.081 Cl
HETATM   22  C   UNL     1      42.265 -17.077   5.262  1.00  0.00     0.050 A 
HETATM   23  C   UNL     1      43.540 -17.576   5.008  1.00  0.00     0.035 A 
HETATM   24 CL   UNL     1      43.732 -18.930   3.967  1.00  0.00    -0.084 Cl
HETATM   25  C   UNL     1      44.656 -16.991   5.597  1.00  0.00     0.026 A 
HETATM   26  C   UNL     1      44.497 -15.885   6.436  1.00  0.00     0.040 A 
ENDBRANCH  18  19
ENDBRANCH  17  18
ENDBRANCH  14  17
ENDBRANCH  13  14
ENDBRANCH   5  13
BRANCH  10  27
HETATM   27  C   UNL     1      38.671 -12.739   1.880  1.00  0.00     0.175 C 
BRANCH  27  28
HETATM   28  C   UNL     1      38.882 -11.975   0.555  1.00  0.00     0.256 C 
BRANCH  28  29
HETATM   29  N   UNL     1      38.935 -12.853  -0.679  1.00  0.00    -0.066 N 
HETATM   30  H   UNL     1      38.868 -13.823  -0.332  1.00  0.00     0.280 HD
HETATM   31  C   UNL     1      37.759 -12.694  -1.646  1.00  0.00     0.261 C 
HETATM   32  C   UNL     1      37.877 -13.721  -2.779  1.00  0.00     0.195 C 
HETATM   33  O   UNL     1      39.129 -13.574  -3.454  1.00  0.00    -0.388 OA
HETATM   34  C   UNL     1      40.239 -13.828  -2.587  1.00  0.00     0.195 C 
HETATM   35  C   UNL     1      40.266 -12.807  -1.443  1.00  0.00     0.261 C 
ENDBRANCH  28  29
ENDBRANCH  27  28
ENDBRANCH  10  27
TORSDOF 9
ENDMDL
MODEL 7
REMARK VINA RESULT:      -7.8      5.123      8.389
REMARK  9 active torsions:
REMARK  status: ('A' for Active; 'I' for Inactive)
REMARK    1  A    between atoms: N_5  and  C_6 
REMARK    2  A    between atoms: C_6  and  C_7 
REMARK    3  A    between atoms: C_7  and  O_8 
REMARK    4  A    between atoms: C_7  and  C_9 
REMARK    5  A    between atoms: C_9  and  O_10 
REMARK    6  A    between atoms: O_10  and  C_11 
REMARK    7  A    between atoms: N_23  and  C_24 
REMARK    8  A    between atoms: C_24  and  C_25 
REMARK    9  A    between atoms: C_25  and  N_26 
ROOT
HETATM    1  C   UNL     1      43.953 -12.805   7.054  1.00  0.00     0.002 A 
HETATM    2  C   UNL     1      43.482 -13.986   6.475  1.00  0.00     0.032 A 
HETATM    3  C   UNL     1      42.584 -13.862   5.434  1.00  0.00     0.079 A 
HETATM    4  C   UNL     1      42.160 -12.600   4.948  1.00  0.00     0.079 A 
HETATM    5  N   UNL     1      41.273 -12.816   3.892  1.00  0.00    -0.179 N 
HETATM    6  C   UNL     1      41.160 -14.220   3.710  1.00  0.00     0.681 A 
HETATM    7  N   UNL     1      40.423 -14.811   2.746  1.00  0.00    -0.234 N 
HETATM    8  H   UNL     1      40.408 -15.807   2.577  1.00  0.00     0.174 HD
HETATM    9  H   UNL     1      39.844 -14.247   2.130  1.00  0.00     0.174 HD
HETATM   10  N   UNL     1      41.941 -14.899   4.658  1.00  0.00    -0.180 N 
HETATM   11  C   UNL     1      42.628 -11.437   5.518  1.00  0.00     0.032 A 
HETATM   12  C   UNL     1      43.529 -11.548   6.582  1.00  0.00     0.002 A 
ENDROOT
BRANCH   5  13
HETATM   13  C   UNL     1      40.846 -11.744   3.006  1.00  0.00     0.181 C 
BRANCH  13  14
HETATM   14  C   UNL     1      41.802 -11.511   1.817  1.00  0.00     0.161 C 
BRANCH  14  15
HETATM   15  O   UNL     1      42.301 -10.176   1.914  1.00  0.00    -0.392 OA
HETATM   16  H   UNL     1      43.266 -10.235   2.060  1.00  0.00     0.210 HD
ENDBRANCH  14  15
BRANCH  14  17
HETATM   17  C   UNL     1      41.084 -11.671   0.472  1.00  0.00     0.209 C 
BRANCH  17  18
HETATM   18  O   UNL     1      39.883 -12.424   0.651  1.00  0.00    -0.347 OA
BRANCH  18  19
HETATM   19  C   UNL     1      39.326 -12.907  -0.508  1.00  0.00     0.090 A 
HETATM   20  C   UNL     1      38.182 -12.420  -1.164  1.00  0.00     0.069 A 
HETATM   21 CL   UNL     1      37.227 -11.101  -0.571  1.00  0.00    -0.081 Cl
HETATM   22  C   UNL     1      37.739 -13.029  -2.343  1.00  0.00     0.050 A 
HETATM   23  C   UNL     1      38.417 -14.134  -2.854  1.00  0.00     0.035 A 
HETATM   24 CL   UNL     1      37.868 -14.871  -4.306  1.00  0.00    -0.084 Cl
HETATM   25  C   UNL     1      39.527 -14.646  -2.193  1.00  0.00     0.026 A 
HETATM   26  C   UNL     1      39.975 -14.039  -1.017  1.00  0.00     0.040 A 
ENDBRANCH  18  19
ENDBRANCH  17  18
ENDBRANCH  14  17
ENDBRANCH  13  14
ENDBRANCH   5  13
BRANCH  10  27
HETATM   27  C   UNL     1      42.233 -16.336   4.759  1.00  0.00     0.175 C 
BRANCH  27  28
HETATM   28  C   UNL     1      43.734 -16.660   4.598  1.00  0.00     0.256 C 
BRANCH  28  29
HETATM   29  N   UNL     1      44.032 -18.083   4.171  1.00  0.00    -0.066 N 
HETATM   30  H   UNL     1      45.035 -18.095   3.927  1.00  0.00     0.280 HD
HETATM   31  C   UNL     1      43.877 -19.140   5.268  1.00  0.00     0.261 C 
HETATM   32  C   UNL     1      44.326 -20.507   4.737  1.00  0.00     0.195 C 
HETATM   33  O   UNL     1      43.577 -20.856   3.569  1.00  0.00    -0.388 OA
HETATM   34  C   UNL     1      43.797 -19.935   2.496  1.00  0.00     0.195 C 
HETATM   35  C   UNL     1      43.316 -18.533   2.890  1.00  0.00     0.261 C 
ENDBRANCH  28  29
ENDBRANCH  27  28
ENDBRANCH  10  27
TORSDOF 9
ENDMDL
MODEL 8
REMARK VINA RESULT:      -7.8      1.806      3.197
REMARK  9 active torsions:
REMARK  status: ('A' for Active; 'I' for Inactive)
REMARK    1  A    between atoms: N_5  and  C_6 
REMARK    2  A    between atoms: C_6  and  C_7 
REMARK    3  A    between atoms: C_7  and  O_8 
REMARK    4  A    between atoms: C_7  and  C_9 
REMARK    5  A    between atoms: C_9  and  O_10 
REMARK    6  A    between atoms: O_10  and  C_11 
REMARK    7  A    between atoms: N_23  and  C_24 
REMARK    8  A    between atoms: C_24  and  C_25 
REMARK    9  A    between atoms: C_25  and  N_26 
ROOT
HETATM    1  C   UNL     1      40.571  -8.330   5.911  1.00  0.00     0.002 A 
HETATM    2  C   UNL     1      41.743  -8.790   6.517  1.00  0.00     0.032 A 
HETATM    3  C   UNL     1      42.051 -10.126   6.361  1.00  0.00     0.079 A 
HETATM    4  C   UNL     1      41.234 -11.006   5.607  1.00  0.00     0.079 A 
HETATM    5  N   UNL     1      41.823 -12.272   5.628  1.00  0.00    -0.179 N 
HETATM    6  C   UNL     1      43.021 -12.173   6.385  1.00  0.00     0.681 A 
HETATM    7  N   UNL     1      43.887 -13.188   6.586  1.00  0.00    -0.234 N 
HETATM    8  H   UNL     1      44.773 -13.089   7.061  1.00  0.00     0.174 HD
HETATM    9  H   UNL     1      43.668 -14.120   6.241  1.00  0.00     0.174 HD
HETATM   10  N   UNL     1      43.184 -10.867   6.869  1.00  0.00    -0.180 N 
HETATM   11  C   UNL     1      40.081 -10.551   5.007  1.00  0.00     0.032 A 
HETATM   12  C   UNL     1      39.751  -9.201   5.168  1.00  0.00     0.002 A 
ENDROOT
BRANCH   5  13
HETATM   13  C   UNL     1      41.384 -13.346   4.750  1.00  0.00     0.181 C 
BRANCH  13  14
HETATM   14  C   UNL     1      40.653 -14.486   5.491  1.00  0.00     0.161 C 
BRANCH  14  15
HETATM   15  O   UNL     1      40.175 -13.962   6.731  1.00  0.00    -0.392 OA
HETATM   16  H   UNL     1      40.429 -14.593   7.433  1.00  0.00     0.210 HD
ENDBRANCH  14  15
BRANCH  14  17
HETATM   17  C   UNL     1      41.588 -15.665   5.783  1.00  0.00     0.209 C 
BRANCH  17  18
HETATM   18  O   UNL     1      42.745 -15.584   4.948  1.00  0.00    -0.347 OA
BRANCH  18  19
HETATM   19  C   UNL     1      42.962 -16.684   4.155  1.00  0.00     0.090 A 
HETATM   20  C   UNL     1      42.321 -16.993   2.943  1.00  0.00     0.069 A 
HETATM   21 CL   UNL     1      41.074 -16.014   2.244  1.00  0.00    -0.081 Cl
HETATM   22  C   UNL     1      42.656 -18.163   2.252  1.00  0.00     0.050 A 
HETATM   23  C   UNL     1      43.607 -19.034   2.778  1.00  0.00     0.035 A 
HETATM   24 CL   UNL     1      44.015 -20.465   1.919  1.00  0.00    -0.084 Cl
HETATM   25  C   UNL     1      44.219 -18.757   3.995  1.00  0.00     0.026 A 
HETATM   26  C   UNL     1      43.891 -17.588   4.686  1.00  0.00     0.040 A 
ENDBRANCH  18  19
ENDBRANCH  17  18
ENDBRANCH  14  17
ENDBRANCH  13  14
ENDBRANCH   5  13
BRANCH  10  27
HETATM   27  C   UNL     1      44.331 -10.276   7.575  1.00  0.00     0.175 C 
BRANCH  27  28
HETATM   28  C   UNL     1      44.456 -10.759   9.035  1.00  0.00     0.256 C 
BRANCH  28  29
HETATM   29  N   UNL     1      43.413 -10.197   9.979  1.00  0.00    -0.066 N 
HETATM   30  H   UNL     1      42.511 -10.577   9.653  1.00  0.00     0.280 HD
HETATM   31  C   UNL     1      43.533 -10.654  11.435  1.00  0.00     0.261 C 
HETATM   32  C   UNL     1      42.351 -10.113  12.248  1.00  0.00     0.195 C 
HETATM   33  O   UNL     1      42.295  -8.687  12.154  1.00  0.00    -0.388 OA
HETATM   34  C   UNL     1      42.073  -8.246  10.811  1.00  0.00     0.195 C 
HETATM   35  C   UNL     1      43.239  -8.673   9.910  1.00  0.00     0.261 C 
ENDBRANCH  28  29
ENDBRANCH  27  28
ENDBRANCH  10  27
TORSDOF 9
ENDMDL
MODEL 9
REMARK VINA RESULT:      -7.8      6.639      9.481
REMARK  9 active torsions:
REMARK  status: ('A' for Active; 'I' for Inactive)
REMARK    1  A    between atoms: N_5  and  C_6 
REMARK    2  A    between atoms: C_6  and  C_7 
REMARK    3  A    between atoms: C_7  and  O_8 
REMARK    4  A    between atoms: C_7  and  C_9 
REMARK    5  A    between atoms: C_9  and  O_10 
REMARK    6  A    between atoms: O_10  and  C_11 
REMARK    7  A    between atoms: N_23  and  C_24 
REMARK    8  A    between atoms: C_24  and  C_25 
REMARK    9  A    between atoms: C_25  and  N_26 
ROOT
HETATM    1  C   UNL     1      38.459 -14.020  -3.409  1.00  0.00     0.002 A 
HETATM    2  C   UNL     1      38.864 -12.809  -2.843  1.00  0.00     0.032 A 
HETATM    3  C   UNL     1      39.445 -12.862  -1.592  1.00  0.00     0.079 A 
HETATM    4  C   UNL     1      39.646 -14.085  -0.904  1.00  0.00     0.079 A 
HETATM    5  N   UNL     1      40.265 -13.802   0.315  1.00  0.00    -0.179 N 
HETATM    6  C   UNL     1      40.465 -12.397   0.376  1.00  0.00     0.681 A 
HETATM    7  N   UNL     1      41.081 -11.753   1.390  1.00  0.00    -0.234 N 
HETATM    8  H   UNL     1      41.286 -10.765   1.389  1.00  0.00     0.174 HD
HETATM    9  H   UNL     1      41.378 -12.269   2.214  1.00  0.00     0.174 HD
HETATM   10  N   UNL     1      39.954 -11.782  -0.776  1.00  0.00    -0.180 N 
HETATM   11  C   UNL     1      39.248 -15.278  -1.465  1.00  0.00     0.032 A 
HETATM   12  C   UNL     1      38.647 -15.237  -2.727  1.00  0.00     0.002 A 
ENDROOT
BRANCH   5  13
HETATM   13  C   UNL     1      40.840 -14.842   1.153  1.00  0.00     0.181 C 
BRANCH  13  14
HETATM   14  C   UNL     1      39.885 -15.340   2.259  1.00  0.00     0.161 C 
BRANCH  14  15
HETATM   15  O   UNL     1      38.969 -14.282   2.551  1.00  0.00    -0.392 OA
HETATM   16  H   UNL     1      38.068 -14.662   2.533  1.00  0.00     0.210 HD
ENDBRANCH  14  15
BRANCH  14  17
HETATM   17  C   UNL     1      40.641 -15.704   3.541  1.00  0.00     0.209 C 
BRANCH  17  18
HETATM   18  O   UNL     1      42.044 -15.757   3.278  1.00  0.00    -0.347 OA
BRANCH  18  19
HETATM   19  C   UNL     1      42.685 -16.861   3.784  1.00  0.00     0.090 A 
HETATM   20  C   UNL     1      43.046 -17.090   5.123  1.00  0.00     0.069 A 
HETATM   21 CL   UNL     1      42.762 -15.952   6.398  1.00  0.00    -0.081 Cl
HETATM   22  C   UNL     1      43.703 -18.273   5.479  1.00  0.00     0.050 A 
HETATM   23  C   UNL     1      44.021 -19.214   4.502  1.00  0.00     0.035 A 
HETATM   24 CL   UNL     1      44.821 -20.667   4.950  1.00  0.00    -0.084 Cl
HETATM   25  C   UNL     1      43.702 -18.980   3.169  1.00  0.00     0.026 A 
HETATM   26  C   UNL     1      43.043 -17.802   2.810  1.00  0.00     0.040 A 
ENDBRANCH  18  19
ENDBRANCH  17  18
ENDBRANCH  14  17
ENDBRANCH  13  14
ENDBRANCH   5  13
BRANCH  10  27
HETATM   27  C   UNL     1      40.061 -10.379  -1.203  1.00  0.00     0.175 C 
BRANCH  27  28
HETATM   28  C   UNL     1      41.333 -10.095  -2.031  1.00  0.00     0.256 C 
BRANCH  28  29
HETATM   29  N   UNL     1      41.707  -8.630  -2.133  1.00  0.00    -0.066 N 
HETATM   30  H   UNL     1      40.956  -8.118  -1.646  1.00  0.00     0.280 HD
HETATM   31  C   UNL     1      42.995  -8.233  -1.406  1.00  0.00     0.261 C 
HETATM   32  C   UNL     1      43.187  -6.713  -1.486  1.00  0.00     0.195 C 
HETATM   33  O   UNL     1      43.208  -6.287  -2.851  1.00  0.00    -0.388 OA
HETATM   34  C   UNL     1      41.969  -6.553  -3.515  1.00  0.00     0.195 C 
HETATM   35  C   UNL     1      41.702  -8.063  -3.559  1.00  0.00     0.261 C 
ENDBRANCH  28  29
ENDBRANCH  27  28
ENDBRANCH  10  27
TORSDOF 9
ENDMDL
MODEL 10
REMARK VINA RESULT:      -7.8      3.635      7.113
REMARK  9 active torsions:
REMARK  status: ('A' for Active; 'I' for Inactive)
REMARK    1  A    between atoms: N_5  and  C_6 
REMARK    2  A    between atoms: C_6  and  C_7 
REMARK    3  A    between atoms: C_7  and  O_8 
REMARK    4  A    between atoms: C_7  and  C_9 
REMARK    5  A    between atoms: C_9  and  O_10 
REMARK    6  A    between atoms: O_10  and  C_11 
REMARK    7  A    between atoms: N_23  and  C_24 
REMARK    8  A    between atoms: C_24  and  C_25 
REMARK    9  A    between atoms: C_25  and  N_26 
ROOT
HETATM    1  C   UNL     1      40.629  -8.719   5.197  1.00  0.00     0.002 A 
HETATM    2  C   UNL     1      40.632  -9.493   4.033  1.00  0.00     0.032 A 
HETATM    3  C   UNL     1      41.505 -10.563   3.992  1.00  0.00     0.079 A 
HETATM    4  C   UNL     1      42.355 -10.887   5.078  1.00  0.00     0.079 A 
HETATM    5  N   UNL     1      43.093 -12.020   4.730  1.00  0.00    -0.179 N 
HETATM    6  C   UNL     1      42.686 -12.411   3.427  1.00  0.00     0.681 A 
HETATM    7  N   UNL     1      43.148 -13.497   2.773  1.00  0.00    -0.234 N 
HETATM    8  H   UNL     1      42.798 -13.809   1.879  1.00  0.00     0.174 HD
HETATM    9  H   UNL     1      43.888 -14.062   3.183  1.00  0.00     0.174 HD
HETATM   10  N   UNL     1      41.720 -11.522   2.932  1.00  0.00    -0.180 N 
HETATM   11  C   UNL     1      42.348 -10.124   6.225  1.00  0.00     0.032 A 
HETATM   12  C   UNL     1      41.478  -9.031   6.276  1.00  0.00     0.002 A 
ENDROOT
BRANCH   5  13
HETATM   13  C   UNL     1      43.873 -12.766   5.705  1.00  0.00     0.181 C 
BRANCH  13  14
HETATM   14  C   UNL     1      43.062 -13.856   6.438  1.00  0.00     0.161 C 
BRANCH  14  15
HETATM   15  O   UNL     1      43.416 -13.805   7.821  1.00  0.00    -0.392 OA
HETATM   16  H   UNL     1      43.075 -14.620   8.240  1.00  0.00     0.210 HD
ENDBRANCH  14  15
BRANCH  14  17
HETATM   17  C   UNL     1      43.378 -15.257   5.900  1.00  0.00     0.209 C 
BRANCH  17  18
HETATM   18  O   UNL     1      42.387 -15.644   4.947  1.00  0.00    -0.347 OA
BRANCH  18  19
HETATM   19  C   UNL     1      42.726 -16.724   4.169  1.00  0.00     0.090 A 
HETATM   20  C   UNL     1      42.176 -17.076   2.924  1.00  0.00     0.069 A 
HETATM   21 CL   UNL     1      40.900 -16.188   2.157  1.00  0.00    -0.081 Cl
HETATM   22  C   UNL     1      42.630 -18.217   2.254  1.00  0.00     0.050 A 
HETATM   23  C   UNL     1      43.612 -19.018   2.832  1.00  0.00     0.035 A 
HETATM   24 CL   UNL     1      44.169 -20.414   1.999  1.00  0.00    -0.084 Cl
HETATM   25  C   UNL     1      44.137 -18.700   4.080  1.00  0.00     0.026 A 
HETATM   26  C   UNL     1      43.688 -17.560   4.750  1.00  0.00     0.040 A 
ENDBRANCH  18  19
ENDBRANCH  17  18
ENDBRANCH  14  17
ENDBRANCH  13  14
ENDBRANCH   5  13
BRANCH  10  27
HETATM   27  C   UNL     1      40.924 -11.612   1.698  1.00  0.00     0.175 C 
BRANCH  27  28
HETATM   28  C   UNL     1      39.820 -12.688   1.768  1.00  0.00     0.256 C 
BRANCH  28  29
HETATM   29  N   UNL     1      39.156 -12.999   0.442  1.00  0.00    -0.066 N 
HETATM   30  H   UNL     1      38.299 -13.524   0.678  1.00  0.00     0.280 HD
HETATM   31  C   UNL     1      38.670 -11.781  -0.348  1.00  0.00     0.261 C 
HETATM   32  C   UNL     1      37.912 -12.243  -1.599  1.00  0.00     0.195 C 
HETATM   33  O   UNL     1      38.745 -13.084  -2.401  1.00  0.00    -0.388 OA
HETATM   34  C   UNL     1      39.120 -14.282  -1.713  1.00  0.00     0.195 C 
HETATM   35  C   UNL     1      39.951 -13.944  -0.469  1.00  0.00     0.261 C 
ENDBRANCH  28  29
ENDBRANCH  27  28
ENDBRANCH  10  27
TORSDOF 9
ENDMDL
