MODEL 1
REMARK VINA RESULT:      -7.2      0.000      0.000
REMARK  5 active torsions:
REMARK  status: ('A' for Active; 'I' for Inactive)
REMARK    1  A    between atoms: C_12  and  N_13 
REMARK    2  A    between atoms: N_13  and  C_14 
REMARK    3  A    between atoms: C_14  and  C_15 
REMARK    4  A    between atoms: C_15  and  N_16 
REMARK       I    between atoms: N_16  and  C_17 
REMARK    5  A    between atoms: C_17  and  C_18 
ROOT
HETATM    1  C   UNL     1      40.739 -15.976   1.713  1.00  0.00     0.025 A 
HETATM    2  C   UNL     1      40.144 -14.797   1.281  1.00  0.00     0.036 A 
HETATM    3 CL   UNL     1      39.821 -14.560  -0.388  1.00  0.00    -0.084 Cl
HETATM    4  C   UNL     1      39.796 -13.807   2.196  1.00  0.00     0.054 A 
HETATM    5  C   UNL     1      40.049 -14.000   3.561  1.00  0.00     0.046 A 
HETATM    6  C   UNL     1      40.667 -15.185   4.035  1.00  0.00     0.017 A 
HETATM    7  C   UNL     1      40.995 -16.169   3.074  1.00  0.00     0.018 A 
HETATM    8  N   UNL     1      39.684 -13.052   4.444  1.00  0.00    -0.365 N 
HETATM    9  H   UNL     1      39.232 -12.207   4.096  1.00  0.00     0.165 HD
HETATM   10  C   UNL     1      39.864 -13.176   5.763  1.00  0.00     0.090 A 
HETATM   11  C   UNL     1      40.459 -14.313   6.282  1.00  0.00     0.047 A 
HETATM   12  C   UNL     1      40.893 -15.335   5.433  1.00  0.00     0.042 A 
ENDROOT
BRANCH  12  13
HETATM   13  N   UNL     1      41.425 -16.527   5.926  1.00  0.00    -0.388 N 
HETATM   14  H   UNL     1      41.344 -17.322   5.294  1.00  0.00     0.159 HD
BRANCH  13  15
HETATM   15  C   UNL     1      42.608 -16.578   6.791  1.00  0.00     0.139 C 
BRANCH  15  16
HETATM   16  C   UNL     1      43.489 -17.784   6.418  1.00  0.00     0.142 C 
BRANCH  16  17
HETATM   17  N   UNL     1      43.804 -17.879   5.004  1.00  0.00    -0.359 N 
HETATM   18  C   UNL     1      44.156 -19.083   4.439  1.00  0.00     0.221 C 
HETATM   19  O   UNL     1      44.399 -20.098   5.079  1.00  0.00    -0.273 OA
HETATM   20  H   UNL     1      43.451 -17.160   4.386  1.00  0.00     0.162 HD
BRANCH  18  21
HETATM   21  C   UNL     1      44.180 -19.075   2.952  1.00  0.00     0.078 A 
HETATM   22  C   UNL     1      43.804 -20.310   2.166  1.00  0.00     0.015 A 
HETATM   23  C   UNL     1      42.873 -19.133   2.194  1.00  0.00     0.015 A 
ENDBRANCH  18  21
ENDBRANCH  16  17
ENDBRANCH  15  16
ENDBRANCH  13  15
ENDBRANCH  12  13
TORSDOF 5
ENDMDL
MODEL 2
REMARK VINA RESULT:      -7.1      3.240      5.926
REMARK  5 active torsions:
REMARK  status: ('A' for Active; 'I' for Inactive)
REMARK    1  A    between atoms: C_12  and  N_13 
REMARK    2  A    between atoms: N_13  and  C_14 
REMARK    3  A    between atoms: C_14  and  C_15 
REMARK    4  A    between atoms: C_15  and  N_16 
REMARK       I    between atoms: N_16  and  C_17 
REMARK    5  A    between atoms: C_17  and  C_18 
ROOT
HETATM    1  C   UNL     1      43.023 -18.497   2.251  1.00  0.00     0.025 A 
HETATM    2  C   UNL     1      43.738 -19.295   3.136  1.00  0.00     0.036 A 
HETATM    3 CL   UNL     1      44.139 -20.908   2.705  1.00  0.00    -0.084 Cl
HETATM    4  C   UNL     1      44.144 -18.792   4.369  1.00  0.00     0.054 A 
HETATM    5  C   UNL     1      43.827 -17.473   4.722  1.00  0.00     0.046 A 
HETATM    6  C   UNL     1      43.088 -16.635   3.849  1.00  0.00     0.017 A 
HETATM    7  C   UNL     1      42.704 -17.182   2.603  1.00  0.00     0.018 A 
HETATM    8  N   UNL     1      44.248 -16.983   5.902  1.00  0.00    -0.365 N 
HETATM    9  H   UNL     1      44.787 -17.589   6.520  1.00  0.00     0.165 HD
HETATM   10  C   UNL     1      44.012 -15.727   6.296  1.00  0.00     0.090 A 
HETATM   11  C   UNL     1      43.297 -14.864   5.484  1.00  0.00     0.047 A 
HETATM   12  C   UNL     1      42.800 -15.300   4.252  1.00  0.00     0.042 A 
ENDROOT
BRANCH  12  13
HETATM   13  N   UNL     1      42.145 -14.436   3.375  1.00  0.00    -0.388 N 
HETATM   14  H   UNL     1      42.397 -14.554   2.395  1.00  0.00     0.159 HD
BRANCH  13  15
HETATM   15  C   UNL     1      40.766 -13.983   3.579  1.00  0.00     0.139 C 
BRANCH  15  16
HETATM   16  C   UNL     1      39.802 -14.793   2.691  1.00  0.00     0.142 C 
BRANCH  16  17
HETATM   17  N   UNL     1      39.425 -14.128   1.457  1.00  0.00    -0.359 N 
HETATM   18  C   UNL     1      40.143 -14.327   0.300  1.00  0.00     0.221 C 
HETATM   19  O   UNL     1      41.218 -14.911   0.251  1.00  0.00    -0.273 OA
HETATM   20  H   UNL     1      38.473 -13.797   1.363  1.00  0.00     0.162 HD
BRANCH  18  21
HETATM   21  C   UNL     1      39.483 -13.805  -0.925  1.00  0.00     0.078 A 
HETATM   22  C   UNL     1      40.178 -13.871  -2.266  1.00  0.00     0.015 A 
HETATM   23  C   UNL     1      39.017 -14.779  -1.983  1.00  0.00     0.015 A 
ENDBRANCH  18  21
ENDBRANCH  16  17
ENDBRANCH  15  16
ENDBRANCH  13  15
ENDBRANCH  12  13
TORSDOF 5
ENDMDL
MODEL 3
REMARK VINA RESULT:      -7.1      4.099      6.499
REMARK  5 active torsions:
REMARK  status: ('A' for Active; 'I' for Inactive)
REMARK    1  A    between atoms: C_12  and  N_13 
REMARK    2  A    between atoms: N_13  and  C_14 
REMARK    3  A    between atoms: C_14  and  C_15 
REMARK    4  A    between atoms: C_15  and  N_16 
REMARK       I    between atoms: N_16  and  C_17 
REMARK    5  A    between atoms: C_17  and  C_18 
ROOT
HETATM    1  C   UNL     1      42.929 -17.590   2.191  1.00  0.00     0.025 A 
HETATM    2  C   UNL     1      43.472 -18.724   2.782  1.00  0.00     0.036 A 
HETATM    3 CL   UNL     1      43.620 -20.176   1.876  1.00  0.00    -0.084 Cl
HETATM    4  C   UNL     1      43.911 -18.691   4.102  1.00  0.00     0.054 A 
HETATM    5  C   UNL     1      43.801 -17.506   4.843  1.00  0.00     0.046 A 
HETATM    6  C   UNL     1      43.239 -16.333   4.277  1.00  0.00     0.017 A 
HETATM    7  C   UNL     1      42.816 -16.408   2.930  1.00  0.00     0.018 A 
HETATM    8  N   UNL     1      44.254 -17.470   6.109  1.00  0.00    -0.365 N 
HETATM    9  H   UNL     1      44.665 -18.315   6.506  1.00  0.00     0.165 HD
HETATM   10  C   UNL     1      44.213 -16.370   6.869  1.00  0.00     0.090 A 
HETATM   11  C   UNL     1      43.677 -15.196   6.367  1.00  0.00     0.047 A 
HETATM   12  C   UNL     1      43.160 -15.153   5.069  1.00  0.00     0.042 A 
ENDROOT
BRANCH  12  13
HETATM   13  N   UNL     1      42.685 -13.969   4.505  1.00  0.00    -0.388 N 
HETATM   14  H   UNL     1      42.834 -13.887   3.500  1.00  0.00     0.159 HD
BRANCH  13  15
HETATM   15  C   UNL     1      41.480 -13.282   4.981  1.00  0.00     0.139 C 
BRANCH  15  16
HETATM   16  C   UNL     1      41.832 -11.867   5.475  1.00  0.00     0.142 C 
BRANCH  16  17
HETATM   17  N   UNL     1      42.776 -11.837   6.577  1.00  0.00    -0.359 N 
HETATM   18  C   UNL     1      44.085 -11.462   6.377  1.00  0.00     0.221 C 
HETATM   19  O   UNL     1      44.592 -11.303   5.274  1.00  0.00    -0.273 OA
HETATM   20  H   UNL     1      42.411 -11.765   7.518  1.00  0.00     0.162 HD
BRANCH  18  21
HETATM   21  C   UNL     1      44.849 -11.218   7.628  1.00  0.00     0.078 A 
HETATM   22  C   UNL     1      46.236 -10.619   7.584  1.00  0.00     0.015 A 
HETATM   23  C   UNL     1      45.084  -9.795   8.082  1.00  0.00     0.015 A 
ENDBRANCH  18  21
ENDBRANCH  16  17
ENDBRANCH  15  16
ENDBRANCH  13  15
ENDBRANCH  12  13
TORSDOF 5
ENDMDL
MODEL 4
REMARK VINA RESULT:      -6.9      4.647      6.849
REMARK  5 active torsions:
REMARK  status: ('A' for Active; 'I' for Inactive)
REMARK    1  A    between atoms: C_12  and  N_13 
REMARK    2  A    between atoms: N_13  and  C_14 
REMARK    3  A    between atoms: C_14  and  C_15 
REMARK    4  A    between atoms: C_15  and  N_16 
REMARK       I    between atoms: N_16  and  C_17 
REMARK    5  A    between atoms: C_17  and  C_18 
ROOT
HETATM    1  C   UNL     1      44.301 -18.764   4.069  1.00  0.00     0.025 A 
HETATM    2  C   UNL     1      43.718 -19.069   2.846  1.00  0.00     0.036 A 
HETATM    3 CL   UNL     1      44.052 -20.574   2.088  1.00  0.00    -0.084 Cl
HETATM    4  C   UNL     1      42.851 -18.169   2.233  1.00  0.00     0.054 A 
HETATM    5  C   UNL     1      42.568 -16.944   2.852  1.00  0.00     0.046 A 
HETATM    6  C   UNL     1      43.156 -16.592   4.094  1.00  0.00     0.017 A 
HETATM    7  C   UNL     1      44.022 -17.541   4.686  1.00  0.00     0.018 A 
HETATM    8  N   UNL     1      41.707 -16.089   2.270  1.00  0.00    -0.365 N 
HETATM    9  H   UNL     1      41.281 -16.353   1.382  1.00  0.00     0.165 HD
HETATM   10  C   UNL     1      41.363 -14.917   2.812  1.00  0.00     0.090 A 
HETATM   11  C   UNL     1      41.904 -14.523   4.024  1.00  0.00     0.047 A 
HETATM   12  C   UNL     1      42.828 -15.340   4.685  1.00  0.00     0.042 A 
ENDROOT
BRANCH  12  13
HETATM   13  N   UNL     1      43.332 -15.012   5.943  1.00  0.00    -0.388 N 
HETATM   14  H   UNL     1      44.311 -15.258   6.086  1.00  0.00     0.159 HD
BRANCH  13  15
HETATM   15  C   UNL     1      42.907 -13.825   6.692  1.00  0.00     0.139 C 
BRANCH  15  16
HETATM   16  C   UNL     1      44.053 -12.798   6.760  1.00  0.00     0.142 C 
BRANCH  16  17
HETATM   17  N   UNL     1      43.988 -11.906   7.903  1.00  0.00    -0.359 N 
HETATM   18  C   UNL     1      44.810 -10.806   7.988  1.00  0.00     0.221 C 
HETATM   19  O   UNL     1      45.749 -10.591   7.233  1.00  0.00    -0.273 OA
HETATM   20  H   UNL     1      43.140 -11.897   8.455  1.00  0.00     0.162 HD
BRANCH  18  21
HETATM   21  C   UNL     1      44.442  -9.850   9.066  1.00  0.00     0.078 A 
HETATM   22  C   UNL     1      43.852 -10.342  10.367  1.00  0.00     0.015 A 
HETATM   23  C   UNL     1      45.260  -9.824  10.337  1.00  0.00     0.015 A 
ENDBRANCH  18  21
ENDBRANCH  16  17
ENDBRANCH  15  16
ENDBRANCH  13  15
ENDBRANCH  12  13
TORSDOF 5
ENDMDL
MODEL 5
REMARK VINA RESULT:      -6.8      4.236      7.100
REMARK  5 active torsions:
REMARK  status: ('A' for Active; 'I' for Inactive)
REMARK    1  A    between atoms: C_12  and  N_13 
REMARK    2  A    between atoms: N_13  and  C_14 
REMARK    3  A    between atoms: C_14  and  C_15 
REMARK    4  A    between atoms: C_15  and  N_16 
REMARK       I    between atoms: N_16  and  C_17 
REMARK    5  A    between atoms: C_17  and  C_18 
ROOT
HETATM    1  C   UNL     1      43.556 -19.041   2.739  1.00  0.00     0.025 A 
HETATM    2  C   UNL     1      43.900 -19.190   4.077  1.00  0.00     0.036 A 
HETATM    3 CL   UNL     1      44.426 -20.716   4.663  1.00  0.00    -0.084 Cl
HETATM    4  C   UNL     1      43.831 -18.107   4.948  1.00  0.00     0.054 A 
HETATM    5  C   UNL     1      43.411 -16.857   4.473  1.00  0.00     0.046 A 
HETATM    6  C   UNL     1      43.040 -16.671   3.117  1.00  0.00     0.017 A 
HETATM    7  C   UNL     1      43.134 -17.796   2.264  1.00  0.00     0.018 A 
HETATM    8  N   UNL     1      43.376 -15.806   5.312  1.00  0.00    -0.365 N 
HETATM    9  H   UNL     1      43.652 -15.946   6.283  1.00  0.00     0.165 HD
HETATM   10  C   UNL     1      43.016 -14.577   4.927  1.00  0.00     0.090 A 
HETATM   11  C   UNL     1      42.646 -14.337   3.615  1.00  0.00     0.047 A 
HETATM   12  C   UNL     1      42.630 -15.379   2.683  1.00  0.00     0.042 A 
ENDROOT
BRANCH  12  13
HETATM   13  N   UNL     1      42.339 -15.158   1.337  1.00  0.00    -0.388 N 
HETATM   14  H   UNL     1      42.313 -16.000   0.764  1.00  0.00     0.159 HD
BRANCH  13  15
HETATM   15  C   UNL     1      41.432 -14.102   0.876  1.00  0.00     0.139 C 
BRANCH  15  16
HETATM   16  C   UNL     1      40.154 -14.721   0.279  1.00  0.00     0.142 C 
BRANCH  16  17
HETATM   17  N   UNL     1      39.249 -13.759  -0.322  1.00  0.00    -0.359 N 
HETATM   18  C   UNL     1      38.944 -13.816  -1.662  1.00  0.00     0.221 C 
HETATM   19  O   UNL     1      39.520 -14.536  -2.467  1.00  0.00    -0.273 OA
HETATM   20  H   UNL     1      38.599 -13.271   0.282  1.00  0.00     0.162 HD
BRANCH  18  21
HETATM   21  C   UNL     1      37.808 -12.948  -2.069  1.00  0.00     0.078 A 
HETATM   22  C   UNL     1      37.507 -11.668  -1.324  1.00  0.00     0.015 A 
HETATM   23  C   UNL     1      38.096 -11.606  -2.703  1.00  0.00     0.015 A 
ENDBRANCH  18  21
ENDBRANCH  16  17
ENDBRANCH  15  16
ENDBRANCH  13  15
ENDBRANCH  12  13
TORSDOF 5
ENDMDL
MODEL 6
REMARK VINA RESULT:      -6.6      3.354      5.611
REMARK  5 active torsions:
REMARK  status: ('A' for Active; 'I' for Inactive)
REMARK    1  A    between atoms: C_12  and  N_13 
REMARK    2  A    between atoms: N_13  and  C_14 
REMARK    3  A    between atoms: C_14  and  C_15 
REMARK    4  A    between atoms: C_15  and  N_16 
REMARK       I    between atoms: N_16  and  C_17 
REMARK    5  A    between atoms: C_17  and  C_18 
ROOT
HETATM    1  C   UNL     1      43.710 -18.202   3.564  1.00  0.00     0.025 A 
HETATM    2  C   UNL     1      43.802 -19.181   4.545  1.00  0.00     0.036 A 
HETATM    3 CL   UNL     1      44.082 -20.817   4.102  1.00  0.00    -0.084 Cl
HETATM    4  C   UNL     1      43.680 -18.846   5.891  1.00  0.00     0.054 A 
HETATM    5  C   UNL     1      43.462 -17.511   6.259  1.00  0.00     0.046 A 
HETATM    6  C   UNL     1      43.349 -16.488   5.284  1.00  0.00     0.017 A 
HETATM    7  C   UNL     1      43.489 -16.871   3.930  1.00  0.00     0.018 A 
HETATM    8  N   UNL     1      43.375 -17.188   7.562  1.00  0.00    -0.365 N 
HETATM    9  H   UNL     1      43.465 -17.928   8.257  1.00  0.00     0.165 HD
HETATM   10  C   UNL     1      43.197 -15.934   7.992  1.00  0.00     0.090 A 
HETATM   11  C   UNL     1      43.083 -14.895   7.085  1.00  0.00     0.047 A 
HETATM   12  C   UNL     1      43.136 -15.146   5.711  1.00  0.00     0.042 A 
ENDROOT
BRANCH  12  13
HETATM   13  N   UNL     1      43.104 -14.115   4.772  1.00  0.00    -0.388 N 
HETATM   14  H   UNL     1      42.989 -14.423   3.807  1.00  0.00     0.159 HD
BRANCH  13  15
HETATM   15  C   UNL     1      42.514 -12.801   5.046  1.00  0.00     0.139 C 
BRANCH  15  16
HETATM   16  C   UNL     1      41.352 -12.524   4.075  1.00  0.00     0.142 C 
BRANCH  16  17
HETATM   17  N   UNL     1      41.046 -13.626   3.181  1.00  0.00    -0.359 N 
HETATM   18  C   UNL     1      41.301 -13.533   1.832  1.00  0.00     0.221 C 
HETATM   19  O   UNL     1      41.626 -12.499   1.264  1.00  0.00    -0.273 OA
HETATM   20  H   UNL     1      40.963 -14.554   3.576  1.00  0.00     0.162 HD
BRANCH  18  21
HETATM   21  C   UNL     1      41.193 -14.822   1.100  1.00  0.00     0.078 A 
HETATM   22  C   UNL     1      40.228 -15.893   1.556  1.00  0.00     0.015 A 
HETATM   23  C   UNL     1      39.939 -15.115   0.306  1.00  0.00     0.015 A 
ENDBRANCH  18  21
ENDBRANCH  16  17
ENDBRANCH  15  16
ENDBRANCH  13  15
ENDBRANCH  12  13
TORSDOF 5
ENDMDL
MODEL 7
REMARK VINA RESULT:      -6.6     13.894     15.005
REMARK  5 active torsions:
REMARK  status: ('A' for Active; 'I' for Inactive)
REMARK    1  A    between atoms: C_12  and  N_13 
REMARK    2  A    between atoms: N_13  and  C_14 
REMARK    3  A    between atoms: C_14  and  C_15 
REMARK    4  A    between atoms: C_15  and  N_16 
REMARK       I    between atoms: N_16  and  C_17 
REMARK    5  A    between atoms: C_17  and  C_18 
ROOT
HETATM    1  C   UNL     1      47.093 -27.883  -1.823  1.00  0.00     0.025 A 
HETATM    2  C   UNL     1      45.754 -28.098  -2.122  1.00  0.00     0.036 A 
HETATM    3 CL   UNL     1      45.187 -27.880  -3.729  1.00  0.00    -0.084 Cl
HETATM    4  C   UNL     1      44.865 -28.501  -1.130  1.00  0.00     0.054 A 
HETATM    5  C   UNL     1      45.324 -28.690   0.181  1.00  0.00     0.046 A 
HETATM    6  C   UNL     1      46.682 -28.467   0.525  1.00  0.00     0.017 A 
HETATM    7  C   UNL     1      47.552 -28.067  -0.515  1.00  0.00     0.018 A 
HETATM    8  N   UNL     1      44.467 -29.110   1.130  1.00  0.00    -0.365 N 
HETATM    9  H   UNL     1      43.495 -29.276   0.873  1.00  0.00     0.165 HD
HETATM   10  C   UNL     1      44.836 -29.341   2.395  1.00  0.00     0.090 A 
HETATM   11  C   UNL     1      46.148 -29.142   2.787  1.00  0.00     0.047 A 
HETATM   12  C   UNL     1      47.099 -28.682   1.869  1.00  0.00     0.042 A 
ENDROOT
BRANCH  12  13
HETATM   13  N   UNL     1      48.444 -28.546   2.209  1.00  0.00    -0.388 N 
HETATM   14  H   UNL     1      48.764 -27.583   2.305  1.00  0.00     0.159 HD
BRANCH  13  15
HETATM   15  C   UNL     1      49.149 -29.491   3.082  1.00  0.00     0.139 C 
BRANCH  15  16
HETATM   16  C   UNL     1      50.474 -29.931   2.432  1.00  0.00     0.142 C 
BRANCH  16  17
HETATM   17  N   UNL     1      50.418 -30.056   0.987  1.00  0.00    -0.359 N 
HETATM   18  C   UNL     1      50.898 -31.181   0.357  1.00  0.00     0.221 C 
HETATM   19  O   UNL     1      51.548 -32.056   0.914  1.00  0.00    -0.273 OA
HETATM   20  H   UNL     1      49.746 -29.491   0.484  1.00  0.00     0.162 HD
BRANCH  18  21
HETATM   21  C   UNL     1      50.527 -31.281  -1.079  1.00  0.00     0.078 A 
HETATM   22  C   UNL     1      50.220 -30.042  -1.888  1.00  0.00     0.015 A 
HETATM   23  C   UNL     1      51.499 -30.790  -2.128  1.00  0.00     0.015 A 
ENDBRANCH  18  21
ENDBRANCH  16  17
ENDBRANCH  15  16
ENDBRANCH  13  15
ENDBRANCH  12  13
TORSDOF 5
ENDMDL
MODEL 8
REMARK VINA RESULT:      -6.4      3.220      4.452
REMARK  5 active torsions:
REMARK  status: ('A' for Active; 'I' for Inactive)
REMARK    1  A    between atoms: C_12  and  N_13 
REMARK    2  A    between atoms: N_13  and  C_14 
REMARK    3  A    between atoms: C_14  and  C_15 
REMARK    4  A    between atoms: C_15  and  N_16 
REMARK       I    between atoms: N_16  and  C_17 
REMARK    5  A    between atoms: C_17  and  C_18 
ROOT
HETATM    1  C   UNL     1      43.409 -11.722   4.916  1.00  0.00     0.025 A 
HETATM    2  C   UNL     1      44.135 -12.046   6.055  1.00  0.00     0.036 A 
HETATM    3 CL   UNL     1      45.436 -11.045   6.557  1.00  0.00    -0.084 Cl
HETATM    4  C   UNL     1      43.808 -13.173   6.804  1.00  0.00     0.054 A 
HETATM    5  C   UNL     1      42.740 -13.989   6.404  1.00  0.00     0.046 A 
HETATM    6  C   UNL     1      41.986 -13.697   5.239  1.00  0.00     0.017 A 
HETATM    7  C   UNL     1      42.345 -12.537   4.514  1.00  0.00     0.018 A 
HETATM    8  N   UNL     1      42.409 -15.061   7.147  1.00  0.00    -0.365 N 
HETATM    9  H   UNL     1      42.951 -15.259   7.988  1.00  0.00     0.165 HD
HETATM   10  C   UNL     1      41.386 -15.869   6.848  1.00  0.00     0.090 A 
HETATM   11  C   UNL     1      40.614 -15.630   5.724  1.00  0.00     0.047 A 
HETATM   12  C   UNL     1      40.905 -14.552   4.882  1.00  0.00     0.042 A 
ENDROOT
BRANCH  12  13
HETATM   13  N   UNL     1      40.102 -14.236   3.787  1.00  0.00    -0.388 N 
HETATM   14  H   UNL     1      40.035 -13.240   3.582  1.00  0.00     0.159 HD
BRANCH  13  15
HETATM   15  C   UNL     1      39.994 -15.091   2.600  1.00  0.00     0.139 C 
BRANCH  15  16
HETATM   16  C   UNL     1      41.386 -15.328   1.985  1.00  0.00     0.142 C 
BRANCH  16  17
HETATM   17  N   UNL     1      41.891 -16.678   2.153  1.00  0.00    -0.359 N 
HETATM   18  C   UNL     1      42.931 -16.941   3.014  1.00  0.00     0.221 C 
HETATM   19  O   UNL     1      43.611 -16.078   3.553  1.00  0.00    -0.273 OA
HETATM   20  H   UNL     1      41.284 -17.450   1.907  1.00  0.00     0.162 HD
BRANCH  18  21
HETATM   21  C   UNL     1      43.151 -18.387   3.282  1.00  0.00     0.078 A 
HETATM   22  C   UNL     1      43.069 -19.402   2.166  1.00  0.00     0.015 A 
HETATM   23  C   UNL     1      44.404 -19.051   2.756  1.00  0.00     0.015 A 
ENDBRANCH  18  21
ENDBRANCH  16  17
ENDBRANCH  15  16
ENDBRANCH  13  15
ENDBRANCH  12  13
TORSDOF 5
ENDMDL
MODEL 9
REMARK VINA RESULT:      -6.3      4.335      5.236
REMARK  5 active torsions:
REMARK  status: ('A' for Active; 'I' for Inactive)
REMARK    1  A    between atoms: C_12  and  N_13 
REMARK    2  A    between atoms: N_13  and  C_14 
REMARK    3  A    between atoms: C_14  and  C_15 
REMARK    4  A    between atoms: C_15  and  N_16 
REMARK       I    between atoms: N_16  and  C_17 
REMARK    5  A    between atoms: C_17  and  C_18 
ROOT
HETATM    1  C   UNL     1      45.525 -11.193   7.227  1.00  0.00     0.025 A 
HETATM    2  C   UNL     1      44.884 -10.108   7.812  1.00  0.00     0.036 A 
HETATM    3 CL   UNL     1      45.794  -8.942   8.684  1.00  0.00    -0.084 Cl
HETATM    4  C   UNL     1      43.507  -9.951   7.686  1.00  0.00     0.054 A 
HETATM    5  C   UNL     1      42.760 -10.895   6.967  1.00  0.00     0.046 A 
HETATM    6  C   UNL     1      43.379 -12.022   6.369  1.00  0.00     0.017 A 
HETATM    7  C   UNL     1      44.781 -12.137   6.512  1.00  0.00     0.018 A 
HETATM    8  N   UNL     1      41.434 -10.722   6.823  1.00  0.00    -0.365 N 
HETATM    9  H   UNL     1      40.998  -9.905   7.249  1.00  0.00     0.165 HD
HETATM   10  C   UNL     1      40.660 -11.561   6.127  1.00  0.00     0.090 A 
HETATM   11  C   UNL     1      41.210 -12.677   5.520  1.00  0.00     0.047 A 
HETATM   12  C   UNL     1      42.577 -12.946   5.641  1.00  0.00     0.042 A 
ENDROOT
BRANCH  12  13
HETATM   13  N   UNL     1      43.178 -14.015   4.978  1.00  0.00    -0.388 N 
HETATM   14  H   UNL     1      44.042 -13.782   4.490  1.00  0.00     0.159 HD
BRANCH  13  15
HETATM   15  C   UNL     1      43.138 -15.393   5.479  1.00  0.00     0.139 C 
BRANCH  15  16
HETATM   16  C   UNL     1      42.226 -16.258   4.589  1.00  0.00     0.142 C 
BRANCH  16  17
HETATM   17  N   UNL     1      42.819 -17.515   4.171  1.00  0.00    -0.359 N 
HETATM   18  C   UNL     1      43.253 -17.697   2.878  1.00  0.00     0.221 C 
HETATM   19  O   UNL     1      43.027 -16.917   1.962  1.00  0.00    -0.273 OA
HETATM   20  H   UNL     1      43.210 -18.120   4.883  1.00  0.00     0.162 HD
BRANCH  18  21
HETATM   21  C   UNL     1      44.075 -18.919   2.676  1.00  0.00     0.078 A 
HETATM   22  C   UNL     1      43.824 -20.164   3.494  1.00  0.00     0.015 A 
HETATM   23  C   UNL     1      43.440 -20.136   2.043  1.00  0.00     0.015 A 
ENDBRANCH  18  21
ENDBRANCH  16  17
ENDBRANCH  15  16
ENDBRANCH  13  15
ENDBRANCH  12  13
TORSDOF 5
ENDMDL
MODEL 10
REMARK VINA RESULT:      -6.3      4.685      6.886
REMARK  5 active torsions:
REMARK  status: ('A' for Active; 'I' for Inactive)
REMARK    1  A    between atoms: C_12  and  N_13 
REMARK    2  A    between atoms: N_13  and  C_14 
REMARK    3  A    between atoms: C_14  and  C_15 
REMARK    4  A    between atoms: C_15  and  N_16 
REMARK       I    between atoms: N_16  and  C_17 
REMARK    5  A    between atoms: C_17  and  C_18 
ROOT
HETATM    1  C   UNL     1      43.693 -17.237   4.004  1.00  0.00     0.025 A 
HETATM    2  C   UNL     1      42.928 -17.723   2.951  1.00  0.00     0.036 A 
HETATM    3 CL   UNL     1      43.303 -19.245   2.249  1.00  0.00    -0.084 Cl
HETATM    4  C   UNL     1      41.849 -16.990   2.465  1.00  0.00     0.054 A 
HETATM    5  C   UNL     1      41.533 -15.752   3.040  1.00  0.00     0.046 A 
HETATM    6  C   UNL     1      42.300 -15.218   4.107  1.00  0.00     0.017 A 
HETATM    7  C   UNL     1      43.380 -16.000   4.576  1.00  0.00     0.018 A 
HETATM    8  N   UNL     1      40.470 -15.061   2.587  1.00  0.00    -0.365 N 
HETATM    9  H   UNL     1      39.919 -15.456   1.826  1.00  0.00     0.165 HD
HETATM   10  C   UNL     1      40.088 -13.889   3.104  1.00  0.00     0.090 A 
HETATM   11  C   UNL     1      40.798 -13.322   4.148  1.00  0.00     0.047 A 
HETATM   12  C   UNL     1      41.931 -13.960   4.662  1.00  0.00     0.042 A 
ENDROOT
BRANCH  12  13
HETATM   13  N   UNL     1      42.622 -13.457   5.764  1.00  0.00    -0.388 N 
HETATM   14  H   UNL     1      42.872 -14.155   6.463  1.00  0.00     0.159 HD
BRANCH  13  15
HETATM   15  C   UNL     1      43.576 -12.347   5.672  1.00  0.00     0.139 C 
BRANCH  15  16
HETATM   16  C   UNL     1      44.336 -12.185   7.002  1.00  0.00     0.142 C 
BRANCH  16  17
HETATM   17  N   UNL     1      43.614 -11.437   8.015  1.00  0.00    -0.359 N 
HETATM   18  C   UNL     1      44.286 -10.767   9.011  1.00  0.00     0.221 C 
HETATM   19  O   UNL     1      45.484 -10.883   9.229  1.00  0.00    -0.273 OA
HETATM   20  H   UNL     1      42.670 -11.136   7.805  1.00  0.00     0.162 HD
BRANCH  18  21
HETATM   21  C   UNL     1      43.437  -9.835   9.800  1.00  0.00     0.078 A 
HETATM   22  C   UNL     1      44.022  -9.032  10.939  1.00  0.00     0.015 A 
HETATM   23  C   UNL     1      43.652  -8.345   9.657  1.00  0.00     0.015 A 
ENDBRANCH  18  21
ENDBRANCH  16  17
ENDBRANCH  15  16
ENDBRANCH  13  15
ENDBRANCH  12  13
TORSDOF 5
ENDMDL
