MODEL 1
REMARK VINA RESULT:      -8.8      0.000      0.000
REMARK  5 active torsions:
REMARK  status: ('A' for Active; 'I' for Inactive)
REMARK       I    between atoms: N_2  and  C_3 
REMARK    1  A    between atoms: C_3  and  C_4 
REMARK    2  A    between atoms: C_6  and  N_7 
REMARK    3  A    between atoms: N_7  and  C_8 
REMARK    4  A    between atoms: C_8  and  C_9 
REMARK    5  A    between atoms: C_19  and  O_20 
ROOT
HETATM    1  C   UNL     1      39.711 -13.922  -0.764  1.00  0.00     0.033 A 
HETATM    2  C   UNL     1      40.359 -14.890   0.013  1.00  0.00     0.043 A 
HETATM    3  C   UNL     1      40.580 -14.694   1.382  1.00  0.00     0.043 A 
HETATM    4  C   UNL     1      40.091 -13.508   1.982  1.00  0.00     0.089 A 
HETATM    5  C   UNL     1      39.462 -12.530   1.204  1.00  0.00     0.039 A 
HETATM    6  C   UNL     1      39.280 -12.735  -0.166  1.00  0.00     0.020 A 
ENDROOT
BRANCH   3   7
HETATM    7  N   UNL     1      41.157 -15.685   2.204  1.00  0.00    -0.286 NA
HETATM    8  H   UNL     1      40.896 -15.480   3.170  1.00  0.00     0.128 HD
BRANCH   7   9
HETATM    9  C   UNL     1      42.585 -15.987   2.069  1.00  0.00     0.132 C 
BRANCH   9  10
HETATM   10  C   UNL     1      43.132 -16.721   3.282  1.00  0.00    -0.034 A 
HETATM   11  C   UNL     1      43.395 -18.124   3.294  1.00  0.00    -0.018 A 
HETATM   12  C   UNL     1      43.902 -18.709   4.486  1.00  0.00    -0.025 A 
HETATM   13  C   UNL     1      43.171 -18.995   2.198  1.00  0.00     0.013 A 
HETATM   14  C   UNL     1      44.150 -20.090   4.550  1.00  0.00     0.012 A 
HETATM   15  C   UNL     1      44.155 -17.911   5.610  1.00  0.00     0.012 A 
HETATM   16  C   UNL     1      43.909 -20.916   3.454  1.00  0.00     0.001 A 
HETATM   17  C   UNL     1      43.421 -20.368   2.278  1.00  0.00     0.001 A 
HETATM   18  C   UNL     1      43.915 -16.543   5.585  1.00  0.00     0.002 A 
HETATM   19  C   UNL     1      43.410 -15.954   4.432  1.00  0.00     0.009 A 
ENDBRANCH   9  10
ENDBRANCH   7   9
ENDBRANCH   3   7
BRANCH   4  20
HETATM   20  O   UNL     1      40.329 -13.399   3.333  1.00  0.00    -0.354 OA
HETATM   21  C   UNL     1      41.284 -12.427   3.741  1.00  0.00     0.210 C 
ENDBRANCH   4  20
BRANCH   1  22
HETATM   22  C   UNL     1      39.488 -14.109  -2.226  1.00  0.00     0.251 C 
HETATM   23  N   UNL     1      38.264 -14.619  -2.607  1.00  0.00    -0.361 N 
HETATM   24  C   UNL     1      37.936 -14.783  -4.000  1.00  0.00     0.149 C 
HETATM   25  H   UNL     1      37.510 -14.672  -1.935  1.00  0.00     0.162 HD
HETATM   26  O   UNL     1      40.363 -13.792  -3.024  1.00  0.00    -0.268 OA
ENDBRANCH   1  22
TORSDOF 5
ENDMDL
MODEL 2
REMARK VINA RESULT:      -8.5      1.797      4.317
REMARK  5 active torsions:
REMARK  status: ('A' for Active; 'I' for Inactive)
REMARK       I    between atoms: N_2  and  C_3 
REMARK    1  A    between atoms: C_3  and  C_4 
REMARK    2  A    between atoms: C_6  and  N_7 
REMARK    3  A    between atoms: N_7  and  C_8 
REMARK    4  A    between atoms: C_8  and  C_9 
REMARK    5  A    between atoms: C_19  and  O_20 
ROOT
HETATM    1  C   UNL     1      39.850 -12.853   3.790  1.00  0.00     0.033 A 
HETATM    2  C   UNL     1      40.410 -14.115   3.559  1.00  0.00     0.043 A 
HETATM    3  C   UNL     1      40.469 -14.660   2.270  1.00  0.00     0.043 A 
HETATM    4  C   UNL     1      39.987 -13.886   1.188  1.00  0.00     0.089 A 
HETATM    5  C   UNL     1      39.407 -12.634   1.417  1.00  0.00     0.039 A 
HETATM    6  C   UNL     1      39.333 -12.124   2.715  1.00  0.00     0.020 A 
ENDROOT
BRANCH   3   7
HETATM    7  N   UNL     1      41.101 -15.893   1.999  1.00  0.00    -0.286 NA
HETATM    8  H   UNL     1      40.690 -16.596   2.615  1.00  0.00     0.128 HD
BRANCH   7   9
HETATM    9  C   UNL     1      42.564 -15.960   1.981  1.00  0.00     0.132 C 
BRANCH   9  10
HETATM   10  C   UNL     1      43.119 -16.682   3.197  1.00  0.00    -0.034 A 
HETATM   11  C   UNL     1      43.376 -18.087   3.224  1.00  0.00    -0.018 A 
HETATM   12  C   UNL     1      43.891 -18.659   4.418  1.00  0.00    -0.025 A 
HETATM   13  C   UNL     1      43.139 -18.969   2.140  1.00  0.00     0.013 A 
HETATM   14  C   UNL     1      44.134 -20.041   4.496  1.00  0.00     0.012 A 
HETATM   15  C   UNL     1      44.157 -17.850   5.531  1.00  0.00     0.012 A 
HETATM   16  C   UNL     1      43.880 -20.879   3.413  1.00  0.00     0.001 A 
HETATM   17  C   UNL     1      43.383 -20.343   2.235  1.00  0.00     0.001 A 
HETATM   18  C   UNL     1      43.922 -16.481   5.491  1.00  0.00     0.002 A 
HETATM   19  C   UNL     1      43.410 -15.904   4.336  1.00  0.00     0.009 A 
ENDBRANCH   9  10
ENDBRANCH   7   9
ENDBRANCH   3   7
BRANCH   4  20
HETATM   20  O   UNL     1      40.099 -14.482  -0.048  1.00  0.00    -0.354 OA
HETATM   21  C   UNL     1      40.078 -13.622  -1.181  1.00  0.00     0.210 C 
ENDBRANCH   4  20
BRANCH   1  22
HETATM   22  C   UNL     1      39.761 -12.271   5.158  1.00  0.00     0.251 C 
HETATM   23  N   UNL     1      40.477 -11.113   5.388  1.00  0.00    -0.361 N 
HETATM   24  C   UNL     1      40.410 -10.445   6.662  1.00  0.00     0.149 C 
HETATM   25  H   UNL     1      40.871 -10.603   4.608  1.00  0.00     0.162 HD
HETATM   26  O   UNL     1      39.060 -12.807   6.009  1.00  0.00    -0.268 OA
ENDBRANCH   1  22
TORSDOF 5
ENDMDL
MODEL 3
REMARK VINA RESULT:      -8.4      2.484      5.226
REMARK  5 active torsions:
REMARK  status: ('A' for Active; 'I' for Inactive)
REMARK       I    between atoms: N_2  and  C_3 
REMARK    1  A    between atoms: C_3  and  C_4 
REMARK    2  A    between atoms: C_6  and  N_7 
REMARK    3  A    between atoms: N_7  and  C_8 
REMARK    4  A    between atoms: C_8  and  C_9 
REMARK    5  A    between atoms: C_19  and  O_20 
ROOT
HETATM    1  C   UNL     1      43.030 -12.070   2.985  1.00  0.00     0.033 A 
HETATM    2  C   UNL     1      42.945 -13.415   2.607  1.00  0.00     0.043 A 
HETATM    3  C   UNL     1      42.044 -13.838   1.622  1.00  0.00     0.043 A 
HETATM    4  C   UNL     1      41.243 -12.864   0.977  1.00  0.00     0.089 A 
HETATM    5  C   UNL     1      41.310 -11.523   1.367  1.00  0.00     0.039 A 
HETATM    6  C   UNL     1      42.196 -11.130   2.373  1.00  0.00     0.020 A 
ENDROOT
BRANCH   3   7
HETATM    7  N   UNL     1      41.994 -15.172   1.165  1.00  0.00    -0.286 NA
HETATM    8  H   UNL     1      41.664 -15.159   0.199  1.00  0.00     0.128 HD
BRANCH   7   9
HETATM    9  C   UNL     1      41.303 -16.182   1.972  1.00  0.00     0.132 C 
BRANCH   9  10
HETATM   10  C   UNL     1      42.252 -16.922   2.899  1.00  0.00    -0.034 A 
HETATM   11  C   UNL     1      42.277 -16.725   4.314  1.00  0.00    -0.018 A 
HETATM   12  C   UNL     1      43.211 -17.468   5.086  1.00  0.00    -0.025 A 
HETATM   13  C   UNL     1      41.440 -15.822   5.015  1.00  0.00     0.013 A 
HETATM   14  C   UNL     1      43.286 -17.286   6.477  1.00  0.00     0.012 A 
HETATM   15  C   UNL     1      44.068 -18.385   4.463  1.00  0.00     0.012 A 
HETATM   16  C   UNL     1      42.452 -16.382   7.131  1.00  0.00     0.001 A 
HETATM   17  C   UNL     1      41.529 -15.651   6.400  1.00  0.00     0.001 A 
HETATM   18  C   UNL     1      44.026 -18.585   3.089  1.00  0.00     0.002 A 
HETATM   19  C   UNL     1      43.127 -17.862   2.316  1.00  0.00     0.009 A 
ENDBRANCH   9  10
ENDBRANCH   7   9
ENDBRANCH   3   7
BRANCH   4  20
HETATM   20  O   UNL     1      40.399 -13.357   0.007  1.00  0.00    -0.354 OA
HETATM   21  C   UNL     1      40.503 -12.778  -1.289  1.00  0.00     0.210 C 
ENDBRANCH   4  20
BRANCH   1  22
HETATM   22  C   UNL     1      43.969 -11.609   4.046  1.00  0.00     0.251 C 
HETATM   23  N   UNL     1      43.472 -11.550   5.332  1.00  0.00    -0.361 N 
HETATM   24  C   UNL     1      44.320 -11.170   6.433  1.00  0.00     0.149 C 
HETATM   25  H   UNL     1      42.584 -11.984   5.548  1.00  0.00     0.162 HD
HETATM   26  O   UNL     1      45.127 -11.325   3.759  1.00  0.00    -0.268 OA
ENDBRANCH   1  22
TORSDOF 5
ENDMDL
MODEL 4
REMARK VINA RESULT:      -8.3      1.114      1.288
REMARK  5 active torsions:
REMARK  status: ('A' for Active; 'I' for Inactive)
REMARK       I    between atoms: N_2  and  C_3 
REMARK    1  A    between atoms: C_3  and  C_4 
REMARK    2  A    between atoms: C_6  and  N_7 
REMARK    3  A    between atoms: N_7  and  C_8 
REMARK    4  A    between atoms: C_8  and  C_9 
REMARK    5  A    between atoms: C_19  and  O_20 
ROOT
HETATM    1  C   UNL     1      40.045 -13.239   0.563  1.00  0.00     0.033 A 
HETATM    2  C   UNL     1      41.271 -13.803   0.933  1.00  0.00     0.043 A 
HETATM    3  C   UNL     1      41.667 -13.866   2.276  1.00  0.00     0.043 A 
HETATM    4  C   UNL     1      40.776 -13.384   3.265  1.00  0.00     0.089 A 
HETATM    5  C   UNL     1      39.559 -12.800   2.896  1.00  0.00     0.039 A 
HETATM    6  C   UNL     1      39.200 -12.722   1.549  1.00  0.00     0.020 A 
ENDROOT
BRANCH   3   7
HETATM    7  N   UNL     1      42.859 -14.502   2.683  1.00  0.00    -0.286 NA
HETATM    8  H   UNL     1      43.639 -13.895   2.427  1.00  0.00     0.128 HD
BRANCH   7   9
HETATM    9  C   UNL     1      43.095 -15.897   2.302  1.00  0.00     0.132 C 
BRANCH   9  10
HETATM   10  C   UNL     1      43.410 -16.773   3.503  1.00  0.00    -0.034 A 
HETATM   11  C   UNL     1      43.564 -18.191   3.418  1.00  0.00    -0.018 A 
HETATM   12  C   UNL     1      43.853 -18.913   4.607  1.00  0.00    -0.025 A 
HETATM   13  C   UNL     1      43.432 -18.945   2.225  1.00  0.00     0.013 A 
HETATM   14  C   UNL     1      43.987 -20.311   4.574  1.00  0.00     0.012 A 
HETATM   15  C   UNL     1      44.004 -18.236   5.825  1.00  0.00     0.012 A 
HETATM   16  C   UNL     1      43.842 -21.020   3.383  1.00  0.00     0.001 A 
HETATM   17  C   UNL     1      43.566 -20.336   2.209  1.00  0.00     0.001 A 
HETATM   18  C   UNL     1      43.872 -16.855   5.896  1.00  0.00     0.002 A 
HETATM   19  C   UNL     1      43.579 -16.132   4.747  1.00  0.00     0.009 A 
ENDBRANCH   9  10
ENDBRANCH   7   9
ENDBRANCH   3   7
BRANCH   4  20
HETATM   20  O   UNL     1      41.228 -13.500   4.560  1.00  0.00    -0.354 OA
HETATM   21  C   UNL     1      40.794 -12.509   5.483  1.00  0.00     0.210 C 
ENDBRANCH   4  20
BRANCH   1  22
HETATM   22  C   UNL     1      39.621 -13.146  -0.863  1.00  0.00     0.251 C 
HETATM   23  N   UNL     1      38.394 -13.691  -1.182  1.00  0.00    -0.361 N 
HETATM   24  C   UNL     1      37.874 -13.601  -2.523  1.00  0.00     0.149 C 
HETATM   25  H   UNL     1      37.754 -13.955  -0.445  1.00  0.00     0.162 HD
HETATM   26  O   UNL     1      40.342 -12.587  -1.682  1.00  0.00    -0.268 OA
ENDBRANCH   1  22
TORSDOF 5
ENDMDL
MODEL 5
REMARK VINA RESULT:      -8.2      3.718      6.044
REMARK  5 active torsions:
REMARK  status: ('A' for Active; 'I' for Inactive)
REMARK       I    between atoms: N_2  and  C_3 
REMARK    1  A    between atoms: C_3  and  C_4 
REMARK    2  A    between atoms: C_6  and  N_7 
REMARK    3  A    between atoms: N_7  and  C_8 
REMARK    4  A    between atoms: C_8  and  C_9 
REMARK    5  A    between atoms: C_19  and  O_20 
ROOT
HETATM    1  C   UNL     1      43.283 -11.726   5.283  1.00  0.00     0.033 A 
HETATM    2  C   UNL     1      42.462 -12.468   6.141  1.00  0.00     0.043 A 
HETATM    3  C   UNL     1      41.155 -12.816   5.776  1.00  0.00     0.043 A 
HETATM    4  C   UNL     1      40.690 -12.439   4.493  1.00  0.00     0.089 A 
HETATM    5  C   UNL     1      41.500 -11.680   3.642  1.00  0.00     0.039 A 
HETATM    6  C   UNL     1      42.790 -11.319   4.041  1.00  0.00     0.020 A 
ENDROOT
BRANCH   3   7
HETATM    7  N   UNL     1      40.336 -13.631   6.586  1.00  0.00    -0.286 NA
HETATM    8  H   UNL     1      40.665 -13.545   7.549  1.00  0.00     0.128 HD
BRANCH   7   9
HETATM    9  C   UNL     1      40.108 -15.026   6.202  1.00  0.00     0.132 C 
BRANCH   9  10
HETATM   10  C   UNL     1      41.407 -15.801   6.060  1.00  0.00    -0.034 A 
HETATM   11  C   UNL     1      41.883 -16.312   4.814  1.00  0.00    -0.018 A 
HETATM   12  C   UNL     1      43.110 -17.028   4.799  1.00  0.00    -0.025 A 
HETATM   13  C   UNL     1      41.207 -16.170   3.576  1.00  0.00     0.013 A 
HETATM   14  C   UNL     1      43.601 -17.569   3.599  1.00  0.00     0.012 A 
HETATM   15  C   UNL     1      43.839 -17.204   5.983  1.00  0.00     0.012 A 
HETATM   16  C   UNL     1      42.905 -17.418   2.403  1.00  0.00     0.001 A 
HETATM   17  C   UNL     1      41.708 -16.717   2.391  1.00  0.00     0.001 A 
HETATM   18  C   UNL     1      43.379 -16.688   7.189  1.00  0.00     0.002 A 
HETATM   19  C   UNL     1      42.177 -15.993   7.226  1.00  0.00     0.009 A 
ENDBRANCH   9  10
ENDBRANCH   7   9
ENDBRANCH   3   7
BRANCH   4  20
HETATM   20  O   UNL     1      39.405 -12.837   4.201  1.00  0.00    -0.354 OA
HETATM   21  C   UNL     1      39.126 -13.168   2.846  1.00  0.00     0.210 C 
ENDBRANCH   4  20
BRANCH   1  22
HETATM   22  C   UNL     1      44.668 -11.331   5.667  1.00  0.00     0.251 C 
HETATM   23  N   UNL     1      44.900 -11.109   7.009  1.00  0.00    -0.361 N 
HETATM   24  C   UNL     1      46.220 -10.777   7.484  1.00  0.00     0.149 C 
HETATM   25  H   UNL     1      44.211 -11.394   7.692  1.00  0.00     0.162 HD
HETATM   26  O   UNL     1      45.539 -11.238   4.809  1.00  0.00    -0.268 OA
ENDBRANCH   1  22
TORSDOF 5
ENDMDL
MODEL 6
REMARK VINA RESULT:      -8.1      2.604      4.130
REMARK  5 active torsions:
REMARK  status: ('A' for Active; 'I' for Inactive)
REMARK       I    between atoms: N_2  and  C_3 
REMARK    1  A    between atoms: C_3  and  C_4 
REMARK    2  A    between atoms: C_6  and  N_7 
REMARK    3  A    between atoms: N_7  and  C_8 
REMARK    4  A    between atoms: C_8  and  C_9 
REMARK    5  A    between atoms: C_19  and  O_20 
ROOT
HETATM    1  C   UNL     1      41.774 -12.026   3.031  1.00  0.00     0.033 A 
HETATM    2  C   UNL     1      41.094 -12.702   4.052  1.00  0.00     0.043 A 
HETATM    3  C   UNL     1      41.698 -12.942   5.292  1.00  0.00     0.043 A 
HETATM    4  C   UNL     1      43.005 -12.445   5.514  1.00  0.00     0.089 A 
HETATM    5  C   UNL     1      43.695 -11.788   4.490  1.00  0.00     0.039 A 
HETATM    6  C   UNL     1      43.082 -11.587   3.251  1.00  0.00     0.020 A 
ENDROOT
BRANCH   3   7
HETATM    7  N   UNL     1      41.008 -13.549   6.364  1.00  0.00    -0.286 NA
HETATM    8  H   UNL     1      41.544 -13.377   7.216  1.00  0.00     0.128 HD
BRANCH   7   9
HETATM    9  C   UNL     1      40.588 -14.948   6.246  1.00  0.00     0.132 C 
BRANCH   9  10
HETATM   10  C   UNL     1      41.770 -15.888   6.077  1.00  0.00    -0.034 A 
HETATM   11  C   UNL     1      42.125 -16.482   4.827  1.00  0.00    -0.018 A 
HETATM   12  C   UNL     1      43.247 -17.352   4.785  1.00  0.00    -0.025 A 
HETATM   13  C   UNL     1      41.424 -16.279   3.612  1.00  0.00     0.013 A 
HETATM   14  C   UNL     1      43.616 -17.977   3.582  1.00  0.00     0.012 A 
HETATM   15  C   UNL     1      43.994 -17.597   5.945  1.00  0.00     0.012 A 
HETATM   16  C   UNL     1      42.898 -17.760   2.408  1.00  0.00     0.001 A 
HETATM   17  C   UNL     1      41.802 -16.910   2.423  1.00  0.00     0.001 A 
HETATM   18  C   UNL     1      43.654 -17.001   7.153  1.00  0.00     0.002 A 
HETATM   19  C   UNL     1      42.554 -16.155   7.218  1.00  0.00     0.009 A 
ENDBRANCH   9  10
ENDBRANCH   7   9
ENDBRANCH   3   7
BRANCH   4  20
HETATM   20  O   UNL     1      43.520 -12.704   6.765  1.00  0.00    -0.354 OA
HETATM   21  C   UNL     1      44.566 -11.853   7.217  1.00  0.00     0.210 C 
ENDBRANCH   4  20
BRANCH   1  22
HETATM   22  C   UNL     1      41.152 -11.782   1.700  1.00  0.00     0.251 C 
HETATM   23  N   UNL     1      41.304 -12.773   0.752  1.00  0.00    -0.361 N 
HETATM   24  C   UNL     1      40.692 -12.652  -0.546  1.00  0.00     0.149 C 
HETATM   25  H   UNL     1      41.651 -13.682   1.027  1.00  0.00     0.162 HD
HETATM   26  O   UNL     1      40.522 -10.749   1.497  1.00  0.00    -0.268 OA
ENDBRANCH   1  22
TORSDOF 5
ENDMDL
MODEL 7
REMARK VINA RESULT:      -8.0      1.722      2.860
REMARK  5 active torsions:
REMARK  status: ('A' for Active; 'I' for Inactive)
REMARK       I    between atoms: N_2  and  C_3 
REMARK    1  A    between atoms: C_3  and  C_4 
REMARK    2  A    between atoms: C_6  and  N_7 
REMARK    3  A    between atoms: N_7  and  C_8 
REMARK    4  A    between atoms: C_8  and  C_9 
REMARK    5  A    between atoms: C_19  and  O_20 
ROOT
HETATM    1  C   UNL     1      39.678 -12.617  -0.025  1.00  0.00     0.033 A 
HETATM    2  C   UNL     1      40.321 -13.854   0.098  1.00  0.00     0.043 A 
HETATM    3  C   UNL     1      41.385 -14.035   0.991  1.00  0.00     0.043 A 
HETATM    4  C   UNL     1      41.772 -12.946   1.808  1.00  0.00     0.089 A 
HETATM    5  C   UNL     1      41.146 -11.703   1.673  1.00  0.00     0.039 A 
HETATM    6  C   UNL     1      40.107 -11.539   0.754  1.00  0.00     0.020 A 
ENDROOT
BRANCH   3   7
HETATM    7  N   UNL     1      41.997 -15.290   1.193  1.00  0.00    -0.286 NA
HETATM    8  H   UNL     1      42.250 -15.665   0.277  1.00  0.00     0.128 HD
BRANCH   7   9
HETATM    9  C   UNL     1      41.329 -16.288   2.033  1.00  0.00     0.132 C 
BRANCH   9  10
HETATM   10  C   UNL     1      42.302 -17.006   2.953  1.00  0.00    -0.034 A 
HETATM   11  C   UNL     1      42.367 -16.771   4.360  1.00  0.00    -0.018 A 
HETATM   12  C   UNL     1      43.320 -17.496   5.125  1.00  0.00    -0.025 A 
HETATM   13  C   UNL     1      41.554 -15.845   5.060  1.00  0.00     0.013 A 
HETATM   14  C   UNL     1      43.436 -17.277   6.508  1.00  0.00     0.012 A 
HETATM   15  C   UNL     1      44.157 -18.434   4.504  1.00  0.00     0.012 A 
HETATM   16  C   UNL     1      42.625 -16.352   7.160  1.00  0.00     0.001 A 
HETATM   17  C   UNL     1      41.683 -15.637   6.436  1.00  0.00     0.001 A 
HETATM   18  C   UNL     1      44.075 -18.671   3.137  1.00  0.00     0.002 A 
HETATM   19  C   UNL     1      43.156 -17.965   2.371  1.00  0.00     0.009 A 
ENDBRANCH   9  10
ENDBRANCH   7   9
ENDBRANCH   3   7
BRANCH   4  20
HETATM   20  O   UNL     1      42.811 -13.209   2.673  1.00  0.00    -0.354 OA
HETATM   21  C   UNL     1      43.424 -12.090   3.301  1.00  0.00     0.210 C 
ENDBRANCH   4  20
BRANCH   1  22
HETATM   22  C   UNL     1      38.559 -12.405  -0.986  1.00  0.00     0.251 C 
HETATM   23  N   UNL     1      38.153 -13.501  -1.719  1.00  0.00    -0.361 N 
HETATM   24  C   UNL     1      37.043 -13.408  -2.632  1.00  0.00     0.149 C 
HETATM   25  H   UNL     1      38.477 -14.425  -1.462  1.00  0.00     0.162 HD
HETATM   26  O   UNL     1      38.032 -11.301  -1.079  1.00  0.00    -0.268 OA
ENDBRANCH   1  22
TORSDOF 5
ENDMDL
MODEL 8
REMARK VINA RESULT:      -7.8      1.842      2.305
REMARK  5 active torsions:
REMARK  status: ('A' for Active; 'I' for Inactive)
REMARK       I    between atoms: N_2  and  C_3 
REMARK    1  A    between atoms: C_3  and  C_4 
REMARK    2  A    between atoms: C_6  and  N_7 
REMARK    3  A    between atoms: N_7  and  C_8 
REMARK    4  A    between atoms: C_8  and  C_9 
REMARK    5  A    between atoms: C_19  and  O_20 
ROOT
HETATM    1  C   UNL     1      40.837 -12.853   0.352  1.00  0.00     0.033 A 
HETATM    2  C   UNL     1      41.536 -13.472   1.395  1.00  0.00     0.043 A 
HETATM    3  C   UNL     1      42.210 -12.720   2.365  1.00  0.00     0.043 A 
HETATM    4  C   UNL     1      42.134 -11.308   2.297  1.00  0.00     0.089 A 
HETATM    5  C   UNL     1      41.454 -10.687   1.244  1.00  0.00     0.039 A 
HETATM    6  C   UNL     1      40.815 -11.459   0.272  1.00  0.00     0.020 A 
ENDROOT
BRANCH   3   7
HETATM    7  N   UNL     1      42.854 -13.316   3.471  1.00  0.00    -0.286 NA
HETATM    8  H   UNL     1      43.727 -13.727   3.139  1.00  0.00     0.128 HD
BRANCH   7   9
HETATM    9  C   UNL     1      42.101 -14.234   4.329  1.00  0.00     0.132 C 
BRANCH   9  10
HETATM   10  C   UNL     1      42.952 -15.399   4.807  1.00  0.00    -0.034 A 
HETATM   11  C   UNL     1      43.144 -16.592   4.046  1.00  0.00    -0.018 A 
HETATM   12  C   UNL     1      43.956 -17.622   4.593  1.00  0.00    -0.025 A 
HETATM   13  C   UNL     1      42.564 -16.838   2.776  1.00  0.00     0.013 A 
HETATM   14  C   UNL     1      44.151 -18.822   3.889  1.00  0.00     0.012 A 
HETATM   15  C   UNL     1      44.568 -17.449   5.842  1.00  0.00     0.012 A 
HETATM   16  C   UNL     1      43.557 -19.032   2.646  1.00  0.00     0.001 A 
HETATM   17  C   UNL     1      42.765 -18.040   2.090  1.00  0.00     0.001 A 
HETATM   18  C   UNL     1      44.393 -16.278   6.568  1.00  0.00     0.002 A 
HETATM   19  C   UNL     1      43.594 -15.263   6.055  1.00  0.00     0.009 A 
ENDBRANCH   9  10
ENDBRANCH   7   9
ENDBRANCH   3   7
BRANCH   4  20
HETATM   20  O   UNL     1      42.805 -10.642   3.298  1.00  0.00    -0.354 OA
HETATM   21  C   UNL     1      42.010  -9.959   4.260  1.00  0.00     0.210 C 
ENDBRANCH   4  20
BRANCH   1  22
HETATM   22  C   UNL     1      40.133 -13.641  -0.699  1.00  0.00     0.251 C 
HETATM   23  N   UNL     1      39.909 -13.008  -1.905  1.00  0.00    -0.361 N 
HETATM   24  C   UNL     1      39.286 -13.707  -3.000  1.00  0.00     0.149 C 
HETATM   25  H   UNL     1      40.375 -12.133  -2.107  1.00  0.00     0.162 HD
HETATM   26  O   UNL     1      39.803 -14.801  -0.478  1.00  0.00    -0.268 OA
ENDBRANCH   1  22
TORSDOF 5
ENDMDL
MODEL 9
REMARK VINA RESULT:      -7.7      2.249      7.602
REMARK  5 active torsions:
REMARK  status: ('A' for Active; 'I' for Inactive)
REMARK       I    between atoms: N_2  and  C_3 
REMARK    1  A    between atoms: C_3  and  C_4 
REMARK    2  A    between atoms: C_6  and  N_7 
REMARK    3  A    between atoms: N_7  and  C_8 
REMARK    4  A    between atoms: C_8  and  C_9 
REMARK    5  A    between atoms: C_19  and  O_20 
ROOT
HETATM    1  C   UNL     1      43.540 -17.205   3.843  1.00  0.00     0.033 A 
HETATM    2  C   UNL     1      43.093 -16.567   2.680  1.00  0.00     0.043 A 
HETATM    3  C   UNL     1      42.696 -15.224   2.693  1.00  0.00     0.043 A 
HETATM    4  C   UNL     1      42.798 -14.503   3.907  1.00  0.00     0.089 A 
HETATM    5  C   UNL     1      43.224 -15.142   5.076  1.00  0.00     0.039 A 
HETATM    6  C   UNL     1      43.586 -16.491   5.044  1.00  0.00     0.020 A 
ENDROOT
BRANCH   3   7
HETATM    7  N   UNL     1      42.319 -14.535   1.521  1.00  0.00    -0.286 NA
HETATM    8  H   UNL     1      42.239 -13.544   1.753  1.00  0.00     0.128 HD
BRANCH   7   9
HETATM    9  C   UNL     1      41.172 -15.015   0.744  1.00  0.00     0.132 C 
BRANCH   9  10
HETATM   10  C   UNL     1      40.261 -13.881   0.307  1.00  0.00    -0.034 A 
HETATM   11  C   UNL     1      39.428 -13.948  -0.850  1.00  0.00    -0.018 A 
HETATM   12  C   UNL     1      38.618 -12.824  -1.169  1.00  0.00    -0.025 A 
HETATM   13  C   UNL     1      39.357 -15.059  -1.727  1.00  0.00     0.013 A 
HETATM   14  C   UNL     1      37.803 -12.838  -2.313  1.00  0.00     0.012 A 
HETATM   15  C   UNL     1      38.630 -11.690  -0.345  1.00  0.00     0.012 A 
HETATM   16  C   UNL     1      37.766 -13.945  -3.157  1.00  0.00     0.001 A 
HETATM   17  C   UNL     1      38.542 -15.056  -2.864  1.00  0.00     0.001 A 
HETATM   18  C   UNL     1      39.430 -11.639   0.790  1.00  0.00     0.002 A 
HETATM   19  C   UNL     1      40.235 -12.724   1.113  1.00  0.00     0.009 A 
ENDBRANCH   9  10
ENDBRANCH   7   9
ENDBRANCH   3   7
BRANCH   4  20
HETATM   20  O   UNL     1      42.409 -13.184   3.834  1.00  0.00    -0.354 OA
HETATM   21  C   UNL     1      41.306 -12.794   4.642  1.00  0.00     0.210 C 
ENDBRANCH   4  20
BRANCH   1  22
HETATM   22  C   UNL     1      43.945 -18.639   3.848  1.00  0.00     0.251 C 
HETATM   23  N   UNL     1      43.981 -19.270   5.074  1.00  0.00    -0.361 N 
HETATM   24  C   UNL     1      44.307 -20.670   5.174  1.00  0.00     0.149 C 
HETATM   25  H   UNL     1      43.566 -18.824   5.882  1.00  0.00     0.162 HD
HETATM   26  O   UNL     1      44.205 -19.205   2.792  1.00  0.00    -0.268 OA
ENDBRANCH   1  22
TORSDOF 5
ENDMDL
MODEL 10
REMARK VINA RESULT:      -7.7      2.708      6.312
REMARK  5 active torsions:
REMARK  status: ('A' for Active; 'I' for Inactive)
REMARK       I    between atoms: N_2  and  C_3 
REMARK    1  A    between atoms: C_3  and  C_4 
REMARK    2  A    between atoms: C_6  and  N_7 
REMARK    3  A    between atoms: N_7  and  C_8 
REMARK    4  A    between atoms: C_8  and  C_9 
REMARK    5  A    between atoms: C_19  and  O_20 
ROOT
HETATM    1  C   UNL     1      41.836 -16.427   2.490  1.00  0.00     0.033 A 
HETATM    2  C   UNL     1      41.843 -16.227   3.876  1.00  0.00     0.043 A 
HETATM    3  C   UNL     1      42.675 -16.979   4.715  1.00  0.00     0.043 A 
HETATM    4  C   UNL     1      43.550 -17.924   4.126  1.00  0.00     0.089 A 
HETATM    5  C   UNL     1      43.530 -18.141   2.745  1.00  0.00     0.039 A 
HETATM    6  C   UNL     1      42.670 -17.399   1.932  1.00  0.00     0.020 A 
ENDROOT
BRANCH   3   7
HETATM    7  N   UNL     1      42.761 -16.743   6.103  1.00  0.00    -0.286 NA
HETATM    8  H   UNL     1      42.737 -17.648   6.576  1.00  0.00     0.128 HD
BRANCH   7   9
HETATM    9  C   UNL     1      41.855 -15.772   6.723  1.00  0.00     0.132 C 
BRANCH   9  10
HETATM   10  C   UNL     1      42.334 -14.342   6.538  1.00  0.00    -0.034 A 
HETATM   11  C   UNL     1      41.473 -13.273   6.145  1.00  0.00    -0.018 A 
HETATM   12  C   UNL     1      42.029 -11.974   5.996  1.00  0.00    -0.025 A 
HETATM   13  C   UNL     1      40.089 -13.413   5.872  1.00  0.00     0.013 A 
HETATM   14  C   UNL     1      41.223 -10.899   5.586  1.00  0.00     0.012 A 
HETATM   15  C   UNL     1      43.390 -11.756   6.254  1.00  0.00     0.012 A 
HETATM   16  C   UNL     1      39.868 -11.076   5.318  1.00  0.00     0.001 A 
HETATM   17  C   UNL     1      39.301 -12.333   5.462  1.00  0.00     0.001 A 
HETATM   18  C   UNL     1      44.217 -12.797   6.654  1.00  0.00     0.002 A 
HETATM   19  C   UNL     1      43.694 -14.076   6.796  1.00  0.00     0.009 A 
ENDBRANCH   9  10
ENDBRANCH   7   9
ENDBRANCH   3   7
BRANCH   4  20
HETATM   20  O   UNL     1      44.350 -18.607   5.015  1.00  0.00    -0.354 OA
HETATM   21  C   UNL     1      44.317 -20.028   4.948  1.00  0.00     0.210 C 
ENDBRANCH   4  20
BRANCH   1  22
HETATM   22  C   UNL     1      40.941 -15.649   1.588  1.00  0.00     0.251 C 
HETATM   23  N   UNL     1      41.495 -14.554   0.957  1.00  0.00    -0.361 N 
HETATM   24  C   UNL     1      40.724 -13.773   0.024  1.00  0.00     0.149 C 
HETATM   25  H   UNL     1      42.498 -14.422   0.968  1.00  0.00     0.162 HD
HETATM   26  O   UNL     1      39.780 -16.005   1.421  1.00  0.00    -0.268 OA
ENDBRANCH   1  22
TORSDOF 5
ENDMDL
