MODEL 1
REMARK VINA RESULT:      -8.9      0.000      0.000
REMARK  7 active torsions:
REMARK  status: ('A' for Active; 'I' for Inactive)
REMARK    1  A    between atoms: C_4  and  O_5 
REMARK    2  A    between atoms: O_5  and  C_6 
REMARK    3  A    between atoms: C_6  and  C_7 
REMARK       I    between atoms: C_7  and  N_8 
REMARK    4  A    between atoms: N_8  and  N_9 
REMARK       I    between atoms: N_9  and  C_10 
REMARK    5  A    between atoms: C_10  and  C_11 
REMARK    6  A    between atoms: C_13  and  C_14 
REMARK    7  A    between atoms: C_21  and  C_22 
ROOT
HETATM    1  N   UNL     1      44.225 -13.241   6.131  1.00  0.00    -0.262 N 
HETATM    2  C   UNL     1      42.972 -13.526   5.614  1.00  0.00     0.291 C 
HETATM    3  O   UNL     1      41.976 -12.859   5.897  1.00  0.00    -0.264 OA
HETATM    4  H   UNL     1      44.939 -13.966   6.077  1.00  0.00     0.190 HD
ENDROOT
BRANCH   2   5
HETATM    5  C   UNL     1      42.971 -14.661   4.704  1.00  0.00     0.159 A 
HETATM    6  N   UNL     1      43.231 -15.962   5.128  1.00  0.00    -0.216 NA
HETATM    7  C   UNL     1      43.212 -16.672   4.016  1.00  0.00     0.180 A 
HETATM    8  O   UNL     1      42.911 -15.946   2.897  1.00  0.00    -0.293 OA
HETATM    9  C   UNL     1      42.753 -14.662   3.340  1.00  0.00     0.094 A 
BRANCH   7  10
HETATM   10  C   UNL     1      43.494 -18.093   3.818  1.00  0.00     0.017 A 
HETATM   11  C   UNL     1      43.304 -18.671   2.555  1.00  0.00     0.016 A 
HETATM   12  C   UNL     1      43.542 -20.034   2.347  1.00  0.00     0.001 A 
HETATM   13  C   UNL     1      43.971 -20.835   3.402  1.00  0.00     0.000 A 
HETATM   14  C   UNL     1      44.167 -20.276   4.663  1.00  0.00     0.001 A 
HETATM   15  C   UNL     1      43.930 -18.914   4.870  1.00  0.00     0.016 A 
ENDBRANCH   7  10
BRANCH   9  16
HETATM   16  C   UNL     1      42.389 -13.492   2.446  1.00  0.00     0.046 A 
HETATM   17  C   UNL     1      41.579 -13.776   1.198  1.00  0.00     0.012 A 
HETATM   18  C   UNL     1      40.926 -13.105   2.357  1.00  0.00     0.012 A 
ENDBRANCH   9  16
ENDBRANCH   2   5
BRANCH   1  19
HETATM   19  N   UNL     1      44.304 -12.322   7.195  1.00  0.00    -0.265 N 
HETATM   20  C   UNL     1      45.211 -11.275   7.063  1.00  0.00     0.260 C 
HETATM   21  O   UNL     1      45.749 -10.990   5.997  1.00  0.00    -0.269 OA
HETATM   22  H   UNL     1      44.164 -12.735   8.115  1.00  0.00     0.190 HD
BRANCH  20  23
HETATM   23  C   UNL     1      45.448 -10.529   8.379  1.00  0.00     0.280 C 
BRANCH  23  24
HETATM   24  O   UNL     1      44.530 -10.968   9.369  1.00  0.00    -0.342 OA
BRANCH  24  25
HETATM   25  C   UNL     1      43.974 -10.016  10.176  1.00  0.00     0.069 A 
HETATM   26  C   UNL     1      43.480 -10.212  11.468  1.00  0.00     0.043 A 
HETATM   27  C   UNL     1      42.913  -9.144  12.183  1.00  0.00    -0.059 A 
HETATM   28  C   UNL     1      42.380  -9.340  13.572  1.00  0.00     0.048 C 
HETATM   29  C   UNL     1      42.866  -7.873  11.598  1.00  0.00     0.007 A 
HETATM   30  C   UNL     1      43.367  -7.672  10.313  1.00  0.00     0.003 A 
HETATM   31  C   UNL     1      43.917  -8.741   9.607  1.00  0.00     0.037 A 
ENDBRANCH  24  25
ENDBRANCH  23  24
ENDBRANCH  20  23
ENDBRANCH   1  19
TORSDOF 7
ENDMDL
MODEL 2
REMARK VINA RESULT:      -8.9      1.603      2.229
REMARK  7 active torsions:
REMARK  status: ('A' for Active; 'I' for Inactive)
REMARK    1  A    between atoms: C_4  and  O_5 
REMARK    2  A    between atoms: O_5  and  C_6 
REMARK    3  A    between atoms: C_6  and  C_7 
REMARK       I    between atoms: C_7  and  N_8 
REMARK    4  A    between atoms: N_8  and  N_9 
REMARK       I    between atoms: N_9  and  C_10 
REMARK    5  A    between atoms: C_10  and  C_11 
REMARK    6  A    between atoms: C_13  and  C_14 
REMARK    7  A    between atoms: C_21  and  C_22 
ROOT
HETATM    1  N   UNL     1      42.566 -12.024   6.832  1.00  0.00    -0.262 N 
HETATM    2  C   UNL     1      42.675 -12.072   5.452  1.00  0.00     0.291 C 
HETATM    3  O   UNL     1      43.040 -11.103   4.785  1.00  0.00    -0.264 OA
HETATM    4  H   UNL     1      42.018 -12.748   7.293  1.00  0.00     0.190 HD
ENDROOT
BRANCH   2   5
HETATM    5  C   UNL     1      42.336 -13.373   4.895  1.00  0.00     0.159 A 
HETATM    6  N   UNL     1      43.241 -14.430   4.856  1.00  0.00    -0.216 NA
HETATM    7  C   UNL     1      42.590 -15.388   4.223  1.00  0.00     0.180 A 
HETATM    8  O   UNL     1      41.307 -15.059   3.885  1.00  0.00    -0.293 OA
HETATM    9  C   UNL     1      41.145 -13.772   4.320  1.00  0.00     0.094 A 
BRANCH   7  10
HETATM   10  C   UNL     1      43.056 -16.712   3.816  1.00  0.00     0.017 A 
HETATM   11  C   UNL     1      42.598 -17.271   2.613  1.00  0.00     0.016 A 
HETATM   12  C   UNL     1      43.009 -18.547   2.214  1.00  0.00     0.001 A 
HETATM   13  C   UNL     1      43.882 -19.281   3.014  1.00  0.00     0.000 A 
HETATM   14  C   UNL     1      44.347 -18.739   4.211  1.00  0.00     0.001 A 
HETATM   15  C   UNL     1      43.938 -17.464   4.608  1.00  0.00     0.016 A 
ENDBRANCH   7  10
BRANCH   9  16
HETATM   16  C   UNL     1      39.859 -12.981   4.179  1.00  0.00     0.046 A 
HETATM   17  C   UNL     1      39.869 -11.761   3.281  1.00  0.00     0.012 A 
HETATM   18  C   UNL     1      39.171 -12.996   2.828  1.00  0.00     0.012 A 
ENDBRANCH   9  16
ENDBRANCH   2   5
BRANCH   1  19
HETATM   19  N   UNL     1      42.639 -10.762   7.453  1.00  0.00    -0.265 N 
HETATM   20  C   UNL     1      43.678 -10.558   8.357  1.00  0.00     0.260 C 
HETATM   21  O   UNL     1      44.638 -11.317   8.449  1.00  0.00    -0.269 OA
HETATM   22  H   UNL     1      41.733 -10.338   7.645  1.00  0.00     0.190 HD
BRANCH  20  23
HETATM   23  C   UNL     1      43.488  -9.295   9.200  1.00  0.00     0.280 C 
BRANCH  23  24
HETATM   24  O   UNL     1      44.161  -9.425  10.444  1.00  0.00    -0.342 OA
BRANCH  24  25
HETATM   25  C   UNL     1      43.432  -9.199  11.578  1.00  0.00     0.069 A 
HETATM   26  C   UNL     1      43.614  -8.150  12.483  1.00  0.00     0.043 A 
HETATM   27  C   UNL     1      42.803  -8.046  13.626  1.00  0.00    -0.059 A 
HETATM   28  C   UNL     1      42.986  -6.924  14.604  1.00  0.00     0.048 C 
HETATM   29  C   UNL     1      41.795  -8.993  13.840  1.00  0.00     0.007 A 
HETATM   30  C   UNL     1      41.605 -10.035  12.934  1.00  0.00     0.003 A 
HETATM   31  C   UNL     1      42.423 -10.135  11.810  1.00  0.00     0.037 A 
ENDBRANCH  24  25
ENDBRANCH  23  24
ENDBRANCH  20  23
ENDBRANCH   1  19
TORSDOF 7
ENDMDL
MODEL 3
REMARK VINA RESULT:      -8.6      2.064      9.971
REMARK  7 active torsions:
REMARK  status: ('A' for Active; 'I' for Inactive)
REMARK    1  A    between atoms: C_4  and  O_5 
REMARK    2  A    between atoms: O_5  and  C_6 
REMARK    3  A    between atoms: C_6  and  C_7 
REMARK       I    between atoms: C_7  and  N_8 
REMARK    4  A    between atoms: N_8  and  N_9 
REMARK       I    between atoms: N_9  and  C_10 
REMARK    5  A    between atoms: C_10  and  C_11 
REMARK    6  A    between atoms: C_13  and  C_14 
REMARK    7  A    between atoms: C_21  and  C_22 
ROOT
HETATM    1  N   UNL     1      43.535 -12.760   7.359  1.00  0.00    -0.262 N 
HETATM    2  C   UNL     1      44.270 -11.595   7.498  1.00  0.00     0.291 C 
HETATM    3  O   UNL     1      45.327 -11.407   6.896  1.00  0.00    -0.264 OA
HETATM    4  H   UNL     1      42.830 -12.967   8.065  1.00  0.00     0.190 HD
ENDROOT
BRANCH   2   5
HETATM    5  C   UNL     1      43.653 -10.633   8.400  1.00  0.00     0.159 A 
HETATM    6  N   UNL     1      43.886 -10.636   9.772  1.00  0.00    -0.216 NA
HETATM    7  C   UNL     1      43.102  -9.678  10.233  1.00  0.00     0.180 A 
HETATM    8  O   UNL     1      42.407  -9.012   9.262  1.00  0.00    -0.293 OA
HETATM    9  C   UNL     1      42.766  -9.621   8.090  1.00  0.00     0.094 A 
BRANCH   7  10
HETATM   10  C   UNL     1      42.859  -9.265  11.614  1.00  0.00     0.017 A 
HETATM   11  C   UNL     1      41.942  -9.977  12.402  1.00  0.00     0.016 A 
HETATM   12  C   UNL     1      41.672  -9.585  13.717  1.00  0.00     0.001 A 
HETATM   13  C   UNL     1      42.315  -8.476  14.260  1.00  0.00     0.000 A 
HETATM   14  C   UNL     1      43.229  -7.758  13.491  1.00  0.00     0.001 A 
HETATM   15  C   UNL     1      43.500  -8.151  12.178  1.00  0.00     0.016 A 
ENDBRANCH   7  10
BRANCH   9  16
HETATM   16  C   UNL     1      42.254  -9.205   6.724  1.00  0.00     0.046 A 
HETATM   17  C   UNL     1      41.474 -10.222   5.917  1.00  0.00     0.012 A 
HETATM   18  C   UNL     1      40.754  -9.080   6.545  1.00  0.00     0.012 A 
ENDBRANCH   9  16
ENDBRANCH   2   5
BRANCH   1  19
HETATM   19  N   UNL     1      44.145 -13.848   6.704  1.00  0.00    -0.265 N 
HETATM   20  C   UNL     1      43.675 -15.121   7.015  1.00  0.00     0.260 C 
HETATM   21  O   UNL     1      42.629 -15.313   7.629  1.00  0.00    -0.269 OA
HETATM   22  H   UNL     1      45.139 -13.723   6.525  1.00  0.00     0.190 HD
BRANCH  20  23
HETATM   23  C   UNL     1      44.596 -16.232   6.505  1.00  0.00     0.280 C 
BRANCH  23  24
HETATM   24  O   UNL     1      43.843 -17.393   6.189  1.00  0.00    -0.342 OA
BRANCH  24  25
HETATM   25  C   UNL     1      43.626 -17.660   4.866  1.00  0.00     0.069 A 
HETATM   26  C   UNL     1      43.849 -18.878   4.220  1.00  0.00     0.043 A 
HETATM   27  C   UNL     1      43.602 -19.011   2.844  1.00  0.00    -0.059 A 
HETATM   28  C   UNL     1      43.835 -20.315   2.138  1.00  0.00     0.048 C 
HETATM   29  C   UNL     1      43.107 -17.916   2.126  1.00  0.00     0.007 A 
HETATM   30  C   UNL     1      42.874 -16.701   2.769  1.00  0.00     0.003 A 
HETATM   31  C   UNL     1      43.135 -16.577   4.133  1.00  0.00     0.037 A 
ENDBRANCH  24  25
ENDBRANCH  23  24
ENDBRANCH  20  23
ENDBRANCH   1  19
TORSDOF 7
ENDMDL
MODEL 4
REMARK VINA RESULT:      -8.2      2.099     10.051
REMARK  7 active torsions:
REMARK  status: ('A' for Active; 'I' for Inactive)
REMARK    1  A    between atoms: C_4  and  O_5 
REMARK    2  A    between atoms: O_5  and  C_6 
REMARK    3  A    between atoms: C_6  and  C_7 
REMARK       I    between atoms: C_7  and  N_8 
REMARK    4  A    between atoms: N_8  and  N_9 
REMARK       I    between atoms: N_9  and  C_10 
REMARK    5  A    between atoms: C_10  and  C_11 
REMARK    6  A    between atoms: C_13  and  C_14 
REMARK    7  A    between atoms: C_21  and  C_22 
ROOT
HETATM    1  N   UNL     1      41.815 -11.577   6.863  1.00  0.00    -0.262 N 
HETATM    2  C   UNL     1      41.982 -10.208   6.989  1.00  0.00     0.291 C 
HETATM    3  O   UNL     1      41.645  -9.419   6.106  1.00  0.00    -0.264 OA
HETATM    4  H   UNL     1      42.342 -12.182   7.491  1.00  0.00     0.190 HD
ENDROOT
BRANCH   2   5
HETATM    5  C   UNL     1      42.567  -9.817   8.263  1.00  0.00     0.159 A 
HETATM    6  N   UNL     1      41.813  -9.691   9.427  1.00  0.00    -0.216 NA
HETATM    7  C   UNL     1      42.678  -9.258  10.325  1.00  0.00     0.180 A 
HETATM    8  O   UNL     1      43.955  -9.134   9.853  1.00  0.00    -0.293 OA
HETATM    9  C   UNL     1      43.883  -9.498   8.536  1.00  0.00     0.094 A 
BRANCH   7  10
HETATM   10  C   UNL     1      42.453  -8.869  11.716  1.00  0.00     0.017 A 
HETATM   11  C   UNL     1      43.375  -8.032  12.362  1.00  0.00     0.016 A 
HETATM   12  C   UNL     1      43.195  -7.667  13.700  1.00  0.00     0.001 A 
HETATM   13  C   UNL     1      42.092  -8.136  14.409  1.00  0.00     0.000 A 
HETATM   14  C   UNL     1      41.166  -8.967  13.782  1.00  0.00     0.001 A 
HETATM   15  C   UNL     1      41.345  -9.330  12.444  1.00  0.00     0.016 A 
ENDBRANCH   7  10
BRANCH   9  16
HETATM   16  C   UNL     1      45.073  -9.535   7.597  1.00  0.00     0.046 A 
HETATM   17  C   UNL     1      46.447  -9.281   8.181  1.00  0.00     0.012 A 
HETATM   18  C   UNL     1      46.070 -10.663   7.772  1.00  0.00     0.012 A 
ENDBRANCH   9  16
ENDBRANCH   2   5
BRANCH   1  19
HETATM   19  N   UNL     1      41.481 -12.084   5.592  1.00  0.00    -0.265 N 
HETATM   20  C   UNL     1      40.591 -13.153   5.548  1.00  0.00     0.260 C 
HETATM   21  O   UNL     1      39.923 -13.503   6.517  1.00  0.00    -0.269 OA
HETATM   22  H   UNL     1      42.242 -12.052   4.917  1.00  0.00     0.190 HD
BRANCH  20  23
HETATM   23  C   UNL     1      40.541 -13.825   4.174  1.00  0.00     0.280 C 
BRANCH  23  24
HETATM   24  O   UNL     1      41.851 -13.973   3.647  1.00  0.00    -0.342 OA
BRANCH  24  25
HETATM   25  C   UNL     1      42.448 -15.195   3.783  1.00  0.00     0.069 A 
HETATM   26  C   UNL     1      42.373 -16.257   2.879  1.00  0.00     0.043 A 
HETATM   27  C   UNL     1      43.022 -17.473   3.153  1.00  0.00    -0.059 A 
HETATM   28  C   UNL     1      42.951 -18.621   2.190  1.00  0.00     0.048 C 
HETATM   29  C   UNL     1      43.765 -17.604   4.332  1.00  0.00     0.007 A 
HETATM   30  C   UNL     1      43.850 -16.543   5.231  1.00  0.00     0.003 A 
HETATM   31  C   UNL     1      43.192 -15.345   4.955  1.00  0.00     0.037 A 
ENDBRANCH  24  25
ENDBRANCH  23  24
ENDBRANCH  20  23
ENDBRANCH   1  19
TORSDOF 7
ENDMDL
MODEL 5
REMARK VINA RESULT:      -8.1      2.225      2.762
REMARK  7 active torsions:
REMARK  status: ('A' for Active; 'I' for Inactive)
REMARK    1  A    between atoms: C_4  and  O_5 
REMARK    2  A    between atoms: O_5  and  C_6 
REMARK    3  A    between atoms: C_6  and  C_7 
REMARK       I    between atoms: C_7  and  N_8 
REMARK    4  A    between atoms: N_8  and  N_9 
REMARK       I    between atoms: N_9  and  C_10 
REMARK    5  A    between atoms: C_10  and  C_11 
REMARK    6  A    between atoms: C_13  and  C_14 
REMARK    7  A    between atoms: C_21  and  C_22 
ROOT
HETATM    1  N   UNL     1      41.190 -11.769   6.060  1.00  0.00    -0.262 N 
HETATM    2  C   UNL     1      40.311 -12.774   5.694  1.00  0.00     0.291 C 
HETATM    3  O   UNL     1      39.168 -12.848   6.146  1.00  0.00    -0.264 OA
HETATM    4  H   UNL     1      42.181 -11.907   5.867  1.00  0.00     0.190 HD
ENDROOT
BRANCH   2   5
HETATM    5  C   UNL     1      40.872 -13.699   4.719  1.00  0.00     0.159 A 
HETATM    6  N   UNL     1      41.427 -14.923   5.081  1.00  0.00    -0.216 NA
HETATM    7  C   UNL     1      41.881 -15.418   3.945  1.00  0.00     0.180 A 
HETATM    8  O   UNL     1      41.624 -14.635   2.854  1.00  0.00    -0.293 OA
HETATM    9  C   UNL     1      40.974 -13.538   3.352  1.00  0.00     0.094 A 
BRANCH   7  10
HETATM   10  C   UNL     1      42.634 -16.648   3.705  1.00  0.00     0.017 A 
HETATM   11  C   UNL     1      42.411 -17.383   2.531  1.00  0.00     0.016 A 
HETATM   12  C   UNL     1      43.099 -18.576   2.291  1.00  0.00     0.001 A 
HETATM   13  C   UNL     1      44.018 -19.051   3.223  1.00  0.00     0.000 A 
HETATM   14  C   UNL     1      44.253 -18.332   4.394  1.00  0.00     0.001 A 
HETATM   15  C   UNL     1      43.566 -17.139   4.633  1.00  0.00     0.016 A 
ENDBRANCH   7  10
BRANCH   9  16
HETATM   16  C   UNL     1      40.468 -12.390   2.499  1.00  0.00     0.046 A 
HETATM   17  C   UNL     1      40.879 -12.352   1.042  1.00  0.00     0.012 A 
HETATM   18  C   UNL     1      39.480 -12.716   1.398  1.00  0.00     0.012 A 
ENDBRANCH   9  16
ENDBRANCH   2   5
BRANCH   1  19
HETATM   19  N   UNL     1      40.845 -10.963   7.162  1.00  0.00    -0.265 N 
HETATM   20  C   UNL     1      40.749  -9.592   6.942  1.00  0.00     0.260 C 
HETATM   21  O   UNL     1      40.715  -9.099   5.817  1.00  0.00    -0.269 OA
HETATM   22  H   UNL     1      41.215 -11.291   8.052  1.00  0.00     0.190 HD
BRANCH  20  23
HETATM   23  C   UNL     1      40.684  -8.787   8.242  1.00  0.00     0.280 C 
BRANCH  23  24
HETATM   24  O   UNL     1      41.897  -8.079   8.446  1.00  0.00    -0.342 OA
BRANCH  24  25
HETATM   25  C   UNL     1      42.902  -8.732   9.105  1.00  0.00     0.069 A 
HETATM   26  C   UNL     1      42.752  -9.599  10.190  1.00  0.00     0.043 A 
HETATM   27  C   UNL     1      43.877 -10.191  10.789  1.00  0.00    -0.059 A 
HETATM   28  C   UNL     1      43.731 -11.125  11.954  1.00  0.00     0.048 C 
HETATM   29  C   UNL     1      45.151  -9.922  10.274  1.00  0.00     0.007 A 
HETATM   30  C   UNL     1      45.302  -9.065   9.185  1.00  0.00     0.003 A 
HETATM   31  C   UNL     1      44.180  -8.474   8.606  1.00  0.00     0.037 A 
ENDBRANCH  24  25
ENDBRANCH  23  24
ENDBRANCH  20  23
ENDBRANCH   1  19
TORSDOF 7
ENDMDL
MODEL 6
REMARK VINA RESULT:      -7.9      2.528      5.038
REMARK  7 active torsions:
REMARK  status: ('A' for Active; 'I' for Inactive)
REMARK    1  A    between atoms: C_4  and  O_5 
REMARK    2  A    between atoms: O_5  and  C_6 
REMARK    3  A    between atoms: C_6  and  C_7 
REMARK       I    between atoms: C_7  and  N_8 
REMARK    4  A    between atoms: N_8  and  N_9 
REMARK       I    between atoms: N_9  and  C_10 
REMARK    5  A    between atoms: C_10  and  C_11 
REMARK    6  A    between atoms: C_13  and  C_14 
REMARK    7  A    between atoms: C_21  and  C_22 
ROOT
HETATM    1  N   UNL     1      42.410 -12.697   4.286  1.00  0.00    -0.262 N 
HETATM    2  C   UNL     1      41.188 -13.348   4.234  1.00  0.00     0.291 C 
HETATM    3  O   UNL     1      40.437 -13.417   5.207  1.00  0.00    -0.264 OA
HETATM    4  H   UNL     1      43.088 -12.897   3.553  1.00  0.00     0.190 HD
ENDROOT
BRANCH   2   5
HETATM    5  C   UNL     1      40.892 -13.907   2.924  1.00  0.00     0.159 A 
HETATM    6  N   UNL     1      40.333 -13.153   1.896  1.00  0.00    -0.216 NA
HETATM    7  C   UNL     1      40.155 -14.023   0.919  1.00  0.00     0.180 A 
HETATM    8  O   UNL     1      40.600 -15.283   1.208  1.00  0.00    -0.293 OA
HETATM    9  C   UNL     1      41.075 -15.205   2.489  1.00  0.00     0.094 A 
BRANCH   7  10
HETATM   10  C   UNL     1      39.532 -13.832  -0.390  1.00  0.00     0.017 A 
HETATM   11  C   UNL     1      39.449 -14.910  -1.285  1.00  0.00     0.016 A 
HETATM   12  C   UNL     1      38.881 -14.746  -2.552  1.00  0.00     0.001 A 
HETATM   13  C   UNL     1      38.389 -13.503  -2.940  1.00  0.00     0.000 A 
HETATM   14  C   UNL     1      38.461 -12.423  -2.062  1.00  0.00     0.001 A 
HETATM   15  C   UNL     1      39.028 -12.587  -0.796  1.00  0.00     0.016 A 
ENDBRANCH   7  10
BRANCH   9  16
HETATM   16  C   UNL     1      41.694 -16.370   3.239  1.00  0.00     0.046 A 
HETATM   17  C   UNL     1      42.653 -17.269   2.488  1.00  0.00     0.012 A 
HETATM   18  C   UNL     1      43.185 -16.320   3.505  1.00  0.00     0.012 A 
ENDBRANCH   9  16
ENDBRANCH   2   5
BRANCH   1  19
HETATM   19  N   UNL     1      42.904 -12.326   5.552  1.00  0.00    -0.265 N 
HETATM   20  C   UNL     1      44.131 -11.672   5.588  1.00  0.00     0.260 C 
HETATM   21  O   UNL     1      44.667 -11.205   4.585  1.00  0.00    -0.269 OA
HETATM   22  H   UNL     1      42.676 -12.981   6.297  1.00  0.00     0.190 HD
BRANCH  20  23
HETATM   23  C   UNL     1      44.721 -11.597   6.998  1.00  0.00     0.280 C 
BRANCH  23  24
HETATM   24  O   UNL     1      45.160 -10.277   7.282  1.00  0.00    -0.342 OA
BRANCH  24  25
HETATM   25  C   UNL     1      44.707  -9.699   8.434  1.00  0.00     0.069 A 
HETATM   26  C   UNL     1      43.980  -8.510   8.532  1.00  0.00     0.043 A 
HETATM   27  C   UNL     1      43.591  -8.014   9.788  1.00  0.00    -0.059 A 
HETATM   28  C   UNL     1      42.809  -6.739   9.908  1.00  0.00     0.048 C 
HETATM   29  C   UNL     1      43.920  -8.735  10.942  1.00  0.00     0.007 A 
HETATM   30  C   UNL     1      44.636  -9.927  10.847  1.00  0.00     0.003 A 
HETATM   31  C   UNL     1      45.027 -10.403   9.597  1.00  0.00     0.037 A 
ENDBRANCH  24  25
ENDBRANCH  23  24
ENDBRANCH  20  23
ENDBRANCH   1  19
TORSDOF 7
ENDMDL
MODEL 7
REMARK VINA RESULT:      -7.9      2.489      9.622
REMARK  7 active torsions:
REMARK  status: ('A' for Active; 'I' for Inactive)
REMARK    1  A    between atoms: C_4  and  O_5 
REMARK    2  A    between atoms: O_5  and  C_6 
REMARK    3  A    between atoms: C_6  and  C_7 
REMARK       I    between atoms: C_7  and  N_8 
REMARK    4  A    between atoms: N_8  and  N_9 
REMARK       I    between atoms: N_9  and  C_10 
REMARK    5  A    between atoms: C_10  and  C_11 
REMARK    6  A    between atoms: C_13  and  C_14 
REMARK    7  A    between atoms: C_21  and  C_22 
ROOT
HETATM    1  N   UNL     1      42.281 -12.933   4.225  1.00  0.00    -0.262 N 
HETATM    2  C   UNL     1      43.010 -11.759   4.129  1.00  0.00     0.291 C 
HETATM    3  O   UNL     1      43.710 -11.496   3.150  1.00  0.00    -0.264 OA
HETATM    4  H   UNL     1      41.945 -13.211   5.145  1.00  0.00     0.190 HD
ENDROOT
BRANCH   2   5
HETATM    5  C   UNL     1      42.841 -10.884   5.279  1.00  0.00     0.159 A 
HETATM    6  N   UNL     1      43.652 -10.965   6.408  1.00  0.00    -0.216 NA
HETATM    7  C   UNL     1      43.139 -10.073   7.236  1.00  0.00     0.180 A 
HETATM    8  O   UNL     1      42.082  -9.377   6.720  1.00  0.00    -0.293 OA
HETATM    9  C   UNL     1      41.897  -9.893   5.466  1.00  0.00     0.094 A 
BRANCH   7  10
HETATM   10  C   UNL     1      43.521  -9.760   8.612  1.00  0.00     0.017 A 
HETATM   11  C   UNL     1      44.853  -9.928   9.020  1.00  0.00     0.016 A 
HETATM   12  C   UNL     1      45.237  -9.659  10.338  1.00  0.00     0.001 A 
HETATM   13  C   UNL     1      44.294  -9.221  11.264  1.00  0.00     0.000 A 
HETATM   14  C   UNL     1      42.967  -9.047  10.874  1.00  0.00     0.001 A 
HETATM   15  C   UNL     1      42.584  -9.314   9.557  1.00  0.00     0.016 A 
ENDBRANCH   7  10
BRANCH   9  16
HETATM   16  C   UNL     1      40.834  -9.413   4.497  1.00  0.00     0.046 A 
HETATM   17  C   UNL     1      40.042  -8.176   4.866  1.00  0.00     0.012 A 
HETATM   18  C   UNL     1      41.072  -8.092   3.793  1.00  0.00     0.012 A 
ENDBRANCH   9  16
ENDBRANCH   2   5
BRANCH   1  19
HETATM   19  N   UNL     1      42.550 -13.951   3.290  1.00  0.00    -0.265 N 
HETATM   20  C   UNL     1      41.624 -14.987   3.196  1.00  0.00     0.260 C 
HETATM   21  O   UNL     1      40.506 -14.928   3.700  1.00  0.00    -0.269 OA
HETATM   22  H   UNL     1      43.538 -14.166   3.179  1.00  0.00     0.190 HD
BRANCH  20  23
HETATM   23  C   UNL     1      42.153 -16.181   2.398  1.00  0.00     0.280 C 
BRANCH  23  24
HETATM   24  O   UNL     1      43.366 -16.656   2.965  1.00  0.00    -0.342 OA
BRANCH  24  25
HETATM   25  C   UNL     1      43.508 -18.009   3.099  1.00  0.00     0.069 A 
HETATM   26  C   UNL     1      43.950 -18.686   4.238  1.00  0.00     0.043 A 
HETATM   27  C   UNL     1      44.069 -20.086   4.234  1.00  0.00    -0.059 A 
HETATM   28  C   UNL     1      44.542 -20.825   5.451  1.00  0.00     0.048 C 
HETATM   29  C   UNL     1      43.720 -20.801   3.083  1.00  0.00     0.007 A 
HETATM   30  C   UNL     1      43.268 -20.130   1.948  1.00  0.00     0.003 A 
HETATM   31  C   UNL     1      43.165 -18.740   1.959  1.00  0.00     0.037 A 
ENDBRANCH  24  25
ENDBRANCH  23  24
ENDBRANCH  20  23
ENDBRANCH   1  19
TORSDOF 7
ENDMDL
MODEL 8
REMARK VINA RESULT:      -7.9      2.043      2.862
REMARK  7 active torsions:
REMARK  status: ('A' for Active; 'I' for Inactive)
REMARK    1  A    between atoms: C_4  and  O_5 
REMARK    2  A    between atoms: O_5  and  C_6 
REMARK    3  A    between atoms: C_6  and  C_7 
REMARK       I    between atoms: C_7  and  N_8 
REMARK    4  A    between atoms: N_8  and  N_9 
REMARK       I    between atoms: N_9  and  C_10 
REMARK    5  A    between atoms: C_10  and  C_11 
REMARK    6  A    between atoms: C_13  and  C_14 
REMARK    7  A    between atoms: C_21  and  C_22 
ROOT
HETATM    1  N   UNL     1      42.183 -11.538   6.960  1.00  0.00    -0.262 N 
HETATM    2  C   UNL     1      43.322 -12.302   6.767  1.00  0.00     0.291 C 
HETATM    3  O   UNL     1      44.297 -12.232   7.515  1.00  0.00    -0.264 OA
HETATM    4  H   UNL     1      41.535 -11.443   6.179  1.00  0.00     0.190 HD
ENDROOT
BRANCH   2   5
HETATM    5  C   UNL     1      43.227 -13.192   5.619  1.00  0.00     0.159 A 
HETATM    6  N   UNL     1      43.300 -14.578   5.737  1.00  0.00    -0.216 NA
HETATM    7  C   UNL     1      43.250 -15.009   4.490  1.00  0.00     0.180 A 
HETATM    8  O   UNL     1      43.100 -14.016   3.563  1.00  0.00    -0.293 OA
HETATM    9  C   UNL     1      43.081 -12.855   4.288  1.00  0.00     0.094 A 
BRANCH   7  10
HETATM   10  C   UNL     1      43.362 -16.373   3.976  1.00  0.00     0.017 A 
HETATM   11  C   UNL     1      44.009 -17.354   4.743  1.00  0.00     0.016 A 
HETATM   12  C   UNL     1      44.151 -18.660   4.262  1.00  0.00     0.001 A 
HETATM   13  C   UNL     1      43.650 -19.000   3.008  1.00  0.00     0.000 A 
HETATM   14  C   UNL     1      43.003 -18.038   2.235  1.00  0.00     0.001 A 
HETATM   15  C   UNL     1      42.859 -16.734   2.716  1.00  0.00     0.016 A 
ENDBRANCH   7  10
BRANCH   9  16
HETATM   16  C   UNL     1      42.913 -11.475   3.680  1.00  0.00     0.046 A 
HETATM   17  C   UNL     1      42.291 -11.376   2.304  1.00  0.00     0.012 A 
HETATM   18  C   UNL     1      41.502 -10.957   3.495  1.00  0.00     0.012 A 
ENDBRANCH   9  16
ENDBRANCH   2   5
BRANCH   1  19
HETATM   19  N   UNL     1      42.250 -10.481   7.888  1.00  0.00    -0.265 N 
HETATM   20  C   UNL     1      41.284  -9.485   7.787  1.00  0.00     0.260 C 
HETATM   21  O   UNL     1      40.270  -9.608   7.105  1.00  0.00    -0.269 OA
HETATM   22  H   UNL     1      43.197 -10.220   8.155  1.00  0.00     0.190 HD
BRANCH  20  23
HETATM   23  C   UNL     1      41.624  -8.245   8.617  1.00  0.00     0.280 C 
BRANCH  23  24
HETATM   24  O   UNL     1      40.832  -8.205   9.795  1.00  0.00    -0.342 OA
BRANCH  24  25
HETATM   25  C   UNL     1      41.486  -8.284  10.993  1.00  0.00     0.069 A 
HETATM   26  C   UNL     1      40.892  -8.349  12.256  1.00  0.00     0.043 A 
HETATM   27  C   UNL     1      41.686  -8.407  13.414  1.00  0.00    -0.059 A 
HETATM   28  C   UNL     1      41.062  -8.480  14.777  1.00  0.00     0.048 C 
HETATM   29  C   UNL     1      43.080  -8.420  13.291  1.00  0.00     0.007 A 
HETATM   30  C   UNL     1      43.675  -8.364  12.032  1.00  0.00     0.003 A 
HETATM   31  C   UNL     1      42.878  -8.295  10.890  1.00  0.00     0.037 A 
ENDBRANCH  24  25
ENDBRANCH  23  24
ENDBRANCH  20  23
ENDBRANCH   1  19
TORSDOF 7
ENDMDL
MODEL 9
REMARK VINA RESULT:      -7.8      2.904      5.308
REMARK  7 active torsions:
REMARK  status: ('A' for Active; 'I' for Inactive)
REMARK    1  A    between atoms: C_4  and  O_5 
REMARK    2  A    between atoms: O_5  and  C_6 
REMARK    3  A    between atoms: C_6  and  C_7 
REMARK       I    between atoms: C_7  and  N_8 
REMARK    4  A    between atoms: N_8  and  N_9 
REMARK       I    between atoms: N_9  and  C_10 
REMARK    5  A    between atoms: C_10  and  C_11 
REMARK    6  A    between atoms: C_13  and  C_14 
REMARK    7  A    between atoms: C_21  and  C_22 
ROOT
HETATM    1  N   UNL     1      41.783 -12.661   4.261  1.00  0.00    -0.262 N 
HETATM    2  C   UNL     1      42.603 -12.717   3.146  1.00  0.00     0.291 C 
HETATM    3  O   UNL     1      43.745 -12.257   3.145  1.00  0.00    -0.264 OA
HETATM    4  H   UNL     1      40.784 -12.811   4.126  1.00  0.00     0.190 HD
ENDROOT
BRANCH   2   5
HETATM    5  C   UNL     1      41.984 -13.386   2.012  1.00  0.00     0.159 A 
HETATM    6  N   UNL     1      41.045 -12.761   1.195  1.00  0.00    -0.216 NA
HETATM    7  C   UNL     1      40.678 -13.705   0.347  1.00  0.00     0.180 A 
HETATM    8  O   UNL     1      41.340 -14.890   0.513  1.00  0.00    -0.293 OA
HETATM    9  C   UNL     1      42.178 -14.682   1.575  1.00  0.00     0.094 A 
BRANCH   7  10
HETATM   10  C   UNL     1      39.660 -13.664  -0.701  1.00  0.00     0.017 A 
HETATM   11  C   UNL     1      38.749 -12.598  -0.745  1.00  0.00     0.016 A 
HETATM   12  C   UNL     1      37.749 -12.549  -1.721  1.00  0.00     0.001 A 
HETATM   13  C   UNL     1      37.648 -13.568  -2.666  1.00  0.00     0.000 A 
HETATM   14  C   UNL     1      38.546 -14.633  -2.637  1.00  0.00     0.001 A 
HETATM   15  C   UNL     1      39.545 -14.680  -1.662  1.00  0.00     0.016 A 
ENDBRANCH   7  10
BRANCH   9  16
HETATM   16  C   UNL     1      43.135 -15.724   2.120  1.00  0.00     0.046 A 
HETATM   17  C   UNL     1      42.849 -16.305   3.489  1.00  0.00     0.012 A 
HETATM   18  C   UNL     1      42.616 -17.139   2.278  1.00  0.00     0.012 A 
ENDBRANCH   9  16
ENDBRANCH   2   5
BRANCH   1  19
HETATM   19  N   UNL     1      42.182 -11.837   5.330  1.00  0.00    -0.265 N 
HETATM   20  C   UNL     1      41.675 -10.541   5.358  1.00  0.00     0.260 C 
HETATM   21  O   UNL     1      40.740 -10.178   4.650  1.00  0.00    -0.269 OA
HETATM   22  H   UNL     1      43.137 -11.996   5.646  1.00  0.00     0.190 HD
BRANCH  20  23
HETATM   23  C   UNL     1      42.403  -9.643   6.360  1.00  0.00     0.280 C 
BRANCH  23  24
HETATM   24  O   UNL     1      42.000  -9.952   7.686  1.00  0.00    -0.342 OA
BRANCH  24  25
HETATM   25  C   UNL     1      42.929  -9.797   8.677  1.00  0.00     0.069 A 
HETATM   26  C   UNL     1      42.718  -9.196   9.921  1.00  0.00     0.043 A 
HETATM   27  C   UNL     1      43.771  -9.084  10.844  1.00  0.00    -0.059 A 
HETATM   28  C   UNL     1      43.559  -8.443  12.184  1.00  0.00     0.048 C 
HETATM   29  C   UNL     1      45.031  -9.599  10.516  1.00  0.00     0.007 A 
HETATM   30  C   UNL     1      45.241 -10.208   9.280  1.00  0.00     0.003 A 
HETATM   31  C   UNL     1      44.192 -10.303   8.366  1.00  0.00     0.037 A 
ENDBRANCH  24  25
ENDBRANCH  23  24
ENDBRANCH  20  23
ENDBRANCH   1  19
TORSDOF 7
ENDMDL
MODEL 10
REMARK VINA RESULT:      -7.6      6.294     10.760
REMARK  7 active torsions:
REMARK  status: ('A' for Active; 'I' for Inactive)
REMARK    1  A    between atoms: C_4  and  O_5 
REMARK    2  A    between atoms: O_5  and  C_6 
REMARK    3  A    between atoms: C_6  and  C_7 
REMARK       I    between atoms: C_7  and  N_8 
REMARK    4  A    between atoms: N_8  and  N_9 
REMARK       I    between atoms: N_9  and  C_10 
REMARK    5  A    between atoms: C_10  and  C_11 
REMARK    6  A    between atoms: C_13  and  C_14 
REMARK    7  A    between atoms: C_21  and  C_22 
ROOT
HETATM    1  N   UNL     1      40.287 -13.075  -0.177  1.00  0.00    -0.262 N 
HETATM    2  C   UNL     1      39.755 -11.805  -0.024  1.00  0.00     0.291 C 
HETATM    3  O   UNL     1      40.006 -11.099   0.953  1.00  0.00    -0.264 OA
HETATM    4  H   UNL     1      39.845 -13.699  -0.850  1.00  0.00     0.190 HD
ENDROOT
BRANCH   2   5
HETATM    5  C   UNL     1      38.903 -11.403  -1.134  1.00  0.00     0.159 A 
HETATM    6  N   UNL     1      37.514 -11.473  -1.076  1.00  0.00    -0.216 NA
HETATM    7  C   UNL     1      37.123 -11.099  -2.280  1.00  0.00     0.180 A 
HETATM    8  O   UNL     1      38.148 -10.741  -3.111  1.00  0.00    -0.293 OA
HETATM    9  C   UNL     1      39.285 -10.931  -2.374  1.00  0.00     0.094 A 
BRANCH   7  10
HETATM   10  C   UNL     1      35.775 -11.048  -2.842  1.00  0.00     0.017 A 
HETATM   11  C   UNL     1      34.913  -9.997  -2.490  1.00  0.00     0.016 A 
HETATM   12  C   UNL     1      33.610  -9.940  -2.994  1.00  0.00     0.001 A 
HETATM   13  C   UNL     1      33.152 -10.933  -3.856  1.00  0.00     0.000 A 
HETATM   14  C   UNL     1      33.995 -11.983  -4.217  1.00  0.00     0.001 A 
HETATM   15  C   UNL     1      35.298 -12.038  -3.714  1.00  0.00     0.016 A 
ENDBRANCH   7  10
BRANCH   9  16
HETATM   16  C   UNL     1      40.685 -10.645  -2.881  1.00  0.00     0.046 A 
HETATM   17  C   UNL     1      40.866  -9.508  -3.865  1.00  0.00     0.012 A 
HETATM   18  C   UNL     1      41.331  -9.340  -2.460  1.00  0.00     0.012 A 
ENDBRANCH   9  16
ENDBRANCH   2   5
BRANCH   1  19
HETATM   19  N   UNL     1      40.928 -13.657   0.933  1.00  0.00    -0.265 N 
HETATM   20  C   UNL     1      40.480 -14.911   1.340  1.00  0.00     0.260 C 
HETATM   21  O   UNL     1      39.742 -15.610   0.651  1.00  0.00    -0.269 OA
HETATM   22  H   UNL     1      41.225 -12.990   1.642  1.00  0.00     0.190 HD
BRANCH  20  23
HETATM   23  C   UNL     1      41.011 -15.310   2.719  1.00  0.00     0.280 C 
BRANCH  23  24
HETATM   24  O   UNL     1      42.427 -15.412   2.693  1.00  0.00    -0.342 OA
BRANCH  24  25
HETATM   25  C   UNL     1      42.976 -16.613   3.046  1.00  0.00     0.069 A 
HETATM   26  C   UNL     1      42.946 -17.789   2.293  1.00  0.00     0.043 A 
HETATM   27  C   UNL     1      43.537 -18.965   2.785  1.00  0.00    -0.059 A 
HETATM   28  C   UNL     1      43.514 -20.235   1.986  1.00  0.00     0.048 C 
HETATM   29  C   UNL     1      44.175 -18.943   4.031  1.00  0.00     0.007 A 
HETATM   30  C   UNL     1      44.215 -17.769   4.780  1.00  0.00     0.003 A 
HETATM   31  C   UNL     1      43.616 -16.610   4.287  1.00  0.00     0.037 A 
ENDBRANCH  24  25
ENDBRANCH  23  24
ENDBRANCH  20  23
ENDBRANCH   1  19
TORSDOF 7
ENDMDL
