MODEL 1
REMARK VINA RESULT:      -9.4      0.000      0.000
REMARK  7 active torsions:
REMARK  status: ('A' for Active; 'I' for Inactive)
REMARK    1  A    between atoms: C_2  and  C_3 
REMARK    2  A    between atoms: C_6  and  C_7 
REMARK       I    between atoms: C_7  and  N_8 
REMARK    3  A    between atoms: C_14  and  C_15 
REMARK       I    between atoms: C_15  and  N_16 
REMARK    4  A    between atoms: N_16  and  C_17 
REMARK    5  A    between atoms: C_17  and  C_18 
REMARK       I    between atoms: N_25  and  C_26 
REMARK    6  A    between atoms: C_26  and  C_27 
REMARK    7  A    between atoms: C_30  and  O_31 
ROOT
HETATM    1  C   UNL     1      42.083  -8.618   7.265  1.00  0.00     0.253 C 
HETATM    2  N   UNL     1      41.388  -9.435   6.357  1.00  0.00    -0.348 N 
HETATM    3  C   UNL     1      40.746 -10.684   6.754  1.00  0.00     0.131 C 
HETATM    4  C   UNL     1      39.642 -11.115   5.812  1.00  0.00     0.081 C 
HETATM    5  C   UNL     1      40.021 -11.093   4.325  1.00  0.00     0.142 C 
HETATM    6  O   UNL     1      38.725 -11.034   3.656  1.00  0.00    -0.358 OA
HETATM    7  C   UNL     1      38.600 -12.138   2.764  1.00  0.00     0.206 C 
HETATM    8  C   UNL     1      39.602 -13.172   3.229  1.00  0.00     0.206 C 
HETATM    9  N   UNL     1      40.636 -12.336   3.828  1.00  0.00    -0.300 N 
HETATM   10  C   UNL     1      41.864 -12.782   4.293  1.00  0.00     0.257 C 
HETATM   11  O   UNL     1      42.649 -12.089   4.931  1.00  0.00    -0.267 OA
HETATM   12  C   UNL     1      40.731  -9.787   3.952  1.00  0.00     0.081 C 
HETATM   13  C   UNL     1      41.767  -9.291   4.953  1.00  0.00     0.131 C 
HETATM   14  O   UNL     1      42.642  -7.571   6.944  1.00  0.00    -0.267 OA
ENDROOT
BRANCH   8  15
HETATM   15  C   UNL     1      39.855 -14.077   2.021  1.00  0.00     0.243 C 
HETATM   16  N   UNL     1      40.110 -13.471   0.822  1.00  0.00    -0.354 N 
HETATM   17  H   UNL     1      40.246 -12.467   0.743  1.00  0.00     0.162 HD
HETATM   18  O   UNL     1      39.696 -15.295   2.117  1.00  0.00    -0.271 OA
BRANCH  16  19
HETATM   19  C   UNL     1      40.338 -14.257  -0.375  1.00  0.00     0.181 C 
BRANCH  19  20
HETATM   20  C   UNL     1      39.274 -14.045  -1.428  1.00  0.00     0.051 A 
HETATM   21  N   UNL     1      38.463 -12.958  -1.312  1.00  0.00    -0.264 NA
HETATM   22  C   UNL     1      37.513 -12.799  -2.260  1.00  0.00     0.117 A 
HETATM   23  C   UNL     1      37.318 -13.674  -3.316  1.00  0.00     0.019 A 
HETATM   24  C   UNL     1      38.145 -14.787  -3.411  1.00  0.00     0.003 A 
HETATM   25  C   UNL     1      39.135 -14.980  -2.452  1.00  0.00     0.029 A 
ENDBRANCH  19  20
ENDBRANCH  16  19
ENDBRANCH   8  15
BRANCH  10  26
HETATM   26  C   UNL     1      42.346 -14.138   3.972  1.00  0.00     0.032 A 
HETATM   27  C   UNL     1      41.995 -15.172   4.844  1.00  0.00     0.020 A 
HETATM   28  C   UNL     1      42.380 -16.481   4.562  1.00  0.00     0.038 A 
HETATM   29  C   UNL     1      43.093 -16.773   3.398  1.00  0.00     0.068 A 
HETATM   30  C   UNL     1      43.421 -15.739   2.515  1.00  0.00     0.038 A 
HETATM   31  C   UNL     1      43.038 -14.421   2.793  1.00  0.00     0.020 A 
BRANCH  29  32
HETATM   32  O   UNL     1      43.396 -18.096   3.240  1.00  0.00    -0.356 OA
HETATM   33  C   UNL     1      44.314 -18.660   4.167  1.00  0.00     0.210 C 
ENDBRANCH  29  32
ENDBRANCH  10  26
BRANCH   1  34
HETATM   34  C   UNL     1      42.166  -9.018   8.690  1.00  0.00     0.032 A 
HETATM   35  C   UNL     1      43.284  -9.704   9.172  1.00  0.00     0.017 A 
HETATM   36  C   UNL     1      43.354 -10.060  10.520  1.00  0.00     0.008 A 
HETATM   37  C   UNL     1      42.326  -9.701  11.405  1.00  0.00    -0.059 A 
HETATM   38  C   UNL     1      41.229  -8.977  10.917  1.00  0.00     0.008 A 
HETATM   39  C   UNL     1      41.149  -8.632   9.565  1.00  0.00     0.017 A 
BRANCH  37  40
HETATM   40  C   UNL     1      42.410 -10.076  12.865  1.00  0.00     0.034 C 
HETATM   41  C   UNL     1      42.320  -8.867  13.784  1.00  0.00     0.010 C 
ENDBRANCH  37  40
ENDBRANCH   1  34
TORSDOF 7
ENDMDL
MODEL 2
REMARK VINA RESULT:      -9.1      3.772      6.499
REMARK  7 active torsions:
REMARK  status: ('A' for Active; 'I' for Inactive)
REMARK    1  A    between atoms: C_2  and  C_3 
REMARK    2  A    between atoms: C_6  and  C_7 
REMARK       I    between atoms: C_7  and  N_8 
REMARK    3  A    between atoms: C_14  and  C_15 
REMARK       I    between atoms: C_15  and  N_16 
REMARK    4  A    between atoms: N_16  and  C_17 
REMARK    5  A    between atoms: C_17  and  C_18 
REMARK       I    between atoms: N_25  and  C_26 
REMARK    6  A    between atoms: C_26  and  C_27 
REMARK    7  A    between atoms: C_30  and  O_31 
ROOT
HETATM    1  C   UNL     1      43.617 -13.999   5.840  1.00  0.00     0.253 C 
HETATM    2  N   UNL     1      42.516 -13.369   5.235  1.00  0.00    -0.348 N 
HETATM    3  C   UNL     1      41.355 -14.108   4.750  1.00  0.00     0.131 C 
HETATM    4  C   UNL     1      40.107 -13.257   4.643  1.00  0.00     0.081 C 
HETATM    5  C   UNL     1      40.302 -11.920   3.915  1.00  0.00     0.142 C 
HETATM    6  O   UNL     1      39.174 -11.122   4.386  1.00  0.00    -0.358 OA
HETATM    7  C   UNL     1      38.406 -10.679   3.270  1.00  0.00     0.206 C 
HETATM    8  C   UNL     1      38.756 -11.603   2.124  1.00  0.00     0.206 C 
HETATM    9  N   UNL     1      40.125 -11.983   2.454  1.00  0.00    -0.300 N 
HETATM   10  C   UNL     1      40.974 -12.723   1.645  1.00  0.00     0.257 C 
HETATM   11  O   UNL     1      42.060 -13.160   2.008  1.00  0.00    -0.267 OA
HETATM   12  C   UNL     1      41.553 -11.191   4.418  1.00  0.00     0.081 C 
HETATM   13  C   UNL     1      42.783 -12.065   4.633  1.00  0.00     0.131 C 
HETATM   14  O   UNL     1      44.610 -13.394   6.241  1.00  0.00    -0.267 OA
ENDROOT
BRANCH   8  15
HETATM   15  C   UNL     1      38.384 -10.843   0.849  1.00  0.00     0.243 C 
HETATM   16  N   UNL     1      38.818  -9.551   0.737  1.00  0.00    -0.354 N 
HETATM   17  H   UNL     1      39.460  -9.137   1.407  1.00  0.00     0.162 HD
HETATM   18  O   UNL     1      37.610 -11.346   0.033  1.00  0.00    -0.271 OA
BRANCH  16  19
HETATM   19  C   UNL     1      38.489  -8.755  -0.429  1.00  0.00     0.181 C 
BRANCH  19  20
HETATM   20  C   UNL     1      39.624  -8.673  -1.424  1.00  0.00     0.051 A 
HETATM   21  N   UNL     1      39.349  -8.921  -2.733  1.00  0.00    -0.264 NA
HETATM   22  C   UNL     1      40.384  -8.854  -3.600  1.00  0.00     0.117 A 
HETATM   23  C   UNL     1      41.687  -8.562  -3.229  1.00  0.00     0.019 A 
HETATM   24  C   UNL     1      41.953  -8.327  -1.886  1.00  0.00     0.003 A 
HETATM   25  C   UNL     1      40.910  -8.387  -0.967  1.00  0.00     0.029 A 
ENDBRANCH  19  20
ENDBRANCH  16  19
ENDBRANCH   8  15
BRANCH  10  26
HETATM   26  C   UNL     1      40.641 -12.973   0.230  1.00  0.00     0.032 A 
HETATM   27  C   UNL     1      39.869 -14.100  -0.062  1.00  0.00     0.020 A 
HETATM   28  C   UNL     1      39.482 -14.356  -1.376  1.00  0.00     0.038 A 
HETATM   29  C   UNL     1      39.838 -13.478  -2.402  1.00  0.00     0.068 A 
HETATM   30  C   UNL     1      40.591 -12.339  -2.101  1.00  0.00     0.038 A 
HETATM   31  C   UNL     1      40.983 -12.076  -0.783  1.00  0.00     0.020 A 
BRANCH  29  32
HETATM   32  O   UNL     1      39.385 -13.843  -3.638  1.00  0.00    -0.356 OA
HETATM   33  C   UNL     1      38.223 -14.662  -3.682  1.00  0.00     0.210 C 
ENDBRANCH  29  32
ENDBRANCH  10  26
BRANCH   1  34
HETATM   34  C   UNL     1      43.609 -15.472   6.014  1.00  0.00     0.032 A 
HETATM   35  C   UNL     1      43.326 -16.040   7.259  1.00  0.00     0.017 A 
HETATM   36  C   UNL     1      43.308 -17.428   7.402  1.00  0.00     0.008 A 
HETATM   37  C   UNL     1      43.533 -18.261   6.296  1.00  0.00    -0.059 A 
HETATM   38  C   UNL     1      43.775 -17.678   5.043  1.00  0.00     0.008 A 
HETATM   39  C   UNL     1      43.809 -16.289   4.900  1.00  0.00     0.017 A 
BRANCH  37  40
HETATM   40  C   UNL     1      43.500 -19.762   6.450  1.00  0.00     0.034 C 
HETATM   41  C   UNL     1      44.024 -20.486   5.219  1.00  0.00     0.010 C 
ENDBRANCH  37  40
ENDBRANCH   1  34
TORSDOF 7
ENDMDL
MODEL 3
REMARK VINA RESULT:      -8.6      3.729      6.530
REMARK  7 active torsions:
REMARK  status: ('A' for Active; 'I' for Inactive)
REMARK    1  A    between atoms: C_2  and  C_3 
REMARK    2  A    between atoms: C_6  and  C_7 
REMARK       I    between atoms: C_7  and  N_8 
REMARK    3  A    between atoms: C_14  and  C_15 
REMARK       I    between atoms: C_15  and  N_16 
REMARK    4  A    between atoms: N_16  and  C_17 
REMARK    5  A    between atoms: C_17  and  C_18 
REMARK       I    between atoms: N_25  and  C_26 
REMARK    6  A    between atoms: C_26  and  C_27 
REMARK    7  A    between atoms: C_30  and  O_31 
ROOT
HETATM    1  C   UNL     1      43.660 -14.061   5.880  1.00  0.00     0.253 C 
HETATM    2  N   UNL     1      42.566 -13.411   5.284  1.00  0.00    -0.348 N 
HETATM    3  C   UNL     1      41.393 -14.130   4.798  1.00  0.00     0.131 C 
HETATM    4  C   UNL     1      40.155 -13.262   4.703  1.00  0.00     0.081 C 
HETATM    5  C   UNL     1      40.365 -11.921   3.987  1.00  0.00     0.142 C 
HETATM    6  O   UNL     1      39.249 -11.112   4.469  1.00  0.00    -0.358 OA
HETATM    7  C   UNL     1      38.484 -10.650   3.360  1.00  0.00     0.206 C 
HETATM    8  C   UNL     1      38.816 -11.568   2.205  1.00  0.00     0.206 C 
HETATM    9  N   UNL     1      40.182 -11.968   2.525  1.00  0.00    -0.300 N 
HETATM   10  C   UNL     1      41.017 -12.712   1.707  1.00  0.00     0.257 C 
HETATM   11  O   UNL     1      42.100 -13.166   2.061  1.00  0.00    -0.267 OA
HETATM   12  C   UNL     1      41.627 -11.213   4.490  1.00  0.00     0.081 C 
HETATM   13  C   UNL     1      42.847 -12.105   4.693  1.00  0.00     0.131 C 
HETATM   14  O   UNL     1      44.662 -13.473   6.281  1.00  0.00    -0.267 OA
ENDROOT
BRANCH   8  15
HETATM   15  C   UNL     1      38.450 -10.791   0.938  1.00  0.00     0.243 C 
HETATM   16  N   UNL     1      37.516 -11.347   0.107  1.00  0.00    -0.354 N 
HETATM   17  H   UNL     1      36.992 -12.178   0.364  1.00  0.00     0.162 HD
HETATM   18  O   UNL     1      39.081  -9.779   0.628  1.00  0.00    -0.271 OA
BRANCH  16  19
HETATM   19  C   UNL     1      37.130 -10.686  -1.124  1.00  0.00     0.181 C 
BRANCH  19  20
HETATM   20  C   UNL     1      35.821  -9.940  -1.006  1.00  0.00     0.051 A 
HETATM   21  N   UNL     1      35.153  -9.628  -2.149  1.00  0.00    -0.264 NA
HETATM   22  C   UNL     1      33.992  -8.949  -2.015  1.00  0.00     0.117 A 
HETATM   23  C   UNL     1      33.463  -8.554  -0.798  1.00  0.00     0.019 A 
HETATM   24  C   UNL     1      34.165  -8.866   0.359  1.00  0.00     0.003 A 
HETATM   25  C   UNL     1      35.364  -9.566   0.257  1.00  0.00     0.029 A 
ENDBRANCH  19  20
ENDBRANCH  16  19
ENDBRANCH   8  15
BRANCH  10  26
HETATM   26  C   UNL     1      40.676 -12.945   0.291  1.00  0.00     0.032 A 
HETATM   27  C   UNL     1      39.877 -14.052  -0.007  1.00  0.00     0.020 A 
HETATM   28  C   UNL     1      39.481 -14.290  -1.322  1.00  0.00     0.038 A 
HETATM   29  C   UNL     1      39.856 -13.414  -2.343  1.00  0.00     0.068 A 
HETATM   30  C   UNL     1      40.636 -12.294  -2.036  1.00  0.00     0.038 A 
HETATM   31  C   UNL     1      41.037 -12.050  -0.717  1.00  0.00     0.020 A 
BRANCH  29  32
HETATM   32  O   UNL     1      39.391 -13.760  -3.580  1.00  0.00    -0.356 OA
HETATM   33  C   UNL     1      38.251 -14.609  -3.625  1.00  0.00     0.210 C 
ENDBRANCH  29  32
ENDBRANCH  10  26
BRANCH   1  34
HETATM   34  C   UNL     1      43.633 -15.534   6.040  1.00  0.00     0.032 A 
HETATM   35  C   UNL     1      43.314 -16.111   7.273  1.00  0.00     0.017 A 
HETATM   36  C   UNL     1      43.279 -17.500   7.404  1.00  0.00     0.008 A 
HETATM   37  C   UNL     1      43.523 -18.325   6.295  1.00  0.00    -0.059 A 
HETATM   38  C   UNL     1      43.801 -17.735   5.054  1.00  0.00     0.008 A 
HETATM   39  C   UNL     1      43.852 -16.344   4.924  1.00  0.00     0.017 A 
BRANCH  37  40
HETATM   40  C   UNL     1      43.471 -19.827   6.436  1.00  0.00     0.034 C 
HETATM   41  C   UNL     1      44.035 -20.546   5.219  1.00  0.00     0.010 C 
ENDBRANCH  37  40
ENDBRANCH   1  34
TORSDOF 7
ENDMDL
MODEL 4
REMARK VINA RESULT:      -8.5      2.734      9.507
REMARK  7 active torsions:
REMARK  status: ('A' for Active; 'I' for Inactive)
REMARK    1  A    between atoms: C_2  and  C_3 
REMARK    2  A    between atoms: C_6  and  C_7 
REMARK       I    between atoms: C_7  and  N_8 
REMARK    3  A    between atoms: C_14  and  C_15 
REMARK       I    between atoms: C_15  and  N_16 
REMARK    4  A    between atoms: N_16  and  C_17 
REMARK    5  A    between atoms: C_17  and  C_18 
REMARK       I    between atoms: N_25  and  C_26 
REMARK    6  A    between atoms: C_26  and  C_27 
REMARK    7  A    between atoms: C_30  and  O_31 
ROOT
HETATM    1  C   UNL     1      40.390 -15.273   2.704  1.00  0.00     0.253 C 
HETATM    2  N   UNL     1      40.535 -13.877   2.788  1.00  0.00    -0.348 N 
HETATM    3  C   UNL     1      41.744 -13.241   3.299  1.00  0.00     0.131 C 
HETATM    4  C   UNL     1      41.918 -11.814   2.820  1.00  0.00     0.081 C 
HETATM    5  C   UNL     1      40.674 -10.929   2.975  1.00  0.00     0.142 C 
HETATM    6  O   UNL     1      40.917  -9.851   2.020  1.00  0.00    -0.358 OA
HETATM    7  C   UNL     1      40.884  -8.599   2.700  1.00  0.00     0.206 C 
HETATM    8  C   UNL     1      41.116  -8.906   4.163  1.00  0.00     0.206 C 
HETATM    9  N   UNL     1      40.560 -10.250   4.277  1.00  0.00    -0.300 N 
HETATM   10  C   UNL     1      40.394 -10.956   5.458  1.00  0.00     0.257 C 
HETATM   11  O   UNL     1      40.071 -12.138   5.512  1.00  0.00    -0.267 OA
HETATM   12  C   UNL     1      39.417 -11.644   2.469  1.00  0.00     0.081 C 
HETATM   13  C   UNL     1      39.292 -13.113   2.857  1.00  0.00     0.131 C 
HETATM   14  O   UNL     1      39.372 -15.826   2.291  1.00  0.00    -0.267 OA
ENDROOT
BRANCH   8  15
HETATM   15  C   UNL     1      40.562  -7.706   4.933  1.00  0.00     0.243 C 
HETATM   16  N   UNL     1      41.445  -6.975   5.680  1.00  0.00    -0.354 N 
HETATM   17  H   UNL     1      42.447  -7.137   5.642  1.00  0.00     0.162 HD
HETATM   18  O   UNL     1      39.347  -7.505   4.975  1.00  0.00    -0.271 OA
BRANCH  16  19
HETATM   19  C   UNL     1      40.996  -5.837   6.457  1.00  0.00     0.181 C 
BRANCH  19  20
HETATM   20  C   UNL     1      41.590  -5.804   7.847  1.00  0.00     0.051 A 
HETATM   21  N   UNL     1      42.804  -6.386   8.041  1.00  0.00    -0.264 NA
HETATM   22  C   UNL     1      43.306  -6.354   9.296  1.00  0.00     0.117 A 
HETATM   23  C   UNL     1      42.655  -5.779  10.375  1.00  0.00     0.019 A 
HETATM   24  C   UNL     1      41.410  -5.202  10.163  1.00  0.00     0.003 A 
HETATM   25  C   UNL     1      40.864  -5.217   8.883  1.00  0.00     0.029 A 
ENDBRANCH  19  20
ENDBRANCH  16  19
ENDBRANCH   8  15
BRANCH  10  26
HETATM   26  C   UNL     1      40.528 -10.286   6.765  1.00  0.00     0.032 A 
HETATM   27  C   UNL     1      39.353  -9.943   7.439  1.00  0.00     0.020 A 
HETATM   28  C   UNL     1      39.421  -9.355   8.700  1.00  0.00     0.038 A 
HETATM   29  C   UNL     1      40.656  -9.129   9.310  1.00  0.00     0.068 A 
HETATM   30  C   UNL     1      41.829  -9.496   8.642  1.00  0.00     0.038 A 
HETATM   31  C   UNL     1      41.768 -10.086   7.374  1.00  0.00     0.020 A 
BRANCH  29  32
HETATM   32  O   UNL     1      40.578  -8.557  10.549  1.00  0.00    -0.356 OA
HETATM   33  C   UNL     1      41.411  -9.103  11.563  1.00  0.00     0.210 C 
ENDBRANCH  29  32
ENDBRANCH  10  26
BRANCH   1  34
HETATM   34  C   UNL     1      41.505 -16.148   3.136  1.00  0.00     0.032 A 
HETATM   35  C   UNL     1      41.741 -16.383   4.494  1.00  0.00     0.017 A 
HETATM   36  C   UNL     1      42.787 -17.222   4.884  1.00  0.00     0.008 A 
HETATM   37  C   UNL     1      43.580 -17.865   3.921  1.00  0.00    -0.059 A 
HETATM   38  C   UNL     1      43.306 -17.654   2.562  1.00  0.00     0.008 A 
HETATM   39  C   UNL     1      42.271 -16.802   2.168  1.00  0.00     0.017 A 
BRANCH  37  40
HETATM   40  C   UNL     1      44.701 -18.782   4.345  1.00  0.00     0.034 C 
HETATM   41  C   UNL     1      44.197 -20.133   4.830  1.00  0.00     0.010 C 
ENDBRANCH  37  40
ENDBRANCH   1  34
TORSDOF 7
ENDMDL
MODEL 5
REMARK VINA RESULT:      -8.2      2.338      3.322
REMARK  7 active torsions:
REMARK  status: ('A' for Active; 'I' for Inactive)
REMARK    1  A    between atoms: C_2  and  C_3 
REMARK    2  A    between atoms: C_6  and  C_7 
REMARK       I    between atoms: C_7  and  N_8 
REMARK    3  A    between atoms: C_14  and  C_15 
REMARK       I    between atoms: C_15  and  N_16 
REMARK    4  A    between atoms: N_16  and  C_17 
REMARK    5  A    between atoms: C_17  and  C_18 
REMARK       I    between atoms: N_25  and  C_26 
REMARK    6  A    between atoms: C_26  and  C_27 
REMARK    7  A    between atoms: C_30  and  O_31 
ROOT
HETATM    1  C   UNL     1      42.659  -7.511   8.849  1.00  0.00     0.253 C 
HETATM    2  N   UNL     1      41.861  -8.159   7.891  1.00  0.00    -0.348 N 
HETATM    3  C   UNL     1      40.828  -9.125   8.249  1.00  0.00     0.131 C 
HETATM    4  C   UNL     1      39.764  -9.286   7.183  1.00  0.00     0.081 C 
HETATM    5  C   UNL     1      40.305  -9.499   5.763  1.00  0.00     0.142 C 
HETATM    6  O   UNL     1      39.176  -9.115   4.920  1.00  0.00    -0.358 OA
HETATM    7  C   UNL     1      38.828 -10.202   4.068  1.00  0.00     0.206 C 
HETATM    8  C   UNL     1      39.406 -11.444   4.709  1.00  0.00     0.206 C 
HETATM    9  N   UNL     1      40.568 -10.905   5.409  1.00  0.00    -0.300 N 
HETATM   10  C   UNL     1      41.538 -11.654   6.057  1.00  0.00     0.257 C 
HETATM   11  O   UNL     1      42.415 -11.174   6.766  1.00  0.00    -0.267 OA
HETATM   12  C   UNL     1      41.416  -8.497   5.435  1.00  0.00     0.081 C 
HETATM   13  C   UNL     1      42.429  -8.248   6.548  1.00  0.00     0.131 C 
HETATM   14  O   UNL     1      43.544  -6.706   8.564  1.00  0.00    -0.267 OA
ENDROOT
BRANCH   8  15
HETATM   15  C   UNL     1      39.514 -12.479   3.588  1.00  0.00     0.243 C 
HETATM   16  N   UNL     1      40.206 -12.121   2.464  1.00  0.00    -0.354 N 
HETATM   17  H   UNL     1      40.733 -11.255   2.409  1.00  0.00     0.162 HD
HETATM   18  O   UNL     1      38.880 -13.534   3.657  1.00  0.00    -0.271 OA
BRANCH  16  19
HETATM   19  C   UNL     1      40.334 -13.036   1.347  1.00  0.00     0.181 C 
BRANCH  19  20
HETATM   20  C   UNL     1      41.377 -14.106   1.580  1.00  0.00     0.051 A 
HETATM   21  N   UNL     1      42.684 -13.729   1.627  1.00  0.00    -0.264 NA
HETATM   22  C   UNL     1      43.596 -14.707   1.824  1.00  0.00     0.117 A 
HETATM   23  C   UNL     1      43.276 -16.047   1.969  1.00  0.00     0.019 A 
HETATM   24  C   UNL     1      41.938 -16.416   1.904  1.00  0.00     0.003 A 
HETATM   25  C   UNL     1      40.973 -15.434   1.703  1.00  0.00     0.029 A 
ENDBRANCH  19  20
ENDBRANCH  16  19
ENDBRANCH   8  15
BRANCH  10  26
HETATM   26  C   UNL     1      41.620 -13.114   5.864  1.00  0.00     0.032 A 
HETATM   27  C   UNL     1      42.787 -13.625   5.292  1.00  0.00     0.020 A 
HETATM   28  C   UNL     1      42.939 -15.001   5.134  1.00  0.00     0.038 A 
HETATM   29  C   UNL     1      41.944 -15.877   5.570  1.00  0.00     0.068 A 
HETATM   30  C   UNL     1      40.787 -15.363   6.165  1.00  0.00     0.038 A 
HETATM   31  C   UNL     1      40.627 -13.981   6.325  1.00  0.00     0.020 A 
BRANCH  29  32
HETATM   32  O   UNL     1      42.226 -17.199   5.365  1.00  0.00    -0.356 OA
HETATM   33  C   UNL     1      43.600 -17.557   5.282  1.00  0.00     0.210 C 
ENDBRANCH  29  32
ENDBRANCH  10  26
BRANCH   1  34
HETATM   34  C   UNL     1      42.447  -7.800  10.288  1.00  0.00     0.032 A 
HETATM   35  C   UNL     1      41.290  -7.361  10.939  1.00  0.00     0.017 A 
HETATM   36  C   UNL     1      41.099  -7.654  12.291  1.00  0.00     0.008 A 
HETATM   37  C   UNL     1      42.042  -8.421  12.993  1.00  0.00    -0.059 A 
HETATM   38  C   UNL     1      43.178  -8.890  12.317  1.00  0.00     0.008 A 
HETATM   39  C   UNL     1      43.380  -8.585  10.968  1.00  0.00     0.017 A 
BRANCH  37  40
HETATM   40  C   UNL     1      41.827  -8.747  14.451  1.00  0.00     0.034 C 
HETATM   41  C   UNL     1      42.179  -7.583  15.366  1.00  0.00     0.010 C 
ENDBRANCH  37  40
ENDBRANCH   1  34
TORSDOF 7
ENDMDL
MODEL 6
REMARK VINA RESULT:      -8.2      3.849      8.765
REMARK  7 active torsions:
REMARK  status: ('A' for Active; 'I' for Inactive)
REMARK    1  A    between atoms: C_2  and  C_3 
REMARK    2  A    between atoms: C_6  and  C_7 
REMARK       I    between atoms: C_7  and  N_8 
REMARK    3  A    between atoms: C_14  and  C_15 
REMARK       I    between atoms: C_15  and  N_16 
REMARK    4  A    between atoms: N_16  and  C_17 
REMARK    5  A    between atoms: C_17  and  C_18 
REMARK       I    between atoms: N_25  and  C_26 
REMARK    6  A    between atoms: C_26  and  C_27 
REMARK    7  A    between atoms: C_30  and  O_31 
ROOT
HETATM    1  C   UNL     1      40.076  -9.894  -2.811  1.00  0.00     0.253 C 
HETATM    2  N   UNL     1      40.067 -10.900  -1.830  1.00  0.00    -0.348 N 
HETATM    3  C   UNL     1      39.283 -10.796  -0.603  1.00  0.00     0.131 C 
HETATM    4  C   UNL     1      38.982 -12.138   0.031  1.00  0.00     0.081 C 
HETATM    5  C   UNL     1      40.197 -13.063   0.182  1.00  0.00     0.142 C 
HETATM    6  O   UNL     1      39.590 -14.385   0.309  1.00  0.00    -0.358 OA
HETATM    7  C   UNL     1      40.011 -14.986   1.530  1.00  0.00     0.206 C 
HETATM    8  C   UNL     1      40.487 -13.856   2.416  1.00  0.00     0.206 C 
HETATM    9  N   UNL     1      40.955 -12.884   1.433  1.00  0.00    -0.300 N 
HETATM   10  C   UNL     1      41.623 -11.705   1.722  1.00  0.00     0.257 C 
HETATM   11  O   UNL     1      41.867 -10.834   0.894  1.00  0.00    -0.267 OA
HETATM   12  C   UNL     1      41.020 -13.116  -1.109  1.00  0.00     0.081 C 
HETATM   13  C   UNL     1      41.233 -11.779  -1.810  1.00  0.00     0.131 C 
HETATM   14  O   UNL     1      40.742  -9.959  -3.843  1.00  0.00    -0.267 OA
ENDROOT
BRANCH   8  15
HETATM   15  C   UNL     1      41.406 -14.501   3.455  1.00  0.00     0.243 C 
HETATM   16  N   UNL     1      42.406 -15.312   2.994  1.00  0.00    -0.354 N 
HETATM   17  H   UNL     1      42.618 -15.399   2.005  1.00  0.00     0.162 HD
HETATM   18  O   UNL     1      41.153 -14.392   4.656  1.00  0.00    -0.271 OA
BRANCH  16  19
HETATM   19  C   UNL     1      43.305 -15.980   3.915  1.00  0.00     0.181 C 
BRANCH  19  20
HETATM   20  C   UNL     1      43.450 -17.457   3.628  1.00  0.00     0.051 A 
HETATM   21  N   UNL     1      44.053 -18.237   4.565  1.00  0.00    -0.264 NA
HETATM   22  C   UNL     1      44.180 -19.552   4.277  1.00  0.00     0.117 A 
HETATM   23  C   UNL     1      43.745 -20.132   3.096  1.00  0.00     0.019 A 
HETATM   24  C   UNL     1      43.145 -19.318   2.144  1.00  0.00     0.003 A 
HETATM   25  C   UNL     1      42.997 -17.960   2.409  1.00  0.00     0.029 A 
ENDBRANCH  19  20
ENDBRANCH  16  19
ENDBRANCH   8  15
BRANCH  10  26
HETATM   26  C   UNL     1      42.165 -11.453   3.070  1.00  0.00     0.032 A 
HETATM   27  C   UNL     1      43.517 -11.729   3.285  1.00  0.00     0.020 A 
HETATM   28  C   UNL     1      44.093 -11.461   4.526  1.00  0.00     0.038 A 
HETATM   29  C   UNL     1      43.334 -10.891   5.550  1.00  0.00     0.068 A 
HETATM   30  C   UNL     1      41.986 -10.594   5.322  1.00  0.00     0.038 A 
HETATM   31  C   UNL     1      41.401 -10.862   4.079  1.00  0.00     0.020 A 
BRANCH  29  32
HETATM   32  O   UNL     1      44.025 -10.671   6.708  1.00  0.00    -0.356 OA
HETATM   33  C   UNL     1      45.061 -11.592   7.023  1.00  0.00     0.210 C 
ENDBRANCH  29  32
ENDBRANCH  10  26
BRANCH   1  34
HETATM   34  C   UNL     1      39.254  -8.676  -2.614  1.00  0.00     0.032 A 
HETATM   35  C   UNL     1      37.930  -8.632  -3.061  1.00  0.00     0.017 A 
HETATM   36  C   UNL     1      37.164  -7.484  -2.855  1.00  0.00     0.008 A 
HETATM   37  C   UNL     1      37.700  -6.385  -2.166  1.00  0.00    -0.059 A 
HETATM   38  C   UNL     1      39.016  -6.458  -1.686  1.00  0.00     0.008 A 
HETATM   39  C   UNL     1      39.790  -7.600  -1.905  1.00  0.00     0.017 A 
BRANCH  37  40
HETATM   40  C   UNL     1      36.865  -5.149  -1.933  1.00  0.00     0.034 C 
HETATM   41  C   UNL     1      37.605  -3.870  -2.297  1.00  0.00     0.010 C 
ENDBRANCH  37  40
ENDBRANCH   1  34
TORSDOF 7
ENDMDL
MODEL 7
REMARK VINA RESULT:      -8.1      2.802      9.271
REMARK  7 active torsions:
REMARK  status: ('A' for Active; 'I' for Inactive)
REMARK    1  A    between atoms: C_2  and  C_3 
REMARK    2  A    between atoms: C_6  and  C_7 
REMARK       I    between atoms: C_7  and  N_8 
REMARK    3  A    between atoms: C_14  and  C_15 
REMARK       I    between atoms: C_15  and  N_16 
REMARK    4  A    between atoms: N_16  and  C_17 
REMARK    5  A    between atoms: C_17  and  C_18 
REMARK       I    between atoms: N_25  and  C_26 
REMARK    6  A    between atoms: C_26  and  C_27 
REMARK    7  A    between atoms: C_30  and  O_31 
ROOT
HETATM    1  C   UNL     1      40.403 -15.277   2.748  1.00  0.00     0.253 C 
HETATM    2  N   UNL     1      40.554 -13.881   2.805  1.00  0.00    -0.348 N 
HETATM    3  C   UNL     1      41.781 -13.240   3.267  1.00  0.00     0.131 C 
HETATM    4  C   UNL     1      41.944 -11.822   2.760  1.00  0.00     0.081 C 
HETATM    5  C   UNL     1      40.707 -10.931   2.938  1.00  0.00     0.142 C 
HETATM    6  O   UNL     1      40.924  -9.869   1.959  1.00  0.00    -0.358 OA
HETATM    7  C   UNL     1      40.916  -8.606   2.619  1.00  0.00     0.206 C 
HETATM    8  C   UNL     1      41.192  -8.890   4.079  1.00  0.00     0.206 C 
HETATM    9  N   UNL     1      40.635 -10.230   4.232  1.00  0.00    -0.300 N 
HETATM   10  C   UNL     1      40.504 -10.916   5.430  1.00  0.00     0.257 C 
HETATM   11  O   UNL     1      40.179 -12.095   5.513  1.00  0.00    -0.267 OA
HETATM   12  C   UNL     1      39.433 -11.649   2.483  1.00  0.00     0.081 C 
HETATM   13  C   UNL     1      39.316 -13.111   2.899  1.00  0.00     0.131 C 
HETATM   14  O   UNL     1      39.372 -15.833   2.375  1.00  0.00    -0.267 OA
ENDROOT
BRANCH   8  15
HETATM   15  C   UNL     1      40.665  -7.675   4.846  1.00  0.00     0.243 C 
HETATM   16  N   UNL     1      41.550  -7.001   5.642  1.00  0.00    -0.354 N 
HETATM   17  H   UNL     1      42.543  -7.212   5.643  1.00  0.00     0.162 HD
HETATM   18  O   UNL     1      39.461  -7.414   4.840  1.00  0.00    -0.271 OA
BRANCH  16  19
HETATM   19  C   UNL     1      41.125  -5.853   6.419  1.00  0.00     0.181 C 
BRANCH  19  20
HETATM   20  C   UNL     1      41.638  -4.545   5.863  1.00  0.00     0.051 A 
HETATM   21  N   UNL     1      42.511  -4.588   4.820  1.00  0.00    -0.264 NA
HETATM   22  C   UNL     1      42.964  -3.405   4.350  1.00  0.00     0.117 A 
HETATM   23  C   UNL     1      42.599  -2.174   4.872  1.00  0.00     0.019 A 
HETATM   24  C   UNL     1      41.719  -2.148   5.946  1.00  0.00     0.003 A 
HETATM   25  C   UNL     1      41.233  -3.349   6.454  1.00  0.00     0.029 A 
ENDBRANCH  19  20
ENDBRANCH  16  19
ENDBRANCH   8  15
BRANCH  10  26
HETATM   26  C   UNL     1      40.679 -10.224   6.720  1.00  0.00     0.032 A 
HETATM   27  C   UNL     1      39.527  -9.884   7.433  1.00  0.00     0.020 A 
HETATM   28  C   UNL     1      39.636  -9.276   8.682  1.00  0.00     0.038 A 
HETATM   29  C   UNL     1      40.891  -9.029   9.241  1.00  0.00     0.068 A 
HETATM   30  C   UNL     1      42.042  -9.394   8.535  1.00  0.00     0.038 A 
HETATM   31  C   UNL     1      41.940 -10.004   7.279  1.00  0.00     0.020 A 
BRANCH  29  32
HETATM   32  O   UNL     1      40.853  -8.439  10.474  1.00  0.00    -0.356 OA
HETATM   33  C   UNL     1      40.833  -9.306  11.601  1.00  0.00     0.210 C 
ENDBRANCH  29  32
ENDBRANCH  10  26
BRANCH   1  34
HETATM   34  C   UNL     1      41.529 -16.149   3.160  1.00  0.00     0.032 A 
HETATM   35  C   UNL     1      41.786 -16.388   4.513  1.00  0.00     0.017 A 
HETATM   36  C   UNL     1      42.841 -17.224   4.884  1.00  0.00     0.008 A 
HETATM   37  C   UNL     1      43.623 -17.859   3.907  1.00  0.00    -0.059 A 
HETATM   38  C   UNL     1      43.328 -17.644   2.553  1.00  0.00     0.008 A 
HETATM   39  C   UNL     1      42.283 -16.795   2.179  1.00  0.00     0.017 A 
BRANCH  37  40
HETATM   40  C   UNL     1      44.755 -18.772   4.311  1.00  0.00     0.034 C 
HETATM   41  C   UNL     1      44.266 -20.025   5.024  1.00  0.00     0.010 C 
ENDBRANCH  37  40
ENDBRANCH   1  34
TORSDOF 7
ENDMDL
MODEL 8
REMARK VINA RESULT:      -8.1      1.374      1.884
REMARK  7 active torsions:
REMARK  status: ('A' for Active; 'I' for Inactive)
REMARK    1  A    between atoms: C_2  and  C_3 
REMARK    2  A    between atoms: C_6  and  C_7 
REMARK       I    between atoms: C_7  and  N_8 
REMARK    3  A    between atoms: C_14  and  C_15 
REMARK       I    between atoms: C_15  and  N_16 
REMARK    4  A    between atoms: N_16  and  C_17 
REMARK    5  A    between atoms: C_17  and  C_18 
REMARK       I    between atoms: N_25  and  C_26 
REMARK    6  A    between atoms: C_26  and  C_27 
REMARK    7  A    between atoms: C_30  and  O_31 
ROOT
HETATM    1  C   UNL     1      42.448  -7.926   8.192  1.00  0.00     0.253 C 
HETATM    2  N   UNL     1      41.684  -8.615   7.235  1.00  0.00    -0.348 N 
HETATM    3  C   UNL     1      40.802  -9.725   7.582  1.00  0.00     0.131 C 
HETATM    4  C   UNL     1      39.707  -9.961   6.563  1.00  0.00     0.081 C 
HETATM    5  C   UNL     1      40.188 -10.022   5.107  1.00  0.00     0.142 C 
HETATM    6  O   UNL     1      38.973  -9.739   4.348  1.00  0.00    -0.358 OA
HETATM    7  C   UNL     1      38.716 -10.813   3.447  1.00  0.00     0.206 C 
HETATM    8  C   UNL     1      39.481 -12.004   3.979  1.00  0.00     0.206 C 
HETATM    9  N   UNL     1      40.604 -11.360   4.652  1.00  0.00    -0.300 N 
HETATM   10  C   UNL     1      41.696 -12.013   5.202  1.00  0.00     0.257 C 
HETATM   11  O   UNL     1      42.546 -11.466   5.896  1.00  0.00    -0.267 OA
HETATM   12  C   UNL     1      41.144  -8.869   4.789  1.00  0.00     0.081 C 
HETATM   13  C   UNL     1      42.180  -8.555   5.862  1.00  0.00     0.131 C 
HETATM   14  O   UNL     1      43.207  -6.998   7.914  1.00  0.00    -0.267 OA
ENDROOT
BRANCH   8  15
HETATM   15  C   UNL     1      39.653 -12.952   2.790  1.00  0.00     0.243 C 
HETATM   16  N   UNL     1      40.313 -12.473   1.692  1.00  0.00    -0.354 N 
HETATM   17  H   UNL     1      40.778 -11.570   1.694  1.00  0.00     0.162 HD
HETATM   18  O   UNL     1      39.094 -14.050   2.789  1.00  0.00    -0.271 OA
BRANCH  16  19
HETATM   19  C   UNL     1      40.497 -13.300   0.516  1.00  0.00     0.181 C 
BRANCH  19  20
HETATM   20  C   UNL     1      39.966 -12.655  -0.744  1.00  0.00     0.051 A 
HETATM   21  N   UNL     1      38.618 -12.579  -0.909  1.00  0.00    -0.264 NA
HETATM   22  C   UNL     1      38.171 -12.009  -2.050  1.00  0.00     0.117 A 
HETATM   23  C   UNL     1      38.999 -11.516  -3.046  1.00  0.00     0.019 A 
HETATM   24  C   UNL     1      40.373 -11.615  -2.869  1.00  0.00     0.003 A 
HETATM   25  C   UNL     1      40.867 -12.196  -1.705  1.00  0.00     0.029 A 
ENDBRANCH  19  20
ENDBRANCH  16  19
ENDBRANCH   8  15
BRANCH  10  26
HETATM   26  C   UNL     1      41.950 -13.437   4.913  1.00  0.00     0.032 A 
HETATM   27  C   UNL     1      42.829 -13.739   3.870  1.00  0.00     0.020 A 
HETATM   28  C   UNL     1      43.145 -15.066   3.588  1.00  0.00     0.038 A 
HETATM   29  C   UNL     1      42.609 -16.100   4.359  1.00  0.00     0.068 A 
HETATM   30  C   UNL     1      41.748 -15.793   5.418  1.00  0.00     0.038 A 
HETATM   31  C   UNL     1      41.426 -14.461   5.706  1.00  0.00     0.020 A 
BRANCH  29  32
HETATM   32  O   UNL     1      43.010 -17.350   3.981  1.00  0.00    -0.356 OA
HETATM   33  C   UNL     1      43.195 -17.573   2.589  1.00  0.00     0.210 C 
ENDBRANCH  29  32
ENDBRANCH  10  26
BRANCH   1  34
HETATM   34  C   UNL     1      42.357  -8.320   9.618  1.00  0.00     0.032 A 
HETATM   35  C   UNL     1      41.375  -7.770  10.447  1.00  0.00     0.017 A 
HETATM   36  C   UNL     1      41.293  -8.163  11.784  1.00  0.00     0.008 A 
HETATM   37  C   UNL     1      42.166  -9.136  12.295  1.00  0.00    -0.059 A 
HETATM   38  C   UNL     1      43.120  -9.710  11.441  1.00  0.00     0.008 A 
HETATM   39  C   UNL     1      43.214  -9.307  10.106  1.00  0.00     0.017 A 
BRANCH  37  40
HETATM   40  C   UNL     1      42.068  -9.568  13.737  1.00  0.00     0.034 C 
HETATM   41  C   UNL     1      41.704  -8.419  14.666  1.00  0.00     0.010 C 
ENDBRANCH  37  40
ENDBRANCH   1  34
TORSDOF 7
ENDMDL
MODEL 9
REMARK VINA RESULT:      -8.0      3.038      8.852
REMARK  7 active torsions:
REMARK  status: ('A' for Active; 'I' for Inactive)
REMARK    1  A    between atoms: C_2  and  C_3 
REMARK    2  A    between atoms: C_6  and  C_7 
REMARK       I    between atoms: C_7  and  N_8 
REMARK    3  A    between atoms: C_14  and  C_15 
REMARK       I    between atoms: C_15  and  N_16 
REMARK    4  A    between atoms: N_16  and  C_17 
REMARK    5  A    between atoms: C_17  and  C_18 
REMARK       I    between atoms: N_25  and  C_26 
REMARK    6  A    between atoms: C_26  and  C_27 
REMARK    7  A    between atoms: C_30  and  O_31 
ROOT
HETATM    1  C   UNL     1      40.314 -15.126   2.824  1.00  0.00     0.253 C 
HETATM    2  N   UNL     1      40.446 -13.730   2.919  1.00  0.00    -0.348 N 
HETATM    3  C   UNL     1      41.670 -13.085   3.381  1.00  0.00     0.131 C 
HETATM    4  C   UNL     1      41.805 -11.651   2.913  1.00  0.00     0.081 C 
HETATM    5  C   UNL     1      40.559 -10.783   3.136  1.00  0.00     0.142 C 
HETATM    6  O   UNL     1      40.745  -9.690   2.186  1.00  0.00    -0.358 OA
HETATM    7  C   UNL     1      40.729  -8.447   2.882  1.00  0.00     0.206 C 
HETATM    8  C   UNL     1      41.032  -8.769   4.329  1.00  0.00     0.206 C 
HETATM    9  N   UNL     1      40.497 -10.121   4.451  1.00  0.00    -0.300 N 
HETATM   10  C   UNL     1      40.394 -10.844   5.629  1.00  0.00     0.257 C 
HETATM   11  O   UNL     1      40.088 -12.030   5.683  1.00  0.00    -0.267 OA
HETATM   12  C   UNL     1      39.288 -11.507   2.679  1.00  0.00     0.081 C 
HETATM   13  C   UNL     1      39.199 -12.981   3.054  1.00  0.00     0.131 C 
HETATM   14  O   UNL     1      39.285 -15.686   2.450  1.00  0.00    -0.267 OA
ENDROOT
BRANCH   8  15
HETATM   15  C   UNL     1      40.500  -7.585   5.138  1.00  0.00     0.243 C 
HETATM   16  N   UNL     1      39.165  -7.303   5.040  1.00  0.00    -0.354 N 
HETATM   17  H   UNL     1      38.520  -7.916   4.550  1.00  0.00     0.162 HD
HETATM   18  O   UNL     1      41.282  -6.845   5.738  1.00  0.00    -0.271 OA
BRANCH  16  19
HETATM   19  C   UNL     1      38.587  -6.184   5.757  1.00  0.00     0.181 C 
BRANCH  19  20
HETATM   20  C   UNL     1      37.076  -6.217   5.777  1.00  0.00     0.051 A 
HETATM   21  N   UNL     1      36.448  -7.266   5.178  1.00  0.00    -0.264 NA
HETATM   22  C   UNL     1      35.097  -7.264   5.200  1.00  0.00     0.117 A 
HETATM   23  C   UNL     1      34.333  -6.265   5.781  1.00  0.00     0.019 A 
HETATM   24  C   UNL     1      34.989  -5.195   6.375  1.00  0.00     0.003 A 
HETATM   25  C   UNL     1      36.380  -5.165   6.371  1.00  0.00     0.029 A 
ENDBRANCH  19  20
ENDBRANCH  16  19
ENDBRANCH   8  15
BRANCH  10  26
HETATM   26  C   UNL     1      40.580 -10.187   6.937  1.00  0.00     0.032 A 
HETATM   27  C   UNL     1      39.438  -9.930   7.700  1.00  0.00     0.020 A 
HETATM   28  C   UNL     1      39.560  -9.360   8.965  1.00  0.00     0.038 A 
HETATM   29  C   UNL     1      40.820  -9.067   9.490  1.00  0.00     0.068 A 
HETATM   30  C   UNL     1      41.963  -9.349   8.734  1.00  0.00     0.038 A 
HETATM   31  C   UNL     1      41.847  -9.921   7.461  1.00  0.00     0.020 A 
BRANCH  29  32
HETATM   32  O   UNL     1      40.796  -8.522  10.743  1.00  0.00    -0.356 OA
HETATM   33  C   UNL     1      39.611  -7.833  11.121  1.00  0.00     0.210 C 
ENDBRANCH  29  32
ENDBRANCH  10  26
BRANCH   1  34
HETATM   34  C   UNL     1      41.458 -15.993   3.192  1.00  0.00     0.032 A 
HETATM   35  C   UNL     1      41.712 -16.305   4.531  1.00  0.00     0.017 A 
HETATM   36  C   UNL     1      42.785 -17.135   4.861  1.00  0.00     0.008 A 
HETATM   37  C   UNL     1      43.589 -17.692   3.855  1.00  0.00    -0.059 A 
HETATM   38  C   UNL     1      43.298 -17.405   2.513  1.00  0.00     0.008 A 
HETATM   39  C   UNL     1      42.234 -16.562   2.181  1.00  0.00     0.017 A 
BRANCH  37  40
HETATM   40  C   UNL     1      44.740 -18.600   4.213  1.00  0.00     0.034 C 
HETATM   41  C   UNL     1      44.279 -19.900   4.856  1.00  0.00     0.010 C 
ENDBRANCH  37  40
ENDBRANCH   1  34
TORSDOF 7
ENDMDL
MODEL 10
REMARK VINA RESULT:      -7.9      3.645      6.208
REMARK  7 active torsions:
REMARK  status: ('A' for Active; 'I' for Inactive)
REMARK    1  A    between atoms: C_2  and  C_3 
REMARK    2  A    between atoms: C_6  and  C_7 
REMARK       I    between atoms: C_7  and  N_8 
REMARK    3  A    between atoms: C_14  and  C_15 
REMARK       I    between atoms: C_15  and  N_16 
REMARK    4  A    between atoms: N_16  and  C_17 
REMARK    5  A    between atoms: C_17  and  C_18 
REMARK       I    between atoms: N_25  and  C_26 
REMARK    6  A    between atoms: C_26  and  C_27 
REMARK    7  A    between atoms: C_30  and  O_31 
ROOT
HETATM    1  C   UNL     1      40.955 -12.390   5.712  1.00  0.00     0.253 C 
HETATM    2  N   UNL     1      40.798 -12.678   4.345  1.00  0.00    -0.348 N 
HETATM    3  C   UNL     1      41.900 -12.595   3.392  1.00  0.00     0.131 C 
HETATM    4  C   UNL     1      41.679 -13.429   2.148  1.00  0.00     0.081 C 
HETATM    5  C   UNL     1      40.309 -13.242   1.484  1.00  0.00     0.142 C 
HETATM    6  O   UNL     1      40.160 -14.458   0.689  1.00  0.00    -0.358 OA
HETATM    7  C   UNL     1      39.955 -14.109  -0.678  1.00  0.00     0.206 C 
HETATM    8  C   UNL     1      40.467 -12.695  -0.834  1.00  0.00     0.206 C 
HETATM    9  N   UNL     1      40.245 -12.148   0.500  1.00  0.00    -0.300 N 
HETATM   10  C   UNL     1      40.420 -10.823   0.867  1.00  0.00     0.257 C 
HETATM   11  O   UNL     1      40.378 -10.420   2.024  1.00  0.00    -0.267 OA
HETATM   12  C   UNL     1      39.179 -13.293   2.518  1.00  0.00     0.081 C 
HETATM   13  C   UNL     1      39.442 -12.543   3.819  1.00  0.00     0.131 C 
HETATM   14  O   UNL     1      40.034 -12.441   6.526  1.00  0.00    -0.267 OA
ENDROOT
BRANCH   8  15
HETATM   15  C   UNL     1      39.784 -12.142  -2.087  1.00  0.00     0.243 C 
HETATM   16  N   UNL     1      38.429 -11.960  -2.038  1.00  0.00    -0.354 N 
HETATM   17  H   UNL     1      37.901 -12.070  -1.177  1.00  0.00     0.162 HD
HETATM   18  O   UNL     1      40.425 -12.003  -3.131  1.00  0.00    -0.271 OA
BRANCH  16  19
HETATM   19  C   UNL     1      37.704 -11.463  -3.190  1.00  0.00     0.181 C 
BRANCH  19  20
HETATM   20  C   UNL     1      36.373 -10.847  -2.824  1.00  0.00     0.051 A 
HETATM   21  N   UNL     1      35.322 -11.042  -3.666  1.00  0.00    -0.264 NA
HETATM   22  C   UNL     1      34.146 -10.470  -3.322  1.00  0.00     0.117 A 
HETATM   23  C   UNL     1      33.963  -9.702  -2.184  1.00  0.00     0.019 A 
HETATM   24  C   UNL     1      35.050  -9.500  -1.343  1.00  0.00     0.003 A 
HETATM   25  C   UNL     1      36.275 -10.076  -1.667  1.00  0.00     0.029 A 
ENDBRANCH  19  20
ENDBRANCH  16  19
ENDBRANCH   8  15
BRANCH  10  26
HETATM   26  C   UNL     1      40.598  -9.773  -0.153  1.00  0.00     0.032 A 
HETATM   27  C   UNL     1      41.862  -9.647  -0.737  1.00  0.00     0.020 A 
HETATM   28  C   UNL     1      42.072  -8.706  -1.743  1.00  0.00     0.038 A 
HETATM   29  C   UNL     1      41.021  -7.905  -2.194  1.00  0.00     0.068 A 
HETATM   30  C   UNL     1      39.752  -8.051  -1.624  1.00  0.00     0.038 A 
HETATM   31  C   UNL     1      39.534  -8.994  -0.612  1.00  0.00     0.020 A 
BRANCH  29  32
HETATM   32  O   UNL     1      41.363  -7.035  -3.190  1.00  0.00    -0.356 OA
HETATM   33  C   UNL     1      42.451  -7.409  -4.025  1.00  0.00     0.210 C 
ENDBRANCH  29  32
ENDBRANCH  10  26
BRANCH   1  34
HETATM   34  C   UNL     1      42.288 -11.997   6.226  1.00  0.00     0.032 A 
HETATM   35  C   UNL     1      43.326 -12.931   6.299  1.00  0.00     0.017 A 
HETATM   36  C   UNL     1      44.581 -12.541   6.771  1.00  0.00     0.008 A 
HETATM   37  C   UNL     1      44.821 -11.208   7.137  1.00  0.00    -0.059 A 
HETATM   38  C   UNL     1      43.783 -10.272   7.019  1.00  0.00     0.008 A 
HETATM   39  C   UNL     1      42.521 -10.662   6.562  1.00  0.00     0.017 A 
BRANCH  37  40
HETATM   40  C   UNL     1      46.181 -10.786   7.635  1.00  0.00     0.034 C 
HETATM   41  C   UNL     1      46.199  -9.349   8.136  1.00  0.00     0.010 C 
ENDBRANCH  37  40
ENDBRANCH   1  34
TORSDOF 7
ENDMDL
