MODEL 1
REMARK VINA RESULT:      -8.2      0.000      0.000
REMARK  4 active torsions:
REMARK  status: ('A' for Active; 'I' for Inactive)
REMARK    1  A    between atoms: S_2  and  C_3 
REMARK    2  A    between atoms: C_5  and  C_6 
REMARK    3  A    between atoms: C_6  and  N_7 
REMARK       I    between atoms: N_7  and  C_8 
REMARK    4  A    between atoms: C_8  and  C_9 
ROOT
HETATM    1  N   UNL     1      43.299 -13.324   6.394  1.00  0.00    -0.353 N 
HETATM    2  C   UNL     1      42.286 -14.247   6.313  1.00  0.00     0.254 C 
HETATM    3  O   UNL     1      41.095 -13.954   6.351  1.00  0.00    -0.268 OA
HETATM    4  H   UNL     1      44.249 -13.609   6.197  1.00  0.00     0.163 HD
ENDROOT
BRANCH   2   5
HETATM    5  C   UNL     1      42.727 -15.652   6.076  1.00  0.00     0.058 A 
HETATM    6  C   UNL     1      42.973 -16.296   4.769  1.00  0.00    -0.003 A 
HETATM    7  C   UNL     1      43.320 -17.662   4.736  1.00  0.00     0.043 A 
HETATM    8  C   UNL     1      42.925 -15.604   3.550  1.00  0.00     0.013 A 
HETATM    9  C   UNL     1      43.566 -18.323   3.525  1.00  0.00     0.018 A 
HETATM   10  C   UNL     1      43.465 -18.415   6.011  1.00  0.00     0.256 A 
HETATM   11  C   UNL     1      43.483 -17.621   2.326  1.00  0.00     0.001 A 
HETATM   12  C   UNL     1      43.169 -16.264   2.339  1.00  0.00     0.001 A 
HETATM   13  O   UNL     1      43.759 -19.605   6.035  1.00  0.00    -0.267 OA
HETATM   14  N   UNL     1      43.260 -17.696   7.164  1.00  0.00    -0.332 N 
HETATM   15  C   UNL     1      42.902 -16.373   7.196  1.00  0.00     0.109 A 
HETATM   16  H   UNL     1      43.379 -18.210   8.030  1.00  0.00     0.168 HD
ENDBRANCH   2   5
BRANCH   1  17
HETATM   17  C   UNL     1      43.014 -11.905   6.409  1.00  0.00     0.161 C 
BRANCH  17  18
HETATM   18  C   UNL     1      44.016 -11.122   7.217  1.00  0.00    -0.039 A 
HETATM   19  C   UNL     1      43.625 -10.501   8.415  1.00  0.00     0.027 A 
HETATM   20  C   UNL     1      44.555  -9.840   9.231  1.00  0.00     0.000 A 
HETATM   21  C   UNL     1      45.896  -9.819   8.846  1.00  0.00     0.018 A 
HETATM   22  C   UNL     1      46.302 -10.437   7.660  1.00  0.00     0.002 A 
HETATM   23  C   UNL     1      45.369 -11.091   6.856  1.00  0.00     0.009 A 
BRANCH  20  24
HETATM   24  S   UNL     1      43.962  -9.138  10.764  1.00  0.00    -0.134 SA
HETATM   25  C   UNL     1      43.491 -10.621  11.695  1.00  0.00     0.095 C 
ENDBRANCH  20  24
ENDBRANCH  17  18
ENDBRANCH   1  17
TORSDOF 4
ENDMDL
MODEL 2
REMARK VINA RESULT:      -8.2      4.882      7.105
REMARK  4 active torsions:
REMARK  status: ('A' for Active; 'I' for Inactive)
REMARK    1  A    between atoms: S_2  and  C_3 
REMARK    2  A    between atoms: C_5  and  C_6 
REMARK    3  A    between atoms: C_6  and  N_7 
REMARK       I    between atoms: N_7  and  C_8 
REMARK    4  A    between atoms: C_8  and  C_9 
ROOT
HETATM    1  N   UNL     1      40.992 -15.079   1.011  1.00  0.00    -0.353 N 
HETATM    2  C   UNL     1      40.598 -15.525   2.248  1.00  0.00     0.254 C 
HETATM    3  O   UNL     1      39.426 -15.707   2.563  1.00  0.00    -0.268 OA
HETATM    4  H   UNL     1      41.972 -15.102   0.763  1.00  0.00     0.163 HD
ENDROOT
BRANCH   2   5
HETATM    5  C   UNL     1      41.709 -15.874   3.180  1.00  0.00     0.058 A 
HETATM    6  C   UNL     1      42.528 -17.104   3.164  1.00  0.00    -0.003 A 
HETATM    7  C   UNL     1      43.494 -17.293   4.172  1.00  0.00     0.043 A 
HETATM    8  C   UNL     1      42.424 -18.083   2.164  1.00  0.00     0.013 A 
HETATM    9  C   UNL     1      44.298 -18.440   4.205  1.00  0.00     0.018 A 
HETATM   10  C   UNL     1      43.696 -16.242   5.205  1.00  0.00     0.256 A 
HETATM   11  C   UNL     1      44.157 -19.412   3.218  1.00  0.00     0.001 A 
HETATM   12  C   UNL     1      43.227 -19.230   2.197  1.00  0.00     0.001 A 
HETATM   13  O   UNL     1      44.519 -16.362   6.105  1.00  0.00    -0.267 OA
HETATM   14  N   UNL     1      42.910 -15.120   5.086  1.00  0.00    -0.332 N 
HETATM   15  C   UNL     1      41.956 -14.944   4.118  1.00  0.00     0.109 A 
HETATM   16  H   UNL     1      43.066 -14.399   5.782  1.00  0.00     0.168 HD
ENDBRANCH   2   5
BRANCH   1  17
HETATM   17  C   UNL     1      40.033 -14.908  -0.059  1.00  0.00     0.161 C 
BRANCH  17  18
HETATM   18  C   UNL     1      40.310 -13.685  -0.895  1.00  0.00    -0.039 A 
HETATM   19  C   UNL     1      40.660 -12.473  -0.275  1.00  0.00     0.027 A 
HETATM   20  C   UNL     1      41.009 -11.343  -1.030  1.00  0.00     0.000 A 
HETATM   21  C   UNL     1      41.022 -11.439  -2.422  1.00  0.00     0.018 A 
HETATM   22  C   UNL     1      40.682 -12.638  -3.053  1.00  0.00     0.002 A 
HETATM   23  C   UNL     1      40.336 -13.756  -2.293  1.00  0.00     0.009 A 
BRANCH  20  24
HETATM   24  S   UNL     1      41.498  -9.871  -0.141  1.00  0.00    -0.134 SA
HETATM   25  C   UNL     1      41.639 -10.490   1.556  1.00  0.00     0.095 C 
ENDBRANCH  20  24
ENDBRANCH  17  18
ENDBRANCH   1  17
TORSDOF 4
ENDMDL
MODEL 3
REMARK VINA RESULT:      -7.9      5.071      6.957
REMARK  4 active torsions:
REMARK  status: ('A' for Active; 'I' for Inactive)
REMARK    1  A    between atoms: S_2  and  C_3 
REMARK    2  A    between atoms: C_5  and  C_6 
REMARK    3  A    between atoms: C_6  and  N_7 
REMARK       I    between atoms: N_7  and  C_8 
REMARK    4  A    between atoms: C_8  and  C_9 
ROOT
HETATM    1  N   UNL     1      41.498 -15.780   1.842  1.00  0.00    -0.353 N 
HETATM    2  C   UNL     1      42.835 -15.850   2.145  1.00  0.00     0.254 C 
HETATM    3  O   UNL     1      43.717 -15.358   1.448  1.00  0.00    -0.268 OA
HETATM    4  H   UNL     1      40.816 -16.063   2.533  1.00  0.00     0.163 HD
ENDROOT
BRANCH   2   5
HETATM    5  C   UNL     1      43.156 -16.493   3.452  1.00  0.00     0.058 A 
HETATM    6  C   UNL     1      43.441 -17.924   3.691  1.00  0.00    -0.003 A 
HETATM    7  C   UNL     1      43.656 -18.365   5.012  1.00  0.00     0.043 A 
HETATM    8  C   UNL     1      43.555 -18.867   2.659  1.00  0.00     0.013 A 
HETATM    9  C   UNL     1      43.931 -19.709   5.296  1.00  0.00     0.018 A 
HETATM   10  C   UNL     1      43.628 -17.383   6.130  1.00  0.00     0.256 A 
HETATM   11  C   UNL     1      44.010 -20.633   4.258  1.00  0.00     0.001 A 
HETATM   12  C   UNL     1      43.828 -20.211   2.943  1.00  0.00     0.001 A 
HETATM   13  O   UNL     1      43.802 -17.718   7.296  1.00  0.00    -0.267 OA
HETATM   14  N   UNL     1      43.403 -16.073   5.777  1.00  0.00    -0.332 N 
HETATM   15  C   UNL     1      43.173 -15.647   4.495  1.00  0.00     0.109 A 
HETATM   16  H   UNL     1      43.404 -15.406   6.542  1.00  0.00     0.168 HD
ENDBRANCH   2   5
BRANCH   1  17
HETATM   17  C   UNL     1      41.030 -15.000   0.717  1.00  0.00     0.161 C 
BRANCH  17  18
HETATM   18  C   UNL     1      40.180 -13.829   1.140  1.00  0.00    -0.039 A 
HETATM   19  C   UNL     1      39.569 -13.015   0.170  1.00  0.00     0.027 A 
HETATM   20  C   UNL     1      38.703 -11.973   0.534  1.00  0.00     0.000 A 
HETATM   21  C   UNL     1      38.435 -11.759   1.887  1.00  0.00     0.018 A 
HETATM   22  C   UNL     1      39.030 -12.563   2.863  1.00  0.00     0.002 A 
HETATM   23  C   UNL     1      39.891 -13.596   2.490  1.00  0.00     0.009 A 
BRANCH  20  24
HETATM   24  S   UNL     1      37.930 -11.040  -0.780  1.00  0.00    -0.134 SA
HETATM   25  C   UNL     1      37.791 -12.286  -2.089  1.00  0.00     0.095 C 
ENDBRANCH  20  24
ENDBRANCH  17  18
ENDBRANCH   1  17
TORSDOF 4
ENDMDL
MODEL 4
REMARK VINA RESULT:      -7.8      3.970      5.836
REMARK  4 active torsions:
REMARK  status: ('A' for Active; 'I' for Inactive)
REMARK    1  A    between atoms: S_2  and  C_3 
REMARK    2  A    between atoms: C_5  and  C_6 
REMARK    3  A    between atoms: C_6  and  N_7 
REMARK       I    between atoms: N_7  and  C_8 
REMARK    4  A    between atoms: C_8  and  C_9 
ROOT
HETATM    1  N   UNL     1      41.360 -15.890   1.857  1.00  0.00    -0.353 N 
HETATM    2  C   UNL     1      42.707 -15.937   2.115  1.00  0.00     0.254 C 
HETATM    3  O   UNL     1      43.552 -15.382   1.420  1.00  0.00    -0.268 OA
HETATM    4  H   UNL     1      40.708 -16.230   2.551  1.00  0.00     0.163 HD
ENDROOT
BRANCH   2   5
HETATM    5  C   UNL     1      43.087 -16.642   3.374  1.00  0.00     0.058 A 
HETATM    6  C   UNL     1      43.370 -18.084   3.533  1.00  0.00    -0.003 A 
HETATM    7  C   UNL     1      43.647 -18.586   4.821  1.00  0.00     0.043 A 
HETATM    8  C   UNL     1      43.423 -18.980   2.455  1.00  0.00     0.013 A 
HETATM    9  C   UNL     1      43.922 -19.944   5.029  1.00  0.00     0.018 A 
HETATM   10  C   UNL     1      43.684 -17.657   5.981  1.00  0.00     0.256 A 
HETATM   11  C   UNL     1      43.940 -20.820   3.948  1.00  0.00     0.001 A 
HETATM   12  C   UNL     1      43.697 -20.337   2.664  1.00  0.00     0.001 A 
HETATM   13  O   UNL     1      43.913 -18.045   7.121  1.00  0.00    -0.267 OA
HETATM   14  N   UNL     1      43.454 -16.330   5.700  1.00  0.00    -0.332 N 
HETATM   15  C   UNL     1      43.164 -15.844   4.452  1.00  0.00     0.109 A 
HETATM   16  H   UNL     1      43.500 -15.699   6.493  1.00  0.00     0.168 HD
ENDBRANCH   2   5
BRANCH   1  17
HETATM   17  C   UNL     1      40.835 -15.063   0.792  1.00  0.00     0.161 C 
BRANCH  17  18
HETATM   18  C   UNL     1      40.077 -13.866   1.309  1.00  0.00    -0.039 A 
HETATM   19  C   UNL     1      39.998 -13.626   2.692  1.00  0.00     0.027 A 
HETATM   20  C   UNL     1      39.375 -12.475   3.196  1.00  0.00     0.000 A 
HETATM   21  C   UNL     1      38.842 -11.547   2.300  1.00  0.00     0.018 A 
HETATM   22  C   UNL     1      38.917 -11.769   0.922  1.00  0.00     0.002 A 
HETATM   23  C   UNL     1      39.539 -12.918   0.431  1.00  0.00     0.009 A 
BRANCH  20  24
HETATM   24  S   UNL     1      39.386 -12.235   4.968  1.00  0.00    -0.134 SA
HETATM   25  C   UNL     1      40.998 -12.926   5.427  1.00  0.00     0.095 C 
ENDBRANCH  20  24
ENDBRANCH  17  18
ENDBRANCH   1  17
TORSDOF 4
ENDMDL
MODEL 5
REMARK VINA RESULT:      -7.7      3.410      7.552
REMARK  4 active torsions:
REMARK  status: ('A' for Active; 'I' for Inactive)
REMARK    1  A    between atoms: S_2  and  C_3 
REMARK    2  A    between atoms: C_5  and  C_6 
REMARK    3  A    between atoms: C_6  and  N_7 
REMARK       I    between atoms: N_7  and  C_8 
REMARK    4  A    between atoms: C_8  and  C_9 
ROOT
HETATM    1  N   UNL     1      42.987 -13.223   3.906  1.00  0.00    -0.353 N 
HETATM    2  C   UNL     1      43.059 -11.854   3.842  1.00  0.00     0.254 C 
HETATM    3  O   UNL     1      43.206 -11.229   2.796  1.00  0.00    -0.268 OA
HETATM    4  H   UNL     1      42.708 -13.667   4.770  1.00  0.00     0.163 HD
ENDROOT
BRANCH   2   5
HETATM    5  C   UNL     1      42.850 -11.147   5.139  1.00  0.00     0.058 A 
HETATM    6  C   UNL     1      43.851 -10.937   6.206  1.00  0.00    -0.003 A 
HETATM    7  C   UNL     1      43.452 -10.303   7.400  1.00  0.00     0.043 A 
HETATM    8  C   UNL     1      45.201 -11.297   6.076  1.00  0.00     0.013 A 
HETATM    9  C   UNL     1      44.359 -10.078   8.444  1.00  0.00     0.018 A 
HETATM   10  C   UNL     1      42.050  -9.830   7.549  1.00  0.00     0.256 A 
HETATM   11  C   UNL     1      45.687 -10.471   8.303  1.00  0.00     0.001 A 
HETATM   12  C   UNL     1      46.107 -11.073   7.119  1.00  0.00     0.001 A 
HETATM   13  O   UNL     1      41.652  -9.279   8.569  1.00  0.00    -0.267 OA
HETATM   14  N   UNL     1      41.224 -10.037   6.468  1.00  0.00    -0.332 N 
HETATM   15  C   UNL     1      41.606 -10.672   5.315  1.00  0.00     0.109 A 
HETATM   16  H   UNL     1      40.275  -9.694   6.568  1.00  0.00     0.168 HD
ENDBRANCH   2   5
BRANCH   1  17
HETATM   17  C   UNL     1      42.958 -14.024   2.700  1.00  0.00     0.161 C 
BRANCH  17  18
HETATM   18  C   UNL     1      43.197 -15.487   2.972  1.00  0.00    -0.039 A 
HETATM   19  C   UNL     1      43.263 -15.957   4.295  1.00  0.00     0.027 A 
HETATM   20  C   UNL     1      43.396 -17.324   4.577  1.00  0.00     0.000 A 
HETATM   21  C   UNL     1      43.445 -18.230   3.517  1.00  0.00     0.018 A 
HETATM   22  C   UNL     1      43.375 -17.780   2.196  1.00  0.00     0.002 A 
HETATM   23  C   UNL     1      43.243 -16.418   1.927  1.00  0.00     0.009 A 
BRANCH  20  24
HETATM   24  S   UNL     1      43.408 -17.820   6.295  1.00  0.00    -0.134 SA
HETATM   25  C   UNL     1      43.066 -16.251   7.137  1.00  0.00     0.095 C 
ENDBRANCH  20  24
ENDBRANCH  17  18
ENDBRANCH   1  17
TORSDOF 4
ENDMDL
MODEL 6
REMARK VINA RESULT:      -7.7      4.825      7.371
REMARK  4 active torsions:
REMARK  status: ('A' for Active; 'I' for Inactive)
REMARK    1  A    between atoms: S_2  and  C_3 
REMARK    2  A    between atoms: C_5  and  C_6 
REMARK    3  A    between atoms: C_6  and  N_7 
REMARK       I    between atoms: N_7  and  C_8 
REMARK    4  A    between atoms: C_8  and  C_9 
ROOT
HETATM    1  N   UNL     1      40.969 -13.765   3.168  1.00  0.00    -0.353 N 
HETATM    2  C   UNL     1      42.337 -13.743   3.277  1.00  0.00     0.254 C 
HETATM    3  O   UNL     1      43.055 -12.956   2.668  1.00  0.00    -0.268 OA
HETATM    4  H   UNL     1      40.427 -14.325   3.812  1.00  0.00     0.163 HD
ENDROOT
BRANCH   2   5
HETATM    5  C   UNL     1      42.908 -14.693   4.275  1.00  0.00     0.058 A 
HETATM    6  C   UNL     1      43.262 -16.111   4.049  1.00  0.00    -0.003 A 
HETATM    7  C   UNL     1      43.728 -16.878   5.135  1.00  0.00     0.043 A 
HETATM    8  C   UNL     1      43.201 -16.727   2.790  1.00  0.00     0.013 A 
HETATM    9  C   UNL     1      44.078 -18.226   4.978  1.00  0.00     0.018 A 
HETATM   10  C   UNL     1      43.888 -16.243   6.471  1.00  0.00     0.256 A 
HETATM   11  C   UNL     1      43.981 -18.824   3.725  1.00  0.00     0.001 A 
HETATM   12  C   UNL     1      43.549 -18.074   2.633  1.00  0.00     0.001 A 
HETATM   13  O   UNL     1      44.284 -16.869   7.447  1.00  0.00    -0.267 OA
HETATM   14  N   UNL     1      43.575 -14.906   6.545  1.00  0.00    -0.332 N 
HETATM   15  C   UNL     1      43.102 -14.164   5.494  1.00  0.00     0.109 A 
HETATM   16  H   UNL     1      43.705 -14.475   7.453  1.00  0.00     0.168 HD
ENDBRANCH   2   5
BRANCH   1  17
HETATM   17  C   UNL     1      40.267 -12.757   2.402  1.00  0.00     0.161 C 
BRANCH  17  18
HETATM   18  C   UNL     1      39.877 -13.242   1.029  1.00  0.00    -0.039 A 
HETATM   19  C   UNL     1      39.503 -12.320   0.036  1.00  0.00     0.027 A 
HETATM   20  C   UNL     1      39.220 -12.735  -1.273  1.00  0.00     0.000 A 
HETATM   21  C   UNL     1      39.332 -14.090  -1.591  1.00  0.00     0.018 A 
HETATM   22  C   UNL     1      39.708 -15.018  -0.617  1.00  0.00     0.002 A 
HETATM   23  C   UNL     1      39.986 -14.594   0.683  1.00  0.00     0.009 A 
BRANCH  20  24
HETATM   24  S   UNL     1      38.814 -11.474  -2.474  1.00  0.00    -0.134 SA
HETATM   25  C   UNL     1      37.007 -11.595  -2.544  1.00  0.00     0.095 C 
ENDBRANCH  20  24
ENDBRANCH  17  18
ENDBRANCH   1  17
TORSDOF 4
ENDMDL
MODEL 7
REMARK VINA RESULT:      -7.7      3.717      5.696
REMARK  4 active torsions:
REMARK  status: ('A' for Active; 'I' for Inactive)
REMARK    1  A    between atoms: S_2  and  C_3 
REMARK    2  A    between atoms: C_5  and  C_6 
REMARK    3  A    between atoms: C_6  and  N_7 
REMARK       I    between atoms: N_7  and  C_8 
REMARK    4  A    between atoms: C_8  and  C_9 
ROOT
HETATM    1  N   UNL     1      41.502 -15.963   1.670  1.00  0.00    -0.353 N 
HETATM    2  C   UNL     1      42.838 -16.058   1.971  1.00  0.00     0.254 C 
HETATM    3  O   UNL     1      43.694 -15.312   1.505  1.00  0.00    -0.268 OA
HETATM    4  H   UNL     1      40.833 -16.500   2.205  1.00  0.00     0.163 HD
ENDROOT
BRANCH   2   5
HETATM    5  C   UNL     1      43.186 -17.087   2.994  1.00  0.00     0.058 A 
HETATM    6  C   UNL     1      43.136 -16.929   4.462  1.00  0.00    -0.003 A 
HETATM    7  C   UNL     1      43.571 -17.994   5.277  1.00  0.00     0.043 A 
HETATM    8  C   UNL     1      42.633 -15.784   5.096  1.00  0.00     0.013 A 
HETATM    9  C   UNL     1      43.545 -17.900   6.675  1.00  0.00     0.018 A 
HETATM   10  C   UNL     1      44.034 -19.260   4.649  1.00  0.00     0.256 A 
HETATM   11  C   UNL     1      43.068 -16.741   7.281  1.00  0.00     0.001 A 
HETATM   12  C   UNL     1      42.608 -15.688   6.493  1.00  0.00     0.001 A 
HETATM   13  O   UNL     1      44.427 -20.212   5.313  1.00  0.00    -0.267 OA
HETATM   14  N   UNL     1      43.987 -19.305   3.275  1.00  0.00    -0.332 N 
HETATM   15  C   UNL     1      43.585 -18.263   2.482  1.00  0.00     0.109 A 
HETATM   16  H   UNL     1      44.286 -20.178   2.854  1.00  0.00     0.168 HD
ENDBRANCH   2   5
BRANCH   1  17
HETATM   17  C   UNL     1      40.997 -14.875   0.860  1.00  0.00     0.161 C 
BRANCH  17  18
HETATM   18  C   UNL     1      40.284 -13.828   1.678  1.00  0.00    -0.039 A 
HETATM   19  C   UNL     1      40.347 -13.867   3.081  1.00  0.00     0.027 A 
HETATM   20  C   UNL     1      39.767 -12.858   3.864  1.00  0.00     0.000 A 
HETATM   21  C   UNL     1      39.133 -11.790   3.228  1.00  0.00     0.018 A 
HETATM   22  C   UNL     1      39.067 -11.734   1.833  1.00  0.00     0.002 A 
HETATM   23  C   UNL     1      39.646 -12.744   1.064  1.00  0.00     0.009 A 
BRANCH  20  24
HETATM   24  S   UNL     1      39.960 -12.971   5.638  1.00  0.00    -0.134 SA
HETATM   25  C   UNL     1      41.495 -12.044   5.905  1.00  0.00     0.095 C 
ENDBRANCH  20  24
ENDBRANCH  17  18
ENDBRANCH   1  17
TORSDOF 4
ENDMDL
MODEL 8
REMARK VINA RESULT:      -7.6      5.406      7.619
REMARK  4 active torsions:
REMARK  status: ('A' for Active; 'I' for Inactive)
REMARK    1  A    between atoms: S_2  and  C_3 
REMARK    2  A    between atoms: C_5  and  C_6 
REMARK    3  A    between atoms: C_6  and  N_7 
REMARK       I    between atoms: N_7  and  C_8 
REMARK    4  A    between atoms: C_8  and  C_9 
ROOT
HETATM    1  N   UNL     1      41.132 -15.034   1.059  1.00  0.00    -0.353 N 
HETATM    2  C   UNL     1      40.738 -15.537   2.274  1.00  0.00     0.254 C 
HETATM    3  O   UNL     1      39.566 -15.733   2.581  1.00  0.00    -0.268 OA
HETATM    4  H   UNL     1      42.111 -15.046   0.809  1.00  0.00     0.163 HD
ENDROOT
BRANCH   2   5
HETATM    5  C   UNL     1      41.850 -15.929   3.188  1.00  0.00     0.058 A 
HETATM    6  C   UNL     1      42.617 -17.191   3.160  1.00  0.00    -0.003 A 
HETATM    7  C   UNL     1      43.592 -17.418   4.153  1.00  0.00     0.043 A 
HETATM    8  C   UNL     1      42.459 -18.166   2.164  1.00  0.00     0.013 A 
HETATM    9  C   UNL     1      44.350 -18.596   4.174  1.00  0.00     0.018 A 
HETATM   10  C   UNL     1      43.853 -16.375   5.181  1.00  0.00     0.256 A 
HETATM   11  C   UNL     1      44.154 -19.562   3.191  1.00  0.00     0.001 A 
HETATM   12  C   UNL     1      43.215 -19.344   2.186  1.00  0.00     0.001 A 
HETATM   13  O   UNL     1      44.685 -16.527   6.067  1.00  0.00    -0.267 OA
HETATM   14  N   UNL     1      43.111 -15.222   5.073  1.00  0.00    -0.332 N 
HETATM   15  C   UNL     1      42.148 -15.009   4.121  1.00  0.00     0.109 A 
HETATM   16  H   UNL     1      43.307 -14.507   5.765  1.00  0.00     0.168 HD
ENDBRANCH   2   5
BRANCH   1  17
HETATM   17  C   UNL     1      40.172 -14.814  -0.002  1.00  0.00     0.161 C 
BRANCH  17  18
HETATM   18  C   UNL     1      40.056 -13.360  -0.384  1.00  0.00    -0.039 A 
HETATM   19  C   UNL     1      38.980 -12.923  -1.175  1.00  0.00     0.027 A 
HETATM   20  C   UNL     1      38.800 -11.564  -1.473  1.00  0.00     0.000 A 
HETATM   21  C   UNL     1      39.701 -10.634  -0.953  1.00  0.00     0.018 A 
HETATM   22  C   UNL     1      40.773 -11.052  -0.160  1.00  0.00     0.002 A 
HETATM   23  C   UNL     1      40.943 -12.406   0.129  1.00  0.00     0.009 A 
BRANCH  20  24
HETATM   24  S   UNL     1      37.363 -11.109  -2.435  1.00  0.00    -0.134 SA
HETATM   25  C   UNL     1      38.039  -9.832  -3.530  1.00  0.00     0.095 C 
ENDBRANCH  20  24
ENDBRANCH  17  18
ENDBRANCH   1  17
TORSDOF 4
ENDMDL
MODEL 9
REMARK VINA RESULT:      -7.5      4.904      7.696
REMARK  4 active torsions:
REMARK  status: ('A' for Active; 'I' for Inactive)
REMARK    1  A    between atoms: S_2  and  C_3 
REMARK    2  A    between atoms: C_5  and  C_6 
REMARK    3  A    between atoms: C_6  and  N_7 
REMARK       I    between atoms: N_7  and  C_8 
REMARK    4  A    between atoms: C_8  and  C_9 
ROOT
HETATM    1  N   UNL     1      41.289 -14.628   2.047  1.00  0.00    -0.353 N 
HETATM    2  C   UNL     1      42.624 -14.733   2.347  1.00  0.00     0.254 C 
HETATM    3  O   UNL     1      43.439 -13.837   2.150  1.00  0.00    -0.268 OA
HETATM    4  H   UNL     1      40.647 -15.335   2.378  1.00  0.00     0.163 HD
ENDROOT
BRANCH   2   5
HETATM    5  C   UNL     1      43.021 -15.998   3.032  1.00  0.00     0.058 A 
HETATM    6  C   UNL     1      43.184 -16.207   4.486  1.00  0.00    -0.003 A 
HETATM    7  C   UNL     1      43.635 -17.460   4.948  1.00  0.00     0.043 A 
HETATM    8  C   UNL     1      42.866 -15.232   5.442  1.00  0.00     0.013 A 
HETATM    9  C   UNL     1      43.806 -17.714   6.315  1.00  0.00     0.018 A 
HETATM   10  C   UNL     1      43.904 -18.551   3.973  1.00  0.00     0.256 A 
HETATM   11  C   UNL     1      43.512 -16.720   7.245  1.00  0.00     0.001 A 
HETATM   12  C   UNL     1      43.038 -15.485   6.809  1.00  0.00     0.001 A 
HETATM   13  O   UNL     1      44.304 -19.655   4.325  1.00  0.00    -0.267 OA
HETATM   14  N   UNL     1      43.668 -18.252   2.652  1.00  0.00    -0.332 N 
HETATM   15  C   UNL     1      43.250 -17.028   2.200  1.00  0.00     0.109 A 
HETATM   16  H   UNL     1      43.835 -19.006   1.995  1.00  0.00     0.168 HD
ENDBRANCH   2   5
BRANCH   1  17
HETATM   17  C   UNL     1      40.728 -13.378   1.579  1.00  0.00     0.161 C 
BRANCH  17  18
HETATM   18  C   UNL     1      40.316 -13.435   0.131  1.00  0.00    -0.039 A 
HETATM   19  C   UNL     1      40.561 -12.340  -0.715  1.00  0.00     0.027 A 
HETATM   20  C   UNL     1      40.268 -12.398  -2.086  1.00  0.00     0.000 A 
HETATM   21  C   UNL     1      39.740 -13.578  -2.614  1.00  0.00     0.018 A 
HETATM   22  C   UNL     1      39.496 -14.677  -1.787  1.00  0.00     0.002 A 
HETATM   23  C   UNL     1      39.791 -14.608  -0.425  1.00  0.00     0.009 A 
BRANCH  20  24
HETATM   24  S   UNL     1      40.676 -10.972  -3.083  1.00  0.00    -0.134 SA
HETATM   25  C   UNL     1      41.444  -9.872  -1.863  1.00  0.00     0.095 C 
ENDBRANCH  20  24
ENDBRANCH  17  18
ENDBRANCH   1  17
TORSDOF 4
ENDMDL
MODEL 10
REMARK VINA RESULT:      -7.5      3.428      7.669
REMARK  4 active torsions:
REMARK  status: ('A' for Active; 'I' for Inactive)
REMARK    1  A    between atoms: S_2  and  C_3 
REMARK    2  A    between atoms: C_5  and  C_6 
REMARK    3  A    between atoms: C_6  and  N_7 
REMARK       I    between atoms: N_7  and  C_8 
REMARK    4  A    between atoms: C_8  and  C_9 
ROOT
HETATM    1  N   UNL     1      43.200 -13.037   4.748  1.00  0.00    -0.353 N 
HETATM    2  C   UNL     1      43.803 -11.804   4.786  1.00  0.00     0.254 C 
HETATM    3  O   UNL     1      44.038 -11.131   3.788  1.00  0.00    -0.268 OA
HETATM    4  H   UNL     1      42.891 -13.468   5.609  1.00  0.00     0.163 HD
ENDROOT
BRANCH   2   5
HETATM    5  C   UNL     1      44.078 -11.277   6.155  1.00  0.00     0.058 A 
HETATM    6  C   UNL     1      43.142 -10.535   7.024  1.00  0.00    -0.003 A 
HETATM    7  C   UNL     1      43.603 -10.051   8.266  1.00  0.00     0.043 A 
HETATM    8  C   UNL     1      41.794 -10.323   6.699  1.00  0.00     0.013 A 
HETATM    9  C   UNL     1      42.759  -9.342   9.130  1.00  0.00     0.018 A 
HETATM   10  C   UNL     1      45.002 -10.326   8.689  1.00  0.00     0.256 A 
HETATM   11  C   UNL     1      41.432  -9.119   8.772  1.00  0.00     0.001 A 
HETATM   12  C   UNL     1      40.951  -9.613   7.562  1.00  0.00     0.001 A 
HETATM   13  O   UNL     1      45.452  -9.921   9.755  1.00  0.00    -0.267 OA
HETATM   14  N   UNL     1      45.762 -11.069   7.817  1.00  0.00    -0.332 N 
HETATM   15  C   UNL     1      45.322 -11.522   6.601  1.00  0.00     0.109 A 
HETATM   16  H   UNL     1      46.709 -11.269   8.121  1.00  0.00     0.168 HD
ENDBRANCH   2   5
BRANCH   1  17
HETATM   17  C   UNL     1      42.684 -13.574   3.507  1.00  0.00     0.161 C 
BRANCH  17  18
HETATM   18  C   UNL     1      43.019 -15.033   3.324  1.00  0.00    -0.039 A 
HETATM   19  C   UNL     1      43.207 -15.858   4.446  1.00  0.00     0.027 A 
HETATM   20  C   UNL     1      43.433 -17.235   4.307  1.00  0.00     0.000 A 
HETATM   21  C   UNL     1      43.451 -17.791   3.027  1.00  0.00     0.018 A 
HETATM   22  C   UNL     1      43.260 -16.985   1.902  1.00  0.00     0.002 A 
HETATM   23  C   UNL     1      43.037 -15.616   2.051  1.00  0.00     0.009 A 
BRANCH  20  24
HETATM   24  S   UNL     1      43.597 -18.204   5.801  1.00  0.00    -0.134 SA
HETATM   25  C   UNL     1      43.155 -16.995   7.078  1.00  0.00     0.095 C 
ENDBRANCH  20  24
ENDBRANCH  17  18
ENDBRANCH   1  17
TORSDOF 4
ENDMDL
