MODEL 1
REMARK VINA RESULT:      -9.7      0.000      0.000
REMARK  7 active torsions:
REMARK  status: ('A' for Active; 'I' for Inactive)
REMARK    1  A    between atoms: C_2  and  C_3 
REMARK    2  A    between atoms: N_10  and  C_11 
REMARK    3  A    between atoms: C_11  and  C_12 
REMARK       I    between atoms: C_12  and  N_13 
REMARK    4  A    between atoms: N_13  and  C_14 
REMARK    5  A    between atoms: C_17  and  C_18 
REMARK       I    between atoms: C_18  and  N_19 
REMARK    6  A    between atoms: N_19  and  C_20 
REMARK    7  A    between atoms: C_21  and  O_22 
ROOT
HETATM    1  C   UNL     1      42.042 -10.902   4.282  1.00  0.00     0.240 C 
HETATM    2  N   UNL     1      42.333 -11.590   5.443  1.00  0.00    -0.326 N 
HETATM    3  O   UNL     1      42.055  -9.677   4.154  1.00  0.00    -0.271 OA
HETATM    4  H   UNL     1      42.256 -12.599   5.409  1.00  0.00     0.169 HD
ENDROOT
BRANCH   2   5
HETATM    5  C   UNL     1      42.754 -11.028   6.673  1.00  0.00     0.034 A 
HETATM    6  C   UNL     1      43.943 -11.373   7.325  1.00  0.00     0.030 A 
HETATM    7  C   UNL     1      44.281 -10.813   8.565  1.00  0.00     0.019 A 
HETATM    8  C   UNL     1      43.432  -9.886   9.172  1.00  0.00     0.032 A 
HETATM    9  C   UNL     1      42.243  -9.528   8.523  1.00  0.00     0.019 A 
HETATM   10  C   UNL     1      41.913 -10.089   7.280  1.00  0.00     0.030 A 
BRANCH   8  11
HETATM   11  C   UNL     1      43.709  -9.336  10.532  1.00  0.00     0.256 C 
HETATM   12  N   UNL     1      42.627  -9.296  11.392  1.00  0.00    -0.321 N 
HETATM   13  H   UNL     1      41.786  -9.802  11.141  1.00  0.00     0.169 HD
HETATM   14  O   UNL     1      44.856  -8.983  10.788  1.00  0.00    -0.267 OA
BRANCH  12  15
HETATM   15  C   UNL     1      42.555  -8.678  12.664  1.00  0.00     0.068 A 
HETATM   16  C   UNL     1      41.650  -9.225  13.600  1.00  0.00     0.095 A 
HETATM   17  C   UNL     1      41.512  -8.632  14.860  1.00  0.00     0.039 A 
HETATM   18  C   UNL     1      42.265  -7.505  15.192  1.00  0.00     0.003 A 
HETATM   19  C   UNL     1      43.157  -6.966  14.270  1.00  0.00     0.002 A 
HETATM   20  C   UNL     1      43.302  -7.549  13.010  1.00  0.00     0.032 A 
BRANCH  16  21
HETATM   21  O   UNL     1      40.948 -10.332  13.175  1.00  0.00    -0.354 OA
HETATM   22  C   UNL     1      39.542 -10.175  13.020  1.00  0.00     0.210 C 
ENDBRANCH  16  21
ENDBRANCH  12  15
ENDBRANCH   8  11
ENDBRANCH   2   5
BRANCH   1  23
HETATM   23  C   UNL     1      41.602 -11.744   3.085  1.00  0.00     0.240 C 
BRANCH  23  24
HETATM   24  N   UNL     1      41.191 -13.117   3.289  1.00  0.00    -0.259 N 
HETATM   25  C   UNL     1      39.986 -13.613   2.907  1.00  0.00     0.326 C 
HETATM   26  N   UNL     1      40.039 -14.987   2.971  1.00  0.00    -0.324 N 
HETATM   27  O   UNL     1      39.009 -12.982   2.546  1.00  0.00    -0.247 OA
HETATM   28  C   UNL     1      41.405 -15.467   3.097  1.00  0.00     0.116 C 
HETATM   29  H   UNL     1      39.279 -15.524   2.571  1.00  0.00     0.165 HD
HETATM   30  C   UNL     1      41.959 -15.832   1.708  1.00  0.00     0.041 C 
HETATM   31  C   UNL     1      42.061 -14.143   3.554  1.00  0.00     0.256 C 
HETATM   32  C   UNL     1      41.511 -16.616   4.095  1.00  0.00     0.041 C 
HETATM   33  C   UNL     1      43.352 -16.456   1.779  1.00  0.00     0.007 C 
HETATM   34  C   UNL     1      43.415 -17.671   2.715  1.00  0.00    -0.015 C 
HETATM   35  C   UNL     1      42.886 -17.291   4.109  1.00  0.00     0.007 C 
HETATM   36  O   UNL     1      43.209 -14.014   3.954  1.00  0.00    -0.270 OA
BRANCH  34  37
HETATM   37  C   UNL     1      42.696 -18.881   2.084  1.00  0.00     0.000 C 
HETATM   38  C   UNL     1      43.555 -20.137   2.038  1.00  0.00     0.005 C 
ENDBRANCH  34  37
ENDBRANCH  23  24
ENDBRANCH   1  23
TORSDOF 7
ENDMDL
MODEL 2
REMARK VINA RESULT:      -9.5      2.310     10.770
REMARK  7 active torsions:
REMARK  status: ('A' for Active; 'I' for Inactive)
REMARK    1  A    between atoms: C_2  and  C_3 
REMARK    2  A    between atoms: N_10  and  C_11 
REMARK    3  A    between atoms: C_11  and  C_12 
REMARK       I    between atoms: C_12  and  N_13 
REMARK    4  A    between atoms: N_13  and  C_14 
REMARK    5  A    between atoms: C_17  and  C_18 
REMARK       I    between atoms: C_18  and  N_19 
REMARK    6  A    between atoms: N_19  and  C_20 
REMARK    7  A    between atoms: C_21  and  O_22 
ROOT
HETATM    1  C   UNL     1      42.192  -9.420   6.609  1.00  0.00     0.240 C 
HETATM    2  N   UNL     1      41.697  -9.861   5.398  1.00  0.00    -0.326 N 
HETATM    3  O   UNL     1      42.891 -10.081   7.378  1.00  0.00    -0.271 OA
HETATM    4  H   UNL     1      41.112  -9.216   4.881  1.00  0.00     0.169 HD
ENDROOT
BRANCH   2   5
HETATM    5  C   UNL     1      41.944 -11.118   4.792  1.00  0.00     0.034 A 
HETATM    6  C   UNL     1      41.189 -12.269   5.042  1.00  0.00     0.030 A 
HETATM    7  C   UNL     1      41.511 -13.494   4.443  1.00  0.00     0.019 A 
HETATM    8  C   UNL     1      42.599 -13.586   3.573  1.00  0.00     0.032 A 
HETATM    9  C   UNL     1      43.356 -12.436   3.309  1.00  0.00     0.019 A 
HETATM   10  C   UNL     1      43.024 -11.212   3.908  1.00  0.00     0.030 A 
BRANCH   8  11
HETATM   11  C   UNL     1      43.032 -14.889   2.987  1.00  0.00     0.256 C 
HETATM   12  N   UNL     1      42.625 -16.017   3.673  1.00  0.00    -0.321 N 
HETATM   13  H   UNL     1      41.918 -15.921   4.393  1.00  0.00     0.169 HD
HETATM   14  O   UNL     1      43.690 -14.864   1.951  1.00  0.00    -0.267 OA
BRANCH  12  15
HETATM   15  C   UNL     1      43.025 -17.357   3.451  1.00  0.00     0.068 A 
HETATM   16  C   UNL     1      43.795 -17.980   4.458  1.00  0.00     0.095 A 
HETATM   17  C   UNL     1      44.248 -19.290   4.275  1.00  0.00     0.039 A 
HETATM   18  C   UNL     1      43.939 -19.983   3.103  1.00  0.00     0.003 A 
HETATM   19  C   UNL     1      43.180 -19.371   2.110  1.00  0.00     0.002 A 
HETATM   20  C   UNL     1      42.725 -18.062   2.283  1.00  0.00     0.032 A 
BRANCH  16  21
HETATM   21  O   UNL     1      44.052 -17.211   5.572  1.00  0.00    -0.354 OA
HETATM   22  C   UNL     1      43.442 -17.626   6.789  1.00  0.00     0.210 C 
ENDBRANCH  16  21
ENDBRANCH  12  15
ENDBRANCH   8  11
ENDBRANCH   2   5
BRANCH   1  23
HETATM   23  C   UNL     1      41.771  -8.018   7.046  1.00  0.00     0.240 C 
BRANCH  23  24
HETATM   24  N   UNL     1      41.202  -7.820   8.362  1.00  0.00    -0.259 N 
HETATM   25  C   UNL     1      39.974  -8.267   8.732  1.00  0.00     0.326 C 
HETATM   26  N   UNL     1      39.873  -8.181  10.102  1.00  0.00    -0.324 N 
HETATM   27  O   UNL     1      39.094  -8.694   8.006  1.00  0.00    -0.247 OA
HETATM   28  C   UNL     1      41.169  -7.969  10.725  1.00  0.00     0.116 C 
HETATM   29  H   UNL     1      39.083  -8.619  10.562  1.00  0.00     0.165 HD
HETATM   30  C   UNL     1      41.759  -9.317  11.174  1.00  0.00     0.041 C 
HETATM   31  C   UNL     1      41.938  -7.490   9.470  1.00  0.00     0.256 C 
HETATM   32  C   UNL     1      41.091  -6.950  11.859  1.00  0.00     0.041 C 
HETATM   33  C   UNL     1      43.069  -9.154  11.944  1.00  0.00     0.007 C 
HETATM   34  C   UNL     1      42.945  -8.200  13.141  1.00  0.00    -0.015 C 
HETATM   35  C   UNL     1      42.381  -6.846  12.677  1.00  0.00     0.007 C 
HETATM   36  O   UNL     1      43.068  -7.025   9.458  1.00  0.00    -0.270 OA
BRANCH  34  37
HETATM   37  C   UNL     1      42.136  -8.857  14.278  1.00  0.00     0.000 C 
HETATM   38  C   UNL     1      41.758  -7.886  15.388  1.00  0.00     0.005 C 
ENDBRANCH  34  37
ENDBRANCH  23  24
ENDBRANCH   1  23
TORSDOF 7
ENDMDL
MODEL 3
REMARK VINA RESULT:      -9.5      2.064     11.388
REMARK  7 active torsions:
REMARK  status: ('A' for Active; 'I' for Inactive)
REMARK    1  A    between atoms: C_2  and  C_3 
REMARK    2  A    between atoms: N_10  and  C_11 
REMARK    3  A    between atoms: C_11  and  C_12 
REMARK       I    between atoms: C_12  and  N_13 
REMARK    4  A    between atoms: N_13  and  C_14 
REMARK    5  A    between atoms: C_17  and  C_18 
REMARK       I    between atoms: C_18  and  N_19 
REMARK    6  A    between atoms: N_19  and  C_20 
REMARK    7  A    between atoms: C_21  and  O_22 
ROOT
HETATM    1  C   UNL     1      43.855  -9.794   8.065  1.00  0.00     0.240 C 
HETATM    2  N   UNL     1      42.831 -10.625   7.659  1.00  0.00    -0.326 N 
HETATM    3  O   UNL     1      45.012  -9.826   7.643  1.00  0.00    -0.271 OA
HETATM    4  H   UNL     1      41.935 -10.502   8.113  1.00  0.00     0.169 HD
ENDROOT
BRANCH   2   5
HETATM    5  C   UNL     1      42.900 -11.620   6.653  1.00  0.00     0.034 A 
HETATM    6  C   UNL     1      42.313 -11.496   5.389  1.00  0.00     0.030 A 
HETATM    7  C   UNL     1      42.380 -12.536   4.451  1.00  0.00     0.019 A 
HETATM    8  C   UNL     1      43.047 -13.722   4.764  1.00  0.00     0.032 A 
HETATM    9  C   UNL     1      43.647 -13.851   6.024  1.00  0.00     0.019 A 
HETATM   10  C   UNL     1      43.580 -12.805   6.956  1.00  0.00     0.030 A 
BRANCH   8  11
HETATM   11  C   UNL     1      43.063 -14.887   3.831  1.00  0.00     0.256 C 
HETATM   12  N   UNL     1      43.039 -16.133   4.430  1.00  0.00    -0.321 N 
HETATM   13  H   UNL     1      42.821 -16.194   5.417  1.00  0.00     0.169 HD
HETATM   14  O   UNL     1      43.077 -14.659   2.625  1.00  0.00    -0.267 OA
BRANCH  12  15
HETATM   15  C   UNL     1      43.217 -17.394   3.811  1.00  0.00     0.068 A 
HETATM   16  C   UNL     1      43.838 -18.408   4.574  1.00  0.00     0.095 A 
HETATM   17  C   UNL     1      44.071 -19.663   4.001  1.00  0.00     0.039 A 
HETATM   18  C   UNL     1      43.690 -19.914   2.681  1.00  0.00     0.003 A 
HETATM   19  C   UNL     1      43.077 -18.916   1.930  1.00  0.00     0.002 A 
HETATM   20  C   UNL     1      42.842 -17.660   2.492  1.00  0.00     0.032 A 
BRANCH  16  21
HETATM   21  O   UNL     1      44.183 -18.059   5.861  1.00  0.00    -0.354 OA
HETATM   22  C   UNL     1      43.362 -18.574   6.904  1.00  0.00     0.210 C 
ENDBRANCH  16  21
ENDBRANCH  12  15
ENDBRANCH   8  11
ENDBRANCH   2   5
BRANCH   1  23
HETATM   23  C   UNL     1      43.525  -8.803   9.180  1.00  0.00     0.240 C 
BRANCH  23  24
HETATM   24  N   UNL     1      42.860  -9.271  10.378  1.00  0.00    -0.259 N 
HETATM   25  C   UNL     1      43.224 -10.387  11.061  1.00  0.00     0.326 C 
HETATM   26  N   UNL     1      42.597 -10.372  12.287  1.00  0.00    -0.324 N 
HETATM   27  O   UNL     1      43.985 -11.263  10.691  1.00  0.00    -0.247 OA
HETATM   28  C   UNL     1      42.037  -9.066  12.589  1.00  0.00     0.116 C 
HETATM   29  H   UNL     1      42.878 -11.050  12.986  1.00  0.00     0.165 HD
HETATM   30  C   UNL     1      43.029  -8.259  13.446  1.00  0.00     0.041 C 
HETATM   31  C   UNL     1      42.045  -8.488  11.154  1.00  0.00     0.256 C 
HETATM   32  C   UNL     1      40.657  -9.178  13.230  1.00  0.00     0.041 C 
HETATM   33  C   UNL     1      42.453  -6.918  13.900  1.00  0.00     0.007 C 
HETATM   34  C   UNL     1      41.109  -7.061  14.629  1.00  0.00    -0.015 C 
HETATM   35  C   UNL     1      40.115  -7.844  13.754  1.00  0.00     0.007 C 
HETATM   36  O   UNL     1      41.528  -7.438  10.803  1.00  0.00    -0.270 OA
BRANCH  34  37
HETATM   37  C   UNL     1      41.315  -7.665  16.033  1.00  0.00     0.000 C 
HETATM   38  C   UNL     1      42.057  -6.738  16.986  1.00  0.00     0.005 C 
ENDBRANCH  34  37
ENDBRANCH  23  24
ENDBRANCH   1  23
TORSDOF 7
ENDMDL
MODEL 4
REMARK VINA RESULT:      -9.3      2.126     11.068
REMARK  7 active torsions:
REMARK  status: ('A' for Active; 'I' for Inactive)
REMARK    1  A    between atoms: C_2  and  C_3 
REMARK    2  A    between atoms: N_10  and  C_11 
REMARK    3  A    between atoms: C_11  and  C_12 
REMARK       I    between atoms: C_12  and  N_13 
REMARK    4  A    between atoms: N_13  and  C_14 
REMARK    5  A    between atoms: C_17  and  C_18 
REMARK       I    between atoms: C_18  and  N_19 
REMARK    6  A    between atoms: N_19  and  C_20 
REMARK    7  A    between atoms: C_21  and  O_22 
ROOT
HETATM    1  C   UNL     1      42.162  -9.631   6.411  1.00  0.00     0.240 C 
HETATM    2  N   UNL     1      42.148 -10.897   6.960  1.00  0.00    -0.326 N 
HETATM    3  O   UNL     1      42.088  -9.372   5.209  1.00  0.00    -0.271 OA
HETATM    4  H   UNL     1      42.244 -10.961   7.966  1.00  0.00     0.169 HD
ENDROOT
BRANCH   2   5
HETATM    5  C   UNL     1      41.988 -12.119   6.260  1.00  0.00     0.034 A 
HETATM    6  C   UNL     1      40.754 -12.620   5.832  1.00  0.00     0.030 A 
HETATM    7  C   UNL     1      40.657 -13.858   5.182  1.00  0.00     0.019 A 
HETATM    8  C   UNL     1      41.805 -14.616   4.942  1.00  0.00     0.032 A 
HETATM    9  C   UNL     1      43.047 -14.119   5.359  1.00  0.00     0.019 A 
HETATM   10  C   UNL     1      43.137 -12.876   6.005  1.00  0.00     0.030 A 
BRANCH   8  11
HETATM   11  C   UNL     1      41.736 -15.979   4.337  1.00  0.00     0.256 C 
HETATM   12  N   UNL     1      42.903 -16.718   4.395  1.00  0.00    -0.321 N 
HETATM   13  H   UNL     1      43.655 -16.396   4.994  1.00  0.00     0.169 HD
HETATM   14  O   UNL     1      40.667 -16.343   3.858  1.00  0.00    -0.267 OA
BRANCH  12  15
HETATM   15  C   UNL     1      43.178 -17.954   3.762  1.00  0.00     0.068 A 
HETATM   16  C   UNL     1      43.755 -18.973   4.551  1.00  0.00     0.095 A 
HETATM   17  C   UNL     1      44.080 -20.203   3.968  1.00  0.00     0.039 A 
HETATM   18  C   UNL     1      43.834 -20.424   2.611  1.00  0.00     0.003 A 
HETATM   19  C   UNL     1      43.265 -19.420   1.834  1.00  0.00     0.002 A 
HETATM   20  C   UNL     1      42.938 -18.189   2.406  1.00  0.00     0.032 A 
BRANCH  16  21
HETATM   21  O   UNL     1      43.966 -18.655   5.875  1.00  0.00    -0.354 OA
HETATM   22  C   UNL     1      43.319 -19.477   6.840  1.00  0.00     0.210 C 
ENDBRANCH  16  21
ENDBRANCH  12  15
ENDBRANCH   8  11
ENDBRANCH   2   5
BRANCH   1  23
HETATM   23  C   UNL     1      42.356  -8.470   7.385  1.00  0.00     0.240 C 
BRANCH  23  24
HETATM   24  N   UNL     1      42.974  -8.712   8.672  1.00  0.00    -0.259 N 
HETATM   25  C   UNL     1      44.235  -8.321   8.994  1.00  0.00     0.326 C 
HETATM   26  N   UNL     1      44.392  -8.434  10.356  1.00  0.00    -0.324 N 
HETATM   27  O   UNL     1      45.098  -7.919   8.235  1.00  0.00    -0.247 OA
HETATM   28  C   UNL     1      43.117  -8.604  11.033  1.00  0.00     0.116 C 
HETATM   29  H   UNL     1      45.218  -8.036  10.787  1.00  0.00     0.165 HD
HETATM   30  C   UNL     1      42.603  -7.240  11.528  1.00  0.00     0.041 C 
HETATM   31  C   UNL     1      42.275  -9.030   9.807  1.00  0.00     0.256 C 
HETATM   32  C   UNL     1      43.203  -9.643  12.147  1.00  0.00     0.041 C 
HETATM   33  C   UNL     1      41.322  -7.362  12.353  1.00  0.00     0.007 C 
HETATM   34  C   UNL     1      41.459  -8.340  13.528  1.00  0.00    -0.015 C 
HETATM   35  C   UNL     1      41.946  -9.708  13.021  1.00  0.00     0.007 C 
HETATM   36  O   UNL     1      41.127  -9.449   9.838  1.00  0.00    -0.270 OA
BRANCH  34  37
HETATM   37  C   UNL     1      42.344  -7.735  14.638  1.00  0.00     0.000 C 
HETATM   38  C   UNL     1      41.770  -6.460  15.240  1.00  0.00     0.005 C 
ENDBRANCH  34  37
ENDBRANCH  23  24
ENDBRANCH   1  23
TORSDOF 7
ENDMDL
MODEL 5
REMARK VINA RESULT:      -9.2      1.147      1.698
REMARK  7 active torsions:
REMARK  status: ('A' for Active; 'I' for Inactive)
REMARK    1  A    between atoms: C_2  and  C_3 
REMARK    2  A    between atoms: N_10  and  C_11 
REMARK    3  A    between atoms: C_11  and  C_12 
REMARK       I    between atoms: C_12  and  N_13 
REMARK    4  A    between atoms: N_13  and  C_14 
REMARK    5  A    between atoms: C_17  and  C_18 
REMARK       I    between atoms: C_18  and  N_19 
REMARK    6  A    between atoms: N_19  and  C_20 
REMARK    7  A    between atoms: C_21  and  O_22 
ROOT
HETATM    1  C   UNL     1      41.871 -10.827   4.245  1.00  0.00     0.240 C 
HETATM    2  N   UNL     1      42.137 -11.467   5.438  1.00  0.00    -0.326 N 
HETATM    3  O   UNL     1      41.900  -9.609   4.065  1.00  0.00    -0.271 OA
HETATM    4  H   UNL     1      42.048 -12.475   5.447  1.00  0.00     0.169 HD
ENDROOT
BRANCH   2   5
HETATM    5  C   UNL     1      42.545 -10.857   6.650  1.00  0.00     0.034 A 
HETATM    6  C   UNL     1      43.757 -11.131   7.294  1.00  0.00     0.030 A 
HETATM    7  C   UNL     1      44.083 -10.526   8.516  1.00  0.00     0.019 A 
HETATM    8  C   UNL     1      43.199  -9.626   9.113  1.00  0.00     0.032 A 
HETATM    9  C   UNL     1      41.987  -9.338   8.471  1.00  0.00     0.019 A 
HETATM   10  C   UNL     1      41.668  -9.943   7.246  1.00  0.00     0.030 A 
BRANCH   8  11
HETATM   11  C   UNL     1      43.466  -9.031  10.456  1.00  0.00     0.256 C 
HETATM   12  N   UNL     1      42.362  -8.527  11.116  1.00  0.00    -0.321 N 
HETATM   13  H   UNL     1      41.438  -8.753  10.765  1.00  0.00     0.169 HD
HETATM   14  O   UNL     1      44.619  -9.049  10.874  1.00  0.00    -0.267 OA
BRANCH  12  15
HETATM   15  C   UNL     1      42.340  -7.764  12.309  1.00  0.00     0.068 A 
HETATM   16  C   UNL     1      42.125  -6.373  12.185  1.00  0.00     0.095 A 
HETATM   17  C   UNL     1      42.130  -5.565  13.327  1.00  0.00     0.039 A 
HETATM   18  C   UNL     1      42.344  -6.130  14.586  1.00  0.00     0.003 A 
HETATM   19  C   UNL     1      42.555  -7.500  14.709  1.00  0.00     0.002 A 
HETATM   20  C   UNL     1      42.553  -8.315  13.575  1.00  0.00     0.032 A 
BRANCH  16  21
HETATM   21  O   UNL     1      41.932  -5.912  10.901  1.00  0.00    -0.354 OA
HETATM   22  C   UNL     1      42.488  -4.638  10.590  1.00  0.00     0.210 C 
ENDBRANCH  16  21
ENDBRANCH  12  15
ENDBRANCH   8  11
ENDBRANCH   2   5
BRANCH   1  23
HETATM   23  C   UNL     1      41.439 -11.715   3.079  1.00  0.00     0.240 C 
BRANCH  23  24
HETATM   24  N   UNL     1      41.090 -13.098   3.324  1.00  0.00    -0.259 N 
HETATM   25  C   UNL     1      39.883 -13.641   3.020  1.00  0.00     0.326 C 
HETATM   26  N   UNL     1      39.989 -15.011   3.099  1.00  0.00    -0.324 N 
HETATM   27  O   UNL     1      38.865 -13.049   2.709  1.00  0.00    -0.247 OA
HETATM   28  C   UNL     1      41.375 -15.442   3.150  1.00  0.00     0.116 C 
HETATM   29  H   UNL     1      39.226 -15.581   2.752  1.00  0.00     0.165 HD
HETATM   30  C   UNL     1      41.860 -15.808   1.736  1.00  0.00     0.041 C 
HETATM   31  C   UNL     1      42.009 -14.089   3.551  1.00  0.00     0.256 C 
HETATM   32  C   UNL     1      41.580 -16.572   4.155  1.00  0.00     0.041 C 
HETATM   33  C   UNL     1      43.276 -16.383   1.733  1.00  0.00     0.007 C 
HETATM   34  C   UNL     1      43.437 -17.581   2.679  1.00  0.00    -0.015 C 
HETATM   35  C   UNL     1      42.977 -17.197   4.097  1.00  0.00     0.007 C 
HETATM   36  O   UNL     1      43.174 -13.914   3.880  1.00  0.00    -0.270 OA
BRANCH  34  37
HETATM   37  C   UNL     1      42.726 -18.824   2.107  1.00  0.00     0.000 C 
HETATM   38  C   UNL     1      43.587 -20.079   2.137  1.00  0.00     0.005 C 
ENDBRANCH  34  37
ENDBRANCH  23  24
ENDBRANCH   1  23
TORSDOF 7
ENDMDL
MODEL 6
REMARK VINA RESULT:      -9.1      2.265      3.764
REMARK  7 active torsions:
REMARK  status: ('A' for Active; 'I' for Inactive)
REMARK    1  A    between atoms: C_2  and  C_3 
REMARK    2  A    between atoms: N_10  and  C_11 
REMARK    3  A    between atoms: C_11  and  C_12 
REMARK       I    between atoms: C_12  and  N_13 
REMARK    4  A    between atoms: N_13  and  C_14 
REMARK    5  A    between atoms: C_17  and  C_18 
REMARK       I    between atoms: C_18  and  N_19 
REMARK    6  A    between atoms: N_19  and  C_20 
REMARK    7  A    between atoms: C_21  and  O_22 
ROOT
HETATM    1  C   UNL     1      44.855 -10.647   7.943  1.00  0.00     0.240 C 
HETATM    2  N   UNL     1      43.662 -10.286   8.536  1.00  0.00    -0.326 N 
HETATM    3  O   UNL     1      45.973 -10.501   8.440  1.00  0.00    -0.271 OA
HETATM    4  H   UNL     1      42.818 -10.441   7.998  1.00  0.00     0.169 HD
ENDROOT
BRANCH   2   5
HETATM    5  C   UNL     1      43.495  -9.740   9.833  1.00  0.00     0.034 A 
HETATM    6  C   UNL     1      43.424 -10.507  11.001  1.00  0.00     0.030 A 
HETATM    7  C   UNL     1      43.214  -9.909  12.251  1.00  0.00     0.019 A 
HETATM    8  C   UNL     1      43.076  -8.523  12.353  1.00  0.00     0.032 A 
HETATM    9  C   UNL     1      43.154  -7.746  11.190  1.00  0.00     0.019 A 
HETATM   10  C   UNL     1      43.370  -8.351   9.942  1.00  0.00     0.030 A 
BRANCH   8  11
HETATM   11  C   UNL     1      42.759  -7.856  13.650  1.00  0.00     0.256 C 
HETATM   12  N   UNL     1      41.534  -8.177  14.204  1.00  0.00    -0.321 N 
HETATM   13  H   UNL     1      41.020  -8.965  13.826  1.00  0.00     0.169 HD
HETATM   14  O   UNL     1      43.598  -7.100  14.129  1.00  0.00    -0.267 OA
BRANCH  12  15
HETATM   15  C   UNL     1      40.905  -7.577  15.321  1.00  0.00     0.068 A 
HETATM   16  C   UNL     1      39.841  -6.683  15.063  1.00  0.00     0.095 A 
HETATM   17  C   UNL     1      39.207  -6.034  16.127  1.00  0.00     0.039 A 
HETATM   18  C   UNL     1      39.620  -6.268  17.440  1.00  0.00     0.003 A 
HETATM   19  C   UNL     1      40.667  -7.149  17.695  1.00  0.00     0.002 A 
HETATM   20  C   UNL     1      41.308  -7.801  16.639  1.00  0.00     0.032 A 
BRANCH  16  21
HETATM   21  O   UNL     1      39.514  -6.513  13.735  1.00  0.00    -0.354 OA
HETATM   22  C   UNL     1      38.127  -6.516  13.414  1.00  0.00     0.210 C 
ENDBRANCH  16  21
ENDBRANCH  12  15
ENDBRANCH   8  11
ENDBRANCH   2   5
BRANCH   1  23
HETATM   23  C   UNL     1      44.767 -11.211   6.526  1.00  0.00     0.240 C 
BRANCH  23  24
HETATM   24  N   UNL     1      43.505 -11.727   6.039  1.00  0.00    -0.259 N 
HETATM   25  C   UNL     1      42.747 -11.111   5.095  1.00  0.00     0.326 C 
HETATM   26  N   UNL     1      41.792 -11.999   4.654  1.00  0.00    -0.324 N 
HETATM   27  O   UNL     1      42.872  -9.974   4.675  1.00  0.00    -0.247 OA
HETATM   28  C   UNL     1      42.090 -13.359   5.069  1.00  0.00     0.116 C 
HETATM   29  H   UNL     1      41.241 -11.758   3.839  1.00  0.00     0.165 HD
HETATM   30  C   UNL     1      42.835 -14.096   3.942  1.00  0.00     0.041 C 
HETATM   31  C   UNL     1      43.102 -13.028   6.191  1.00  0.00     0.256 C 
HETATM   32  C   UNL     1      40.837 -14.097   5.530  1.00  0.00     0.041 C 
HETATM   33  C   UNL     1      43.075 -15.570   4.266  1.00  0.00     0.007 C 
HETATM   34  C   UNL     1      41.787 -16.319   4.633  1.00  0.00    -0.015 C 
HETATM   35  C   UNL     1      41.063 -15.591   5.780  1.00  0.00     0.007 C 
HETATM   36  O   UNL     1      43.569 -13.825   6.991  1.00  0.00    -0.270 OA
BRANCH  34  37
HETATM   37  C   UNL     1      40.911 -16.540   3.383  1.00  0.00     0.000 C 
HETATM   38  C   UNL     1      41.705 -16.970   2.158  1.00  0.00     0.005 C 
ENDBRANCH  34  37
ENDBRANCH  23  24
ENDBRANCH   1  23
TORSDOF 7
ENDMDL
MODEL 7
REMARK VINA RESULT:      -8.9      1.858      2.650
REMARK  7 active torsions:
REMARK  status: ('A' for Active; 'I' for Inactive)
REMARK    1  A    between atoms: C_2  and  C_3 
REMARK    2  A    between atoms: N_10  and  C_11 
REMARK    3  A    between atoms: C_11  and  C_12 
REMARK       I    between atoms: C_12  and  N_13 
REMARK    4  A    between atoms: N_13  and  C_14 
REMARK    5  A    between atoms: C_17  and  C_18 
REMARK       I    between atoms: C_18  and  N_19 
REMARK    6  A    between atoms: N_19  and  C_20 
REMARK    7  A    between atoms: C_21  and  O_22 
ROOT
HETATM    1  C   UNL     1      40.121 -11.329   4.424  1.00  0.00     0.240 C 
HETATM    2  N   UNL     1      40.750 -10.169   4.827  1.00  0.00    -0.326 N 
HETATM    3  O   UNL     1      39.470 -12.079   5.153  1.00  0.00    -0.271 OA
HETATM    4  H   UNL     1      41.274  -9.664   4.122  1.00  0.00     0.169 HD
ENDROOT
BRANCH   2   5
HETATM    5  C   UNL     1      40.719  -9.597   6.122  1.00  0.00     0.034 A 
HETATM    6  C   UNL     1      39.756  -8.675   6.548  1.00  0.00     0.030 A 
HETATM    7  C   UNL     1      39.806  -8.112   7.830  1.00  0.00     0.019 A 
HETATM    8  C   UNL     1      40.823  -8.471   8.717  1.00  0.00     0.032 A 
HETATM    9  C   UNL     1      41.786  -9.401   8.303  1.00  0.00     0.019 A 
HETATM   10  C   UNL     1      41.728  -9.965   7.019  1.00  0.00     0.030 A 
BRANCH   8  11
HETATM   11  C   UNL     1      40.966  -7.827  10.056  1.00  0.00     0.256 C 
HETATM   12  N   UNL     1      41.758  -8.505  10.963  1.00  0.00    -0.321 N 
HETATM   13  H   UNL     1      42.339  -9.266  10.630  1.00  0.00     0.169 HD
HETATM   14  O   UNL     1      40.396  -6.757  10.244  1.00  0.00    -0.267 OA
BRANCH  12  15
HETATM   15  C   UNL     1      41.931  -8.225  12.340  1.00  0.00     0.068 A 
HETATM   16  C   UNL     1      40.917  -8.660  13.223  1.00  0.00     0.095 A 
HETATM   17  C   UNL     1      41.018  -8.378  14.589  1.00  0.00     0.039 A 
HETATM   18  C   UNL     1      42.118  -7.673  15.081  1.00  0.00     0.003 A 
HETATM   19  C   UNL     1      43.117  -7.245  14.213  1.00  0.00     0.002 A 
HETATM   20  C   UNL     1      43.025  -7.519  12.847  1.00  0.00     0.032 A 
BRANCH  16  21
HETATM   21  O   UNL     1      39.871  -9.341  12.639  1.00  0.00    -0.354 OA
HETATM   22  C   UNL     1      39.667 -10.684  13.064  1.00  0.00     0.210 C 
ENDBRANCH  16  21
ENDBRANCH  12  15
ENDBRANCH   8  11
ENDBRANCH   2   5
BRANCH   1  23
HETATM   23  C   UNL     1      40.315 -11.738   2.965  1.00  0.00     0.240 C 
BRANCH  23  24
HETATM   24  N   UNL     1      41.434 -12.583   2.603  1.00  0.00    -0.259 N 
HETATM   25  C   UNL     1      42.735 -12.211   2.719  1.00  0.00     0.326 C 
HETATM   26  N   UNL     1      43.523 -13.331   2.581  1.00  0.00    -0.324 N 
HETATM   27  O   UNL     1      43.166 -11.091   2.927  1.00  0.00    -0.247 OA
HETATM   28  C   UNL     1      42.744 -14.553   2.687  1.00  0.00     0.116 C 
HETATM   29  H   UNL     1      44.511 -13.262   2.796  1.00  0.00     0.165 HD
HETATM   30  C   UNL     1      42.801 -15.084   4.130  1.00  0.00     0.041 C 
HETATM   31  C   UNL     1      41.344 -13.941   2.444  1.00  0.00     0.256 C 
HETATM   32  C   UNL     1      43.180 -15.592   1.658  1.00  0.00     0.041 C 
HETATM   33  C   UNL     1      42.100 -16.433   4.285  1.00  0.00     0.007 C 
HETATM   34  C   UNL     1      42.621 -17.494   3.305  1.00  0.00    -0.015 C 
HETATM   35  C   UNL     1      42.534 -16.965   1.862  1.00  0.00     0.007 C 
HETATM   36  O   UNL     1      40.308 -14.569   2.278  1.00  0.00    -0.270 OA
BRANCH  34  37
HETATM   37  C   UNL     1      44.032 -17.965   3.713  1.00  0.00     0.000 C 
HETATM   38  C   UNL     1      44.082 -18.588   5.101  1.00  0.00     0.005 C 
ENDBRANCH  34  37
ENDBRANCH  23  24
ENDBRANCH   1  23
TORSDOF 7
ENDMDL
MODEL 8
REMARK VINA RESULT:      -8.8      2.387      3.221
REMARK  7 active torsions:
REMARK  status: ('A' for Active; 'I' for Inactive)
REMARK    1  A    between atoms: C_2  and  C_3 
REMARK    2  A    between atoms: N_10  and  C_11 
REMARK    3  A    between atoms: C_11  and  C_12 
REMARK       I    between atoms: C_12  and  N_13 
REMARK    4  A    between atoms: N_13  and  C_14 
REMARK    5  A    between atoms: C_17  and  C_18 
REMARK       I    between atoms: C_18  and  N_19 
REMARK    6  A    between atoms: N_19  and  C_20 
REMARK    7  A    between atoms: C_21  and  O_22 
ROOT
HETATM    1  C   UNL     1      41.470  -9.971   7.251  1.00  0.00     0.240 C 
HETATM    2  N   UNL     1      42.436 -10.161   8.218  1.00  0.00    -0.326 N 
HETATM    3  O   UNL     1      40.469  -9.262   7.369  1.00  0.00    -0.271 OA
HETATM    4  H   UNL     1      43.192 -10.795   7.992  1.00  0.00     0.169 HD
ENDROOT
BRANCH   2   5
HETATM    5  C   UNL     1      42.491  -9.539   9.490  1.00  0.00     0.034 A 
HETATM    6  C   UNL     1      43.678  -9.161  10.126  1.00  0.00     0.030 A 
HETATM    7  C   UNL     1      43.668  -8.589  11.405  1.00  0.00     0.019 A 
HETATM    8  C   UNL     1      42.458  -8.376  12.070  1.00  0.00     0.032 A 
HETATM    9  C   UNL     1      41.263  -8.742  11.437  1.00  0.00     0.019 A 
HETATM   10  C   UNL     1      41.280  -9.310  10.154  1.00  0.00     0.030 A 
BRANCH   8  11
HETATM   11  C   UNL     1      42.408  -7.855  13.468  1.00  0.00     0.256 C 
HETATM   12  N   UNL     1      41.209  -8.038  14.131  1.00  0.00    -0.321 N 
HETATM   13  H   UNL     1      40.520  -8.664  13.729  1.00  0.00     0.169 HD
HETATM   14  O   UNL     1      43.419  -7.330  13.923  1.00  0.00    -0.267 OA
BRANCH  12  15
HETATM   15  C   UNL     1      40.822  -7.504  15.384  1.00  0.00     0.068 A 
HETATM   16  C   UNL     1      39.838  -6.490  15.380  1.00  0.00     0.095 A 
HETATM   17  C   UNL     1      39.444  -5.901  16.586  1.00  0.00     0.039 A 
HETATM   18  C   UNL     1      40.019  -6.313  17.790  1.00  0.00     0.003 A 
HETATM   19  C   UNL     1      40.988  -7.312  17.794  1.00  0.00     0.002 A 
HETATM   20  C   UNL     1      41.389  -7.906  16.596  1.00  0.00     0.032 A 
BRANCH  16  21
HETATM   21  O   UNL     1      39.339  -6.148  14.142  1.00  0.00    -0.354 OA
HETATM   22  C   UNL     1      39.632  -4.835  13.676  1.00  0.00     0.210 C 
ENDBRANCH  16  21
ENDBRANCH  12  15
ENDBRANCH   8  11
ENDBRANCH   2   5
BRANCH   1  23
HETATM   23  C   UNL     1      41.635 -10.769   5.959  1.00  0.00     0.240 C 
BRANCH  23  24
HETATM   24  N   UNL     1      41.336 -12.186   5.950  1.00  0.00    -0.259 N 
HETATM   25  C   UNL     1      40.078 -12.695   5.917  1.00  0.00     0.326 C 
HETATM   26  N   UNL     1      40.157 -14.036   5.616  1.00  0.00    -0.324 N 
HETATM   27  O   UNL     1      39.034 -12.095   6.101  1.00  0.00    -0.247 OA
HETATM   28  C   UNL     1      41.473 -14.398   5.117  1.00  0.00     0.116 C 
HETATM   29  H   UNL     1      39.305 -14.538   5.396  1.00  0.00     0.165 HD
HETATM   30  C   UNL     1      41.471 -14.381   3.578  1.00  0.00     0.041 C 
HETATM   31  C   UNL     1      42.246 -13.156   5.621  1.00  0.00     0.256 C 
HETATM   32  C   UNL     1      41.949 -15.729   5.692  1.00  0.00     0.041 C 
HETATM   33  C   UNL     1      42.793 -14.868   2.986  1.00  0.00     0.007 C 
HETATM   34  C   UNL     1      43.205 -16.253   3.503  1.00  0.00    -0.015 C 
HETATM   35  C   UNL     1      43.233 -16.253   5.042  1.00  0.00     0.007 C 
HETATM   36  O   UNL     1      43.460 -13.012   5.598  1.00  0.00    -0.270 OA
BRANCH  34  37
HETATM   37  C   UNL     1      42.308 -17.350   2.895  1.00  0.00     0.000 C 
HETATM   38  C   UNL     1      43.093 -18.511   2.302  1.00  0.00     0.005 C 
ENDBRANCH  34  37
ENDBRANCH  23  24
ENDBRANCH   1  23
TORSDOF 7
ENDMDL
MODEL 9
REMARK VINA RESULT:      -8.8     18.708     21.007
REMARK  7 active torsions:
REMARK  status: ('A' for Active; 'I' for Inactive)
REMARK    1  A    between atoms: C_2  and  C_3 
REMARK    2  A    between atoms: N_10  and  C_11 
REMARK    3  A    between atoms: C_11  and  C_12 
REMARK       I    between atoms: C_12  and  N_13 
REMARK    4  A    between atoms: N_13  and  C_14 
REMARK    5  A    between atoms: C_17  and  C_18 
REMARK       I    between atoms: C_18  and  N_19 
REMARK    6  A    between atoms: N_19  and  C_20 
REMARK    7  A    between atoms: C_21  and  O_22 
ROOT
HETATM    1  C   UNL     1      44.771 -29.569   1.453  1.00  0.00     0.240 C 
HETATM    2  N   UNL     1      43.482 -29.209   1.790  1.00  0.00    -0.326 N 
HETATM    3  O   UNL     1      45.272 -30.680   1.630  1.00  0.00    -0.271 OA
HETATM    4  H   UNL     1      43.212 -28.250   1.611  1.00  0.00     0.169 HD
ENDROOT
BRANCH   2   5
HETATM    5  C   UNL     1      42.486 -30.053   2.341  1.00  0.00     0.034 A 
HETATM    6  C   UNL     1      42.022 -29.960   3.658  1.00  0.00     0.030 A 
HETATM    7  C   UNL     1      41.065 -30.855   4.157  1.00  0.00     0.019 A 
HETATM    8  C   UNL     1      40.549 -31.860   3.337  1.00  0.00     0.032 A 
HETATM    9  C   UNL     1      41.001 -31.956   2.014  1.00  0.00     0.019 A 
HETATM   10  C   UNL     1      41.955 -31.054   1.520  1.00  0.00     0.030 A 
BRANCH   8  11
HETATM   11  C   UNL     1      39.599 -32.889   3.854  1.00  0.00     0.256 C 
HETATM   12  N   UNL     1      38.813 -32.494   4.920  1.00  0.00    -0.321 N 
HETATM   13  H   UNL     1      38.776 -31.510   5.160  1.00  0.00     0.169 HD
HETATM   14  O   UNL     1      39.574 -33.982   3.297  1.00  0.00    -0.267 OA
BRANCH  12  15
HETATM   15  C   UNL     1      37.960 -33.300   5.713  1.00  0.00     0.068 A 
HETATM   16  C   UNL     1      36.689 -33.615   5.183  1.00  0.00     0.095 A 
HETATM   17  C   UNL     1      35.792 -34.378   5.938  1.00  0.00     0.039 A 
HETATM   18  C   UNL     1      36.151 -34.830   7.209  1.00  0.00     0.003 A 
HETATM   19  C   UNL     1      37.403 -34.521   7.731  1.00  0.00     0.002 A 
HETATM   20  C   UNL     1      38.305 -33.758   6.987  1.00  0.00     0.032 A 
BRANCH  16  21
HETATM   21  O   UNL     1      36.427 -33.116   3.925  1.00  0.00    -0.354 OA
HETATM   22  C   UNL     1      35.681 -33.954   3.049  1.00  0.00     0.210 C 
ENDBRANCH  16  21
ENDBRANCH  12  15
ENDBRANCH   8  11
ENDBRANCH   2   5
BRANCH   1  23
HETATM   23  C   UNL     1      45.656 -28.465   0.877  1.00  0.00     0.240 C 
BRANCH  23  24
HETATM   24  N   UNL     1      45.831 -28.364  -0.556  1.00  0.00    -0.259 N 
HETATM   25  C   UNL     1      47.020 -28.107  -1.160  1.00  0.00     0.326 C 
HETATM   26  N   UNL     1      46.895 -28.376  -2.504  1.00  0.00    -0.324 N 
HETATM   27  O   UNL     1      48.047 -27.719  -0.631  1.00  0.00    -0.247 OA
HETATM   28  C   UNL     1      45.691 -29.137  -2.790  1.00  0.00     0.116 C 
HETATM   29  H   UNL     1      47.729 -28.389  -3.079  1.00  0.00     0.165 HD
HETATM   30  C   UNL     1      46.024 -30.639  -2.848  1.00  0.00     0.041 C 
HETATM   31  C   UNL     1      44.934 -28.853  -1.471  1.00  0.00     0.256 C 
HETATM   32  C   UNL     1      44.993 -28.638  -4.052  1.00  0.00     0.041 C 
HETATM   33  C   UNL     1      44.824 -31.489  -3.263  1.00  0.00     0.007 C 
HETATM   34  C   UNL     1      44.195 -31.030  -4.586  1.00  0.00    -0.015 C 
HETATM   35  C   UNL     1      43.839 -29.535  -4.509  1.00  0.00     0.007 C 
HETATM   36  O   UNL     1      43.770 -29.143  -1.237  1.00  0.00    -0.270 OA
BRANCH  34  37
HETATM   37  C   UNL     1      45.106 -31.394  -5.776  1.00  0.00     0.000 C 
HETATM   38  C   UNL     1      44.390 -31.357  -7.119  1.00  0.00     0.005 C 
ENDBRANCH  34  37
ENDBRANCH  23  24
ENDBRANCH   1  23
TORSDOF 7
ENDMDL
MODEL 10
REMARK VINA RESULT:      -8.6      3.015     11.732
REMARK  7 active torsions:
REMARK  status: ('A' for Active; 'I' for Inactive)
REMARK    1  A    between atoms: C_2  and  C_3 
REMARK    2  A    between atoms: N_10  and  C_11 
REMARK    3  A    between atoms: C_11  and  C_12 
REMARK       I    between atoms: C_12  and  N_13 
REMARK    4  A    between atoms: N_13  and  C_14 
REMARK    5  A    between atoms: C_17  and  C_18 
REMARK       I    between atoms: C_18  and  N_19 
REMARK    6  A    between atoms: N_19  and  C_20 
REMARK    7  A    between atoms: C_21  and  O_22 
ROOT
HETATM    1  C   UNL     1      42.683  -9.298   7.160  1.00  0.00     0.240 C 
HETATM    2  N   UNL     1      42.892 -10.563   6.650  1.00  0.00    -0.326 N 
HETATM    3  O   UNL     1      41.943  -8.443   6.671  1.00  0.00    -0.271 OA
HETATM    4  H   UNL     1      43.550 -11.153   7.144  1.00  0.00     0.169 HD
ENDROOT
BRANCH   2   5
HETATM    5  C   UNL     1      42.259 -11.131   5.517  1.00  0.00     0.034 A 
HETATM    6  C   UNL     1      42.712 -10.968   4.204  1.00  0.00     0.030 A 
HETATM    7  C   UNL     1      42.015 -11.520   3.120  1.00  0.00     0.019 A 
HETATM    8  C   UNL     1      40.850 -12.258   3.337  1.00  0.00     0.032 A 
HETATM    9  C   UNL     1      40.393 -12.435   4.650  1.00  0.00     0.019 A 
HETATM   10  C   UNL     1      41.098 -11.883   5.730  1.00  0.00     0.030 A 
BRANCH   8  11
HETATM   11  C   UNL     1      40.028 -12.784   2.207  1.00  0.00     0.256 C 
HETATM   12  N   UNL     1      40.680 -12.890   0.993  1.00  0.00    -0.321 N 
HETATM   13  H   UNL     1      41.690 -12.801   0.972  1.00  0.00     0.169 HD
HETATM   14  O   UNL     1      38.864 -13.095   2.438  1.00  0.00    -0.267 OA
BRANCH  12  15
HETATM   15  C   UNL     1      40.115 -13.191  -0.270  1.00  0.00     0.068 A 
HETATM   16  C   UNL     1      39.886 -12.110  -1.151  1.00  0.00     0.095 A 
HETATM   17  C   UNL     1      39.297 -12.345  -2.398  1.00  0.00     0.039 A 
HETATM   18  C   UNL     1      38.937 -13.641  -2.772  1.00  0.00     0.003 A 
HETATM   19  C   UNL     1      39.163 -14.706  -1.905  1.00  0.00     0.002 A 
HETATM   20  C   UNL     1      39.749 -14.482  -0.658  1.00  0.00     0.032 A 
BRANCH  16  21
HETATM   21  O   UNL     1      40.268 -10.871  -0.687  1.00  0.00    -0.354 OA
HETATM   22  C   UNL     1      41.435 -10.302  -1.271  1.00  0.00     0.210 C 
ENDBRANCH  16  21
ENDBRANCH  12  15
ENDBRANCH   8  11
ENDBRANCH   2   5
BRANCH   1  23
HETATM   23  C   UNL     1      43.498  -8.920   8.396  1.00  0.00     0.240 C 
BRANCH  23  24
HETATM   24  N   UNL     1      43.163  -9.501   9.679  1.00  0.00    -0.259 N 
HETATM   25  C   UNL     1      43.969 -10.358  10.358  1.00  0.00     0.326 C 
HETATM   26  N   UNL     1      43.496 -10.474  11.645  1.00  0.00    -0.324 N 
HETATM   27  O   UNL     1      44.958 -10.930   9.937  1.00  0.00    -0.247 OA
HETATM   28  C   UNL     1      42.530  -9.435  11.960  1.00  0.00     0.116 C 
HETATM   29  H   UNL     1      44.067 -10.950  12.334  1.00  0.00     0.165 HD
HETATM   30  C   UNL     1      43.235  -8.263  12.666  1.00  0.00     0.041 C 
HETATM   31  C   UNL     1      42.195  -9.004  10.512  1.00  0.00     0.256 C 
HETATM   32  C   UNL     1      41.351  -9.982  12.758  1.00  0.00     0.041 C 
HETATM   33  C   UNL     1      42.256  -7.186  13.132  1.00  0.00     0.007 C 
HETATM   34  C   UNL     1      41.130  -7.742  14.014  1.00  0.00    -0.015 C 
HETATM   35  C   UNL     1      40.413  -8.894  13.289  1.00  0.00     0.007 C 
HETATM   36  O   UNL     1      41.301  -8.238  10.183  1.00  0.00    -0.270 OA
BRANCH  34  37
HETATM   37  C   UNL     1      41.670  -8.123  15.408  1.00  0.00     0.000 C 
HETATM   38  C   UNL     1      41.983  -6.919  16.285  1.00  0.00     0.005 C 
ENDBRANCH  34  37
ENDBRANCH  23  24
ENDBRANCH   1  23
TORSDOF 7
ENDMDL
