MODEL 1
REMARK VINA RESULT:      -9.9      0.000      0.000
REMARK  6 active torsions:
REMARK  status: ('A' for Active; 'I' for Inactive)
REMARK    1  A    between atoms: C_5  and  N_6 
REMARK    2  A    between atoms: C_8  and  C_9 
REMARK    3  A    between atoms: C_16  and  C_17 
REMARK    4  A    between atoms: C_17  and  N_18 
REMARK    5  A    between atoms: C_22  and  N_23 
REMARK    6  A    between atoms: C_26  and  O_27 
ROOT
HETATM    1  N   UNL     1      43.465 -13.004   5.892  1.00  0.00    -0.244 N 
HETATM    2  N   UNL     1      43.885 -14.280   5.759  1.00  0.00    -0.167 NA
HETATM    3  C   UNL     1      43.103 -14.845   4.837  1.00  0.00     0.097 A 
HETATM    4  C   UNL     1      42.053 -13.967   4.455  1.00  0.00     0.016 A 
HETATM    5  C   UNL     1      42.348 -12.784   5.109  1.00  0.00     0.130 A 
ENDROOT
BRANCH   4   6
HETATM    6  C   UNL     1      40.906 -14.232   3.556  1.00  0.00     0.277 C 
BRANCH   6   7
HETATM    7  N   UNL     1      40.539 -13.060   2.617  1.00  0.00    -0.067 N 
HETATM    8  H   UNL     1      40.895 -12.228   3.119  1.00  0.00     0.280 HD
HETATM    9  C   UNL     1      41.265 -13.138   1.301  1.00  0.00     0.237 C 
HETATM   10  C   UNL     1      40.835 -12.013   0.385  1.00  0.00     0.061 C 
HETATM   11  C   UNL     1      39.329 -11.963   0.133  1.00  0.00     0.191 C 
HETATM   12  C   UNL     1      38.583 -11.930   1.471  1.00  0.00     0.061 C 
HETATM   13  C   UNL     1      39.041 -12.951   2.513  1.00  0.00     0.237 C 
BRANCH  11  14
HETATM   14  N   UNL     1      38.787 -12.996  -0.881  1.00  0.00    -0.064 N 
HETATM   15  H   UNL     1      38.206 -13.626  -0.301  1.00  0.00     0.280 HD
HETATM   16  C   UNL     1      37.774 -12.395  -1.864  1.00  0.00     0.266 C 
HETATM   17  C   UNL     1      37.054 -13.456  -2.709  1.00  0.00     0.144 C 
HETATM   18  C   UNL     1      38.050 -14.387  -3.386  1.00  0.00     0.035 C 
HETATM   19  C   UNL     1      38.997 -14.997  -2.368  1.00  0.00     0.030 C 
HETATM   20  C   UNL     1      39.749 -13.930  -1.582  1.00  0.00     0.235 C 
BRANCH  17  21
HETATM   21  O   UNL     1      36.306 -12.776  -3.706  1.00  0.00    -0.394 OA
HETATM   22  H   UNL     1      36.627 -11.856  -3.781  1.00  0.00     0.210 HD
ENDBRANCH  17  21
ENDBRANCH  11  14
ENDBRANCH   6   7
ENDBRANCH   4   6
BRANCH   3  23
HETATM   23  C   UNL     1      43.352 -16.210   4.387  1.00  0.00    -0.005 A 
HETATM   24  C   UNL     1      43.196 -16.544   3.034  1.00  0.00     0.017 A 
HETATM   25  C   UNL     1      43.444 -17.848   2.601  1.00  0.00     0.043 A 
HETATM   26  C   UNL     1      43.839 -18.813   3.520  1.00  0.00     0.116 A 
HETATM   27  F   UNL     1      44.084 -20.061   3.103  1.00  0.00    -0.206 F 
HETATM   28  C   UNL     1      43.975 -18.506   4.868  1.00  0.00     0.043 A 
HETATM   29  C   UNL     1      43.725 -17.203   5.307  1.00  0.00     0.017 A 
ENDBRANCH   3  23
BRANCH   1  30
HETATM   30  C   UNL     1      44.102 -12.097   6.781  1.00  0.00     0.058 A 
HETATM   31  C   UNL     1      43.397 -11.612   7.890  1.00  0.00     0.032 A 
HETATM   32  C   UNL     1      44.001 -10.709   8.772  1.00  0.00     0.009 A 
HETATM   33  C   UNL     1      45.310 -10.272   8.554  1.00  0.00    -0.062 A 
HETATM   34  C   UNL     1      45.975  -9.318   9.505  1.00  0.00     0.048 C 
HETATM   35  C   UNL     1      46.017 -10.765   7.451  1.00  0.00     0.009 A 
HETATM   36  C   UNL     1      45.421 -11.671   6.566  1.00  0.00     0.032 A 
ENDBRANCH   1  30
TORSDOF 6
ENDMDL
MODEL 2
REMARK VINA RESULT:      -9.7      1.472      1.935
REMARK  6 active torsions:
REMARK  status: ('A' for Active; 'I' for Inactive)
REMARK    1  A    between atoms: C_5  and  N_6 
REMARK    2  A    between atoms: C_8  and  C_9 
REMARK    3  A    between atoms: C_16  and  C_17 
REMARK    4  A    between atoms: C_17  and  N_18 
REMARK    5  A    between atoms: C_22  and  N_23 
REMARK    6  A    between atoms: C_26  and  O_27 
ROOT
HETATM    1  N   UNL     1      43.045 -12.254   5.840  1.00  0.00    -0.244 N 
HETATM    2  N   UNL     1      43.441 -13.489   5.464  1.00  0.00    -0.167 NA
HETATM    3  C   UNL     1      42.613 -13.876   4.493  1.00  0.00     0.097 A 
HETATM    4  C   UNL     1      41.560 -12.937   4.319  1.00  0.00     0.016 A 
HETATM    5  C   UNL     1      41.899 -11.891   5.158  1.00  0.00     0.130 A 
ENDROOT
BRANCH   4   6
HETATM    6  C   UNL     1      40.373 -13.031   3.438  1.00  0.00     0.277 C 
BRANCH   6   7
HETATM    7  N   UNL     1      40.155 -11.808   2.518  1.00  0.00    -0.067 N 
HETATM    8  H   UNL     1      40.325 -11.002   3.144  1.00  0.00     0.280 HD
HETATM    9  C   UNL     1      41.172 -11.743   1.410  1.00  0.00     0.237 C 
HETATM   10  C   UNL     1      40.891 -10.572   0.494  1.00  0.00     0.061 C 
HETATM   11  C   UNL     1      39.485 -10.580  -0.106  1.00  0.00     0.191 C 
HETATM   12  C   UNL     1      38.447 -10.693   1.016  1.00  0.00     0.061 C 
HETATM   13  C   UNL     1      38.718 -11.769   2.067  1.00  0.00     0.237 C 
BRANCH  11  14
HETATM   14  N   UNL     1      39.268 -11.556  -1.285  1.00  0.00    -0.064 N 
HETATM   15  H   UNL     1      38.970 -10.939  -2.060  1.00  0.00     0.280 HD
HETATM   16  C   UNL     1      40.577 -12.164  -1.805  1.00  0.00     0.266 C 
HETATM   17  C   UNL     1      40.399 -12.937  -3.121  1.00  0.00     0.144 C 
HETATM   18  C   UNL     1      39.278 -13.961  -3.008  1.00  0.00     0.035 C 
HETATM   19  C   UNL     1      37.992 -13.303  -2.540  1.00  0.00     0.030 C 
HETATM   20  C   UNL     1      38.171 -12.594  -1.203  1.00  0.00     0.235 C 
BRANCH  17  21
HETATM   21  O   UNL     1      41.617 -13.614  -3.390  1.00  0.00    -0.394 OA
HETATM   22  H   UNL     1      41.970 -13.315  -4.251  1.00  0.00     0.210 HD
ENDBRANCH  17  21
ENDBRANCH  11  14
ENDBRANCH   6   7
ENDBRANCH   4   6
BRANCH   3  23
HETATM   23  C   UNL     1      42.824 -15.141   3.797  1.00  0.00    -0.005 A 
HETATM   24  C   UNL     1      42.854 -16.344   4.517  1.00  0.00     0.017 A 
HETATM   25  C   UNL     1      43.045 -17.556   3.852  1.00  0.00     0.043 A 
HETATM   26  C   UNL     1      43.214 -17.561   2.472  1.00  0.00     0.116 A 
HETATM   27  F   UNL     1      43.390 -18.723   1.832  1.00  0.00    -0.206 F 
HETATM   28  C   UNL     1      43.212 -16.377   1.745  1.00  0.00     0.043 A 
HETATM   29  C   UNL     1      43.023 -15.161   2.408  1.00  0.00     0.017 A 
ENDBRANCH   3  23
BRANCH   1  30
HETATM   30  C   UNL     1      43.732 -11.523   6.846  1.00  0.00     0.058 A 
HETATM   31  C   UNL     1      43.007 -10.686   7.704  1.00  0.00     0.032 A 
HETATM   32  C   UNL     1      43.664  -9.948   8.694  1.00  0.00     0.009 A 
HETATM   33  C   UNL     1      45.053 -10.030   8.836  1.00  0.00    -0.062 A 
HETATM   34  C   UNL     1      45.766  -9.257   9.908  1.00  0.00     0.048 C 
HETATM   35  C   UNL     1      45.774 -10.874   7.985  1.00  0.00     0.009 A 
HETATM   36  C   UNL     1      45.124 -11.618   6.994  1.00  0.00     0.032 A 
ENDBRANCH   1  30
TORSDOF 6
ENDMDL
MODEL 3
REMARK VINA RESULT:      -9.6      2.692      5.991
REMARK  6 active torsions:
REMARK  status: ('A' for Active; 'I' for Inactive)
REMARK    1  A    between atoms: C_5  and  N_6 
REMARK    2  A    between atoms: C_8  and  C_9 
REMARK    3  A    between atoms: C_16  and  C_17 
REMARK    4  A    between atoms: C_17  and  N_18 
REMARK    5  A    between atoms: C_22  and  N_23 
REMARK    6  A    between atoms: C_26  and  O_27 
ROOT
HETATM    1  N   UNL     1      42.272 -15.319   4.071  1.00  0.00    -0.244 N 
HETATM    2  N   UNL     1      43.074 -14.528   4.816  1.00  0.00    -0.167 NA
HETATM    3  C   UNL     1      42.376 -13.423   5.085  1.00  0.00     0.097 A 
HETATM    4  C   UNL     1      41.138 -13.421   4.385  1.00  0.00     0.016 A 
HETATM    5  C   UNL     1      41.085 -14.670   3.792  1.00  0.00     0.130 A 
ENDROOT
BRANCH   4   6
HETATM    6  C   UNL     1      40.121 -12.347   4.306  1.00  0.00     0.277 C 
BRANCH   6   7
HETATM    7  N   UNL     1      40.370 -11.304   3.193  1.00  0.00    -0.067 N 
HETATM    8  H   UNL     1      40.712 -10.476   3.710  1.00  0.00     0.280 HD
HETATM    9  C   UNL     1      41.462 -11.731   2.249  1.00  0.00     0.237 C 
HETATM   10  C   UNL     1      41.635 -10.719   1.138  1.00  0.00     0.061 C 
HETATM   11  C   UNL     1      40.356 -10.446   0.346  1.00  0.00     0.191 C 
HETATM   12  C   UNL     1      39.228 -10.056   1.307  1.00  0.00     0.061 C 
HETATM   13  C   UNL     1      39.062 -10.951   2.535  1.00  0.00     0.237 C 
BRANCH  11  14
HETATM   14  N   UNL     1      39.973 -11.524  -0.694  1.00  0.00    -0.064 N 
HETATM   15  H   UNL     1      39.296 -11.040  -1.309  1.00  0.00     0.280 HD
HETATM   16  C   UNL     1      41.124 -11.871  -1.647  1.00  0.00     0.266 C 
HETATM   17  C   UNL     1      40.684 -12.751  -2.826  1.00  0.00     0.144 C 
HETATM   18  C   UNL     1      39.931 -13.983  -2.339  1.00  0.00     0.035 C 
HETATM   19  C   UNL     1      38.771 -13.586  -1.442  1.00  0.00     0.030 C 
HETATM   20  C   UNL     1      39.234 -12.766  -0.245  1.00  0.00     0.235 C 
BRANCH  17  21
HETATM   21  O   UNL     1      41.854 -13.168  -3.512  1.00  0.00    -0.394 OA
HETATM   22  H   UNL     1      42.642 -12.894  -3.003  1.00  0.00     0.210 HD
ENDBRANCH  17  21
ENDBRANCH  11  14
ENDBRANCH   6   7
ENDBRANCH   4   6
BRANCH   3  23
HETATM   23  C   UNL     1      42.925 -12.391   5.957  1.00  0.00    -0.005 A 
HETATM   24  C   UNL     1      44.209 -12.539   6.500  1.00  0.00     0.017 A 
HETATM   25  C   UNL     1      44.740 -11.547   7.327  1.00  0.00     0.043 A 
HETATM   26  C   UNL     1      43.984 -10.416   7.615  1.00  0.00     0.116 A 
HETATM   27  F   UNL     1      44.496  -9.462   8.401  1.00  0.00    -0.206 F 
HETATM   28  C   UNL     1      42.700 -10.265   7.105  1.00  0.00     0.043 A 
HETATM   29  C   UNL     1      42.164 -11.256   6.280  1.00  0.00     0.017 A 
ENDBRANCH   3  23
BRANCH   1  30
HETATM   30  C   UNL     1      42.693 -16.601   3.628  1.00  0.00     0.058 A 
HETATM   31  C   UNL     1      43.649 -17.306   4.369  1.00  0.00     0.032 A 
HETATM   32  C   UNL     1      44.086 -18.565   3.944  1.00  0.00     0.009 A 
HETATM   33  C   UNL     1      43.582 -19.133   2.771  1.00  0.00    -0.062 A 
HETATM   34  C   UNL     1      44.030 -20.492   2.316  1.00  0.00     0.048 C 
HETATM   35  C   UNL     1      42.619 -18.432   2.036  1.00  0.00     0.009 A 
HETATM   36  C   UNL     1      42.175 -17.174   2.456  1.00  0.00     0.032 A 
ENDBRANCH   1  30
TORSDOF 6
ENDMDL
MODEL 4
REMARK VINA RESULT:      -9.6      2.767      6.007
REMARK  6 active torsions:
REMARK  status: ('A' for Active; 'I' for Inactive)
REMARK    1  A    between atoms: C_5  and  N_6 
REMARK    2  A    between atoms: C_8  and  C_9 
REMARK    3  A    between atoms: C_16  and  C_17 
REMARK    4  A    between atoms: C_17  and  N_18 
REMARK    5  A    between atoms: C_22  and  N_23 
REMARK    6  A    between atoms: C_26  and  O_27 
ROOT
HETATM    1  N   UNL     1      42.815 -14.960   4.626  1.00  0.00    -0.244 N 
HETATM    2  N   UNL     1      43.792 -14.291   5.276  1.00  0.00    -0.167 NA
HETATM    3  C   UNL     1      43.252 -13.150   5.708  1.00  0.00     0.097 A 
HETATM    4  C   UNL     1      41.929 -12.995   5.212  1.00  0.00     0.016 A 
HETATM    5  C   UNL     1      41.667 -14.193   4.571  1.00  0.00     0.130 A 
ENDROOT
BRANCH   4   6
HETATM    6  C   UNL     1      41.019 -11.834   5.350  1.00  0.00     0.277 C 
BRANCH   6   7
HETATM    7  N   UNL     1      40.803 -11.027   4.049  1.00  0.00    -0.067 N 
HETATM    8  H   UNL     1      40.810 -10.044   4.371  1.00  0.00     0.280 HD
HETATM    9  C   UNL     1      41.944 -11.194   3.082  1.00  0.00     0.237 C 
HETATM   10  C   UNL     1      41.670 -10.443   1.797  1.00  0.00     0.061 C 
HETATM   11  C   UNL     1      40.362 -10.841   1.115  1.00  0.00     0.191 C 
HETATM   12  C   UNL     1      39.203 -10.718   2.110  1.00  0.00     0.061 C 
HETATM   13  C   UNL     1      39.441 -11.337   3.487  1.00  0.00     0.237 C 
BRANCH  11  14
HETATM   14  N   UNL     1      40.398 -12.173   0.330  1.00  0.00    -0.064 N 
HETATM   15  H   UNL     1      41.409 -12.354   0.204  1.00  0.00     0.280 HD
HETATM   16  C   UNL     1      39.929 -13.371   1.165  1.00  0.00     0.266 C 
HETATM   17  C   UNL     1      40.191 -14.720   0.479  1.00  0.00     0.144 C 
HETATM   18  C   UNL     1      39.631 -14.734  -0.937  1.00  0.00     0.035 C 
HETATM   19  C   UNL     1      40.163 -13.560  -1.738  1.00  0.00     0.030 C 
HETATM   20  C   UNL     1      39.840 -12.227  -1.076  1.00  0.00     0.235 C 
BRANCH  17  21
HETATM   21  O   UNL     1      39.539 -15.724   1.243  1.00  0.00    -0.394 OA
HETATM   22  H   UNL     1      38.577 -15.553   1.249  1.00  0.00     0.210 HD
ENDBRANCH  17  21
ENDBRANCH  11  14
ENDBRANCH   6   7
ENDBRANCH   4   6
BRANCH   3  23
HETATM   23  C   UNL     1      44.023 -12.230   6.536  1.00  0.00    -0.005 A 
HETATM   24  C   UNL     1      45.264 -11.752   6.089  1.00  0.00     0.017 A 
HETATM   25  C   UNL     1      45.998 -10.863   6.877  1.00  0.00     0.043 A 
HETATM   26  C   UNL     1      45.495 -10.462   8.109  1.00  0.00     0.116 A 
HETATM   27  F   UNL     1      46.196  -9.604   8.860  1.00  0.00    -0.206 F 
HETATM   28  C   UNL     1      44.279 -10.944   8.578  1.00  0.00     0.043 A 
HETATM   29  C   UNL     1      43.543 -11.836   7.795  1.00  0.00     0.017 A 
ENDBRANCH   3  23
BRANCH   1  30
HETATM   30  C   UNL     1      43.039 -16.241   4.056  1.00  0.00     0.058 A 
HETATM   31  C   UNL     1      43.806 -17.181   4.756  1.00  0.00     0.032 A 
HETATM   32  C   UNL     1      44.049 -18.445   4.209  1.00  0.00     0.009 A 
HETATM   33  C   UNL     1      43.538 -18.784   2.953  1.00  0.00    -0.062 A 
HETATM   34  C   UNL     1      43.777 -20.145   2.364  1.00  0.00     0.048 C 
HETATM   35  C   UNL     1      42.764 -17.848   2.258  1.00  0.00     0.009 A 
HETATM   36  C   UNL     1      42.514 -16.583   2.801  1.00  0.00     0.032 A 
ENDBRANCH   1  30
TORSDOF 6
ENDMDL
MODEL 5
REMARK VINA RESULT:      -9.6      3.498      7.889
REMARK  6 active torsions:
REMARK  status: ('A' for Active; 'I' for Inactive)
REMARK    1  A    between atoms: C_5  and  N_6 
REMARK    2  A    between atoms: C_8  and  C_9 
REMARK    3  A    between atoms: C_16  and  C_17 
REMARK    4  A    between atoms: C_17  and  N_18 
REMARK    5  A    between atoms: C_22  and  N_23 
REMARK    6  A    between atoms: C_26  and  O_27 
ROOT
HETATM    1  N   UNL     1      42.350 -15.594   2.123  1.00  0.00    -0.244 N 
HETATM    2  N   UNL     1      41.278 -15.529   1.304  1.00  0.00    -0.167 NA
HETATM    3  C   UNL     1      41.116 -14.242   0.990  1.00  0.00     0.097 A 
HETATM    4  C   UNL     1      42.011 -13.422   1.729  1.00  0.00     0.016 A 
HETATM    5  C   UNL     1      42.817 -14.323   2.400  1.00  0.00     0.130 A 
ENDROOT
BRANCH   4   6
HETATM    6  C   UNL     1      42.089 -11.943   1.774  1.00  0.00     0.277 C 
BRANCH   6   7
HETATM    7  N   UNL     1      42.047 -11.339   3.196  1.00  0.00    -0.067 N 
HETATM    8  H   UNL     1      42.015 -10.319   3.023  1.00  0.00     0.280 HD
HETATM    9  C   UNL     1      40.789 -11.711   3.934  1.00  0.00     0.237 C 
HETATM   10  C   UNL     1      40.811 -11.156   5.341  1.00  0.00     0.061 C 
HETATM   11  C   UNL     1      42.027 -11.590   6.158  1.00  0.00     0.191 C 
HETATM   12  C   UNL     1      43.310 -11.255   5.390  1.00  0.00     0.061 C 
HETATM   13  C   UNL     1      43.329 -11.663   3.917  1.00  0.00     0.237 C 
BRANCH  11  14
HETATM   14  N   UNL     1      41.973 -13.027   6.725  1.00  0.00    -0.064 N 
HETATM   15  H   UNL     1      41.620 -12.896   7.689  1.00  0.00     0.280 HD
HETATM   16  C   UNL     1      40.884 -13.887   6.069  1.00  0.00     0.266 C 
HETATM   17  C   UNL     1      40.661 -15.226   6.788  1.00  0.00     0.144 C 
HETATM   18  C   UNL     1      41.974 -15.976   6.970  1.00  0.00     0.035 C 
HETATM   19  C   UNL     1      43.002 -15.103   7.668  1.00  0.00     0.030 C 
HETATM   20  C   UNL     1      43.256 -13.807   6.908  1.00  0.00     0.235 C 
BRANCH  17  21
HETATM   21  O   UNL     1      39.791 -16.006   5.983  1.00  0.00    -0.394 OA
HETATM   22  H   UNL     1      39.123 -16.436   6.552  1.00  0.00     0.210 HD
ENDBRANCH  17  21
ENDBRANCH  11  14
ENDBRANCH   6   7
ENDBRANCH   4   6
BRANCH   3  23
HETATM   23  C   UNL     1      40.090 -13.834   0.037  1.00  0.00    -0.005 A 
HETATM   24  C   UNL     1      39.353 -12.661   0.255  1.00  0.00     0.017 A 
HETATM   25  C   UNL     1      38.377 -12.264  -0.662  1.00  0.00     0.043 A 
HETATM   26  C   UNL     1      38.136 -13.044  -1.788  1.00  0.00     0.116 A 
HETATM   27  F   UNL     1      37.207 -12.660  -2.670  1.00  0.00    -0.206 F 
HETATM   28  C   UNL     1      38.840 -14.222  -2.007  1.00  0.00     0.043 A 
HETATM   29  C   UNL     1      39.815 -14.624  -1.091  1.00  0.00     0.017 A 
ENDBRANCH   3  23
BRANCH   1  30
HETATM   30  C   UNL     1      42.826 -16.831   2.632  1.00  0.00     0.058 A 
HETATM   31  C   UNL     1      43.449 -16.866   3.886  1.00  0.00     0.032 A 
HETATM   32  C   UNL     1      43.936 -18.071   4.401  1.00  0.00     0.009 A 
HETATM   33  C   UNL     1      43.817 -19.256   3.668  1.00  0.00    -0.062 A 
HETATM   34  C   UNL     1      44.320 -20.559   4.220  1.00  0.00     0.048 C 
HETATM   35  C   UNL     1      43.186 -19.222   2.420  1.00  0.00     0.009 A 
HETATM   36  C   UNL     1      42.693 -18.020   1.899  1.00  0.00     0.032 A 
ENDBRANCH   1  30
TORSDOF 6
ENDMDL
MODEL 6
REMARK VINA RESULT:      -9.5      3.523      8.753
REMARK  6 active torsions:
REMARK  status: ('A' for Active; 'I' for Inactive)
REMARK    1  A    between atoms: C_5  and  N_6 
REMARK    2  A    between atoms: C_8  and  C_9 
REMARK    3  A    between atoms: C_16  and  C_17 
REMARK    4  A    between atoms: C_17  and  N_18 
REMARK    5  A    between atoms: C_22  and  N_23 
REMARK    6  A    between atoms: C_26  and  O_27 
ROOT
HETATM    1  N   UNL     1      40.690 -14.474   2.001  1.00  0.00    -0.244 N 
HETATM    2  N   UNL     1      41.467 -15.578   2.029  1.00  0.00    -0.167 NA
HETATM    3  C   UNL     1      41.888 -15.717   3.288  1.00  0.00     0.097 A 
HETATM    4  C   UNL     1      41.497 -14.603   4.080  1.00  0.00     0.016 A 
HETATM    5  C   UNL     1      40.690 -13.858   3.238  1.00  0.00     0.130 A 
ENDROOT
BRANCH   4   6
HETATM    6  C   UNL     1      41.849 -14.298   5.486  1.00  0.00     0.277 C 
BRANCH   6   7
HETATM    7  N   UNL     1      42.730 -13.042   5.671  1.00  0.00    -0.067 N 
HETATM    8  H   UNL     1      43.364 -13.069   4.854  1.00  0.00     0.280 HD
HETATM    9  C   UNL     1      41.930 -11.770   5.580  1.00  0.00     0.237 C 
HETATM   10  C   UNL     1      42.811 -10.565   5.829  1.00  0.00     0.061 C 
HETATM   11  C   UNL     1      43.552 -10.606   7.165  1.00  0.00     0.191 C 
HETATM   12  C   UNL     1      44.330 -11.920   7.283  1.00  0.00     0.061 C 
HETATM   13  C   UNL     1      43.555 -13.187   6.922  1.00  0.00     0.237 C 
BRANCH  11  14
HETATM   14  N   UNL     1      42.706 -10.245   8.408  1.00  0.00    -0.064 N 
HETATM   15  H   UNL     1      42.234 -11.135   8.648  1.00  0.00     0.280 HD
HETATM   16  C   UNL     1      43.561  -9.958   9.649  1.00  0.00     0.266 C 
HETATM   17  C   UNL     1      42.731  -9.841  10.937  1.00  0.00     0.144 C 
HETATM   18  C   UNL     1      41.590  -8.847  10.765  1.00  0.00     0.035 C 
HETATM   19  C   UNL     1      40.743  -9.203   9.555  1.00  0.00     0.030 C 
HETATM   20  C   UNL     1      41.571  -9.254   8.278  1.00  0.00     0.235 C 
BRANCH  17  21
HETATM   21  O   UNL     1      43.594  -9.379  11.964  1.00  0.00    -0.394 OA
HETATM   22  H   UNL     1      44.523  -9.491  11.681  1.00  0.00     0.210 HD
ENDBRANCH  17  21
ENDBRANCH  11  14
ENDBRANCH   6   7
ENDBRANCH   4   6
BRANCH   3  23
HETATM   23  C   UNL     1      42.681 -16.875   3.682  1.00  0.00    -0.005 A 
HETATM   24  C   UNL     1      43.168 -17.759   2.708  1.00  0.00     0.017 A 
HETATM   25  C   UNL     1      43.936 -18.863   3.084  1.00  0.00     0.043 A 
HETATM   26  C   UNL     1      44.208 -19.084   4.429  1.00  0.00     0.116 A 
HETATM   27  F   UNL     1      44.951 -20.137   4.788  1.00  0.00    -0.206 F 
HETATM   28  C   UNL     1      43.714 -18.232   5.409  1.00  0.00     0.043 A 
HETATM   29  C   UNL     1      42.943 -17.128   5.038  1.00  0.00     0.017 A 
ENDBRANCH   3  23
BRANCH   1  30
HETATM   30  C   UNL     1      40.047 -14.043   0.810  1.00  0.00     0.058 A 
HETATM   31  C   UNL     1      39.544 -12.738   0.734  1.00  0.00     0.032 A 
HETATM   32  C   UNL     1      38.897 -12.296  -0.425  1.00  0.00     0.009 A 
HETATM   33  C   UNL     1      38.737 -13.152  -1.519  1.00  0.00    -0.062 A 
HETATM   34  C   UNL     1      38.061 -12.683  -2.775  1.00  0.00     0.048 C 
HETATM   35  C   UNL     1      39.249 -14.452  -1.445  1.00  0.00     0.009 A 
HETATM   36  C   UNL     1      39.900 -14.901  -0.290  1.00  0.00     0.032 A 
ENDBRANCH   1  30
TORSDOF 6
ENDMDL
MODEL 7
REMARK VINA RESULT:      -9.4      3.604      6.427
REMARK  6 active torsions:
REMARK  status: ('A' for Active; 'I' for Inactive)
REMARK    1  A    between atoms: C_5  and  N_6 
REMARK    2  A    between atoms: C_8  and  C_9 
REMARK    3  A    between atoms: C_16  and  C_17 
REMARK    4  A    between atoms: C_17  and  N_18 
REMARK    5  A    between atoms: C_22  and  N_23 
REMARK    6  A    between atoms: C_26  and  O_27 
ROOT
HETATM    1  N   UNL     1      43.122 -14.696   6.194  1.00  0.00    -0.244 N 
HETATM    2  N   UNL     1      44.101 -13.918   6.702  1.00  0.00    -0.167 NA
HETATM    3  C   UNL     1      43.587 -12.693   6.831  1.00  0.00     0.097 A 
HETATM    4  C   UNL     1      42.285 -12.627   6.264  1.00  0.00     0.016 A 
HETATM    5  C   UNL     1      42.002 -13.935   5.916  1.00  0.00     0.130 A 
ENDROOT
BRANCH   4   6
HETATM    6  C   UNL     1      41.412 -11.443   6.090  1.00  0.00     0.277 C 
BRANCH   6   7
HETATM    7  N   UNL     1      40.991 -11.163   4.629  1.00  0.00    -0.067 N 
HETATM    8  H   UNL     1      40.848 -10.138   4.612  1.00  0.00     0.280 HD
HETATM    9  C   UNL     1      42.090 -11.482   3.651  1.00  0.00     0.237 C 
HETATM   10  C   UNL     1      41.622 -11.257   2.230  1.00  0.00     0.061 C 
HETATM   11  C   UNL     1      40.367 -12.044   1.859  1.00  0.00     0.191 C 
HETATM   12  C   UNL     1      39.259 -11.758   2.879  1.00  0.00     0.061 C 
HETATM   13  C   UNL     1      39.673 -11.835   4.349  1.00  0.00     0.237 C 
BRANCH  11  14
HETATM   14  N   UNL     1      40.586 -13.543   1.550  1.00  0.00    -0.064 N 
HETATM   15  H   UNL     1      40.336 -13.625   0.549  1.00  0.00     0.280 HD
HETATM   16  C   UNL     1      42.066 -13.947   1.574  1.00  0.00     0.266 C 
HETATM   17  C   UNL     1      42.311 -15.364   1.032  1.00  0.00     0.144 C 
HETATM   18  C   UNL     1      41.412 -16.379   1.725  1.00  0.00     0.035 C 
HETATM   19  C   UNL     1      39.955 -15.962   1.631  1.00  0.00     0.030 C 
HETATM   20  C   UNL     1      39.719 -14.581   2.229  1.00  0.00     0.235 C 
BRANCH  17  21
HETATM   21  O   UNL     1      43.666 -15.695   1.291  1.00  0.00    -0.394 OA
HETATM   22  H   UNL     1      44.077 -16.038   0.474  1.00  0.00     0.210 HD
ENDBRANCH  17  21
ENDBRANCH  11  14
ENDBRANCH   6   7
ENDBRANCH   4   6
BRANCH   3  23
HETATM   23  C   UNL     1      44.365 -11.623   7.445  1.00  0.00    -0.005 A 
HETATM   24  C   UNL     1      43.872 -10.953   8.574  1.00  0.00     0.017 A 
HETATM   25  C   UNL     1      44.620  -9.935   9.168  1.00  0.00     0.043 A 
HETATM   26  C   UNL     1      45.852  -9.584   8.628  1.00  0.00     0.116 A 
HETATM   27  F   UNL     1      46.572  -8.613   9.201  1.00  0.00    -0.206 F 
HETATM   28  C   UNL     1      46.344 -10.219   7.494  1.00  0.00     0.043 A 
HETATM   29  C   UNL     1      45.598 -11.237   6.895  1.00  0.00     0.017 A 
ENDBRANCH   3  23
BRANCH   1  30
HETATM   30  C   UNL     1      43.319 -16.082   5.952  1.00  0.00     0.058 A 
HETATM   31  C   UNL     1      43.162 -16.993   7.005  1.00  0.00     0.032 A 
HETATM   32  C   UNL     1      43.363 -18.360   6.792  1.00  0.00     0.009 A 
HETATM   33  C   UNL     1      43.731 -18.836   5.531  1.00  0.00    -0.062 A 
HETATM   34  C   UNL     1      43.931 -20.305   5.287  1.00  0.00     0.048 C 
HETATM   35  C   UNL     1      43.878 -17.927   4.477  1.00  0.00     0.009 A 
HETATM   36  C   UNL     1      43.675 -16.557   4.681  1.00  0.00     0.032 A 
ENDBRANCH   1  30
TORSDOF 6
ENDMDL
MODEL 8
REMARK VINA RESULT:      -9.4      1.657      2.574
REMARK  6 active torsions:
REMARK  status: ('A' for Active; 'I' for Inactive)
REMARK    1  A    between atoms: C_5  and  N_6 
REMARK    2  A    between atoms: C_8  and  C_9 
REMARK    3  A    between atoms: C_16  and  C_17 
REMARK    4  A    between atoms: C_17  and  N_18 
REMARK    5  A    between atoms: C_22  and  N_23 
REMARK    6  A    between atoms: C_26  and  O_27 
ROOT
HETATM    1  N   UNL     1      43.180 -13.077   6.210  1.00  0.00    -0.244 N 
HETATM    2  N   UNL     1      43.707 -14.312   6.359  1.00  0.00    -0.167 NA
HETATM    3  C   UNL     1      42.934 -15.143   5.656  1.00  0.00     0.097 A 
HETATM    4  C   UNL     1      41.792 -14.467   5.147  1.00  0.00     0.016 A 
HETATM    5  C   UNL     1      42.012 -13.141   5.475  1.00  0.00     0.130 A 
ENDROOT
BRANCH   4   6
HETATM    6  C   UNL     1      40.632 -15.030   4.419  1.00  0.00     0.277 C 
BRANCH   6   7
HETATM    7  N   UNL     1      40.856 -15.225   2.902  1.00  0.00    -0.067 N 
HETATM    8  H   UNL     1      41.587 -15.957   2.858  1.00  0.00     0.280 HD
HETATM    9  C   UNL     1      39.633 -15.767   2.212  1.00  0.00     0.237 C 
HETATM   10  C   UNL     1      39.867 -15.884   0.722  1.00  0.00     0.061 C 
HETATM   11  C   UNL     1      40.288 -14.575   0.057  1.00  0.00     0.191 C 
HETATM   12  C   UNL     1      41.506 -13.996   0.785  1.00  0.00     0.061 C 
HETATM   13  C   UNL     1      41.413 -13.957   2.310  1.00  0.00     0.237 C 
BRANCH  11  14
HETATM   14  N   UNL     1      39.150 -13.561  -0.201  1.00  0.00    -0.064 N 
HETATM   15  H   UNL     1      38.309 -14.039   0.167  1.00  0.00     0.280 HD
HETATM   16  C   UNL     1      39.253 -12.310   0.680  1.00  0.00     0.266 C 
HETATM   17  C   UNL     1      38.005 -11.418   0.607  1.00  0.00     0.144 C 
HETATM   18  C   UNL     1      37.646 -11.094  -0.837  1.00  0.00     0.035 C 
HETATM   19  C   UNL     1      37.504 -12.364  -1.656  1.00  0.00     0.030 C 
HETATM   20  C   UNL     1      38.774 -13.206  -1.623  1.00  0.00     0.235 C 
BRANCH  17  21
HETATM   21  O   UNL     1      38.298 -10.211   1.293  1.00  0.00    -0.394 OA
HETATM   22  H   UNL     1      38.915  -9.675   0.756  1.00  0.00     0.210 HD
ENDBRANCH  17  21
ENDBRANCH  11  14
ENDBRANCH   6   7
ENDBRANCH   4   6
BRANCH   3  23
HETATM   23  C   UNL     1      43.283 -16.554   5.532  1.00  0.00    -0.005 A 
HETATM   24  C   UNL     1      43.135 -17.415   6.628  1.00  0.00     0.017 A 
HETATM   25  C   UNL     1      43.459 -18.768   6.507  1.00  0.00     0.043 A 
HETATM   26  C   UNL     1      43.937 -19.253   5.295  1.00  0.00     0.116 A 
HETATM   27  F   UNL     1      44.240 -20.551   5.176  1.00  0.00    -0.206 F 
HETATM   28  C   UNL     1      44.113 -18.409   4.205  1.00  0.00     0.043 A 
HETATM   29  C   UNL     1      43.793 -17.054   4.323  1.00  0.00     0.017 A 
ENDBRANCH   3  23
BRANCH   1  30
HETATM   30  C   UNL     1      43.775 -11.935   6.808  1.00  0.00     0.058 A 
HETATM   31  C   UNL     1      45.168 -11.875   6.942  1.00  0.00     0.032 A 
HETATM   32  C   UNL     1      45.775 -10.765   7.539  1.00  0.00     0.009 A 
HETATM   33  C   UNL     1      45.000  -9.705   8.018  1.00  0.00    -0.062 A 
HETATM   34  C   UNL     1      45.641  -8.500   8.644  1.00  0.00     0.048 C 
HETATM   35  C   UNL     1      43.609  -9.761   7.876  1.00  0.00     0.009 A 
HETATM   36  C   UNL     1      42.995 -10.867   7.276  1.00  0.00     0.032 A 
ENDBRANCH   1  30
TORSDOF 6
ENDMDL
MODEL 9
REMARK VINA RESULT:      -9.0      1.323      2.139
REMARK  6 active torsions:
REMARK  status: ('A' for Active; 'I' for Inactive)
REMARK    1  A    between atoms: C_5  and  N_6 
REMARK    2  A    between atoms: C_8  and  C_9 
REMARK    3  A    between atoms: C_16  and  C_17 
REMARK    4  A    between atoms: C_17  and  N_18 
REMARK    5  A    between atoms: C_22  and  N_23 
REMARK    6  A    between atoms: C_26  and  O_27 
ROOT
HETATM    1  N   UNL     1      42.854 -12.446   5.480  1.00  0.00    -0.244 N 
HETATM    2  N   UNL     1      43.332 -13.692   5.272  1.00  0.00    -0.167 NA
HETATM    3  C   UNL     1      42.589 -14.229   4.303  1.00  0.00     0.097 A 
HETATM    4  C   UNL     1      41.506 -13.374   3.961  1.00  0.00     0.016 A 
HETATM    5  C   UNL     1      41.739 -12.225   4.694  1.00  0.00     0.130 A 
ENDROOT
BRANCH   4   6
HETATM    6  C   UNL     1      40.385 -13.630   3.027  1.00  0.00     0.277 C 
BRANCH   6   7
HETATM    7  N   UNL     1      40.773 -13.605   1.532  1.00  0.00    -0.067 N 
HETATM    8  H   UNL     1      41.746 -13.959   1.529  1.00  0.00     0.280 HD
HETATM    9  C   UNL     1      39.944 -14.558   0.714  1.00  0.00     0.237 C 
HETATM   10  C   UNL     1      40.307 -14.461  -0.752  1.00  0.00     0.061 C 
HETATM   11  C   UNL     1      40.179 -13.052  -1.329  1.00  0.00     0.191 C 
HETATM   12  C   UNL     1      40.984 -12.070  -0.472  1.00  0.00     0.061 C 
HETATM   13  C   UNL     1      40.780 -12.182   1.039  1.00  0.00     0.237 C 
BRANCH  11  14
HETATM   14  N   UNL     1      38.739 -12.592  -1.654  1.00  0.00    -0.064 N 
HETATM   15  H   UNL     1      38.209 -12.829  -0.798  1.00  0.00     0.280 HD
HETATM   16  C   UNL     1      38.604 -11.066  -1.737  1.00  0.00     0.266 C 
HETATM   17  C   UNL     1      37.144 -10.596  -1.816  1.00  0.00     0.144 C 
HETATM   18  C   UNL     1      36.396 -11.315  -2.930  1.00  0.00     0.035 C 
HETATM   19  C   UNL     1      36.516 -12.821  -2.776  1.00  0.00     0.030 C 
HETATM   20  C   UNL     1      37.969 -13.276  -2.762  1.00  0.00     0.235 C 
BRANCH  17  21
HETATM   21  O   UNL     1      37.156  -9.204  -2.091  1.00  0.00    -0.394 OA
HETATM   22  H   UNL     1      38.046  -8.941  -2.397  1.00  0.00     0.210 HD
ENDBRANCH  17  21
ENDBRANCH  11  14
ENDBRANCH   6   7
ENDBRANCH   4   6
BRANCH   3  23
HETATM   23  C   UNL     1      42.905 -15.549   3.770  1.00  0.00    -0.005 A 
HETATM   24  C   UNL     1      43.049 -16.642   4.637  1.00  0.00     0.017 A 
HETATM   25  C   UNL     1      43.342 -17.909   4.127  1.00  0.00     0.043 A 
HETATM   26  C   UNL     1      43.497 -18.077   2.756  1.00  0.00     0.116 A 
HETATM   27  F   UNL     1      43.770 -19.292   2.266  1.00  0.00    -0.206 F 
HETATM   28  C   UNL     1      43.382 -17.001   1.884  1.00  0.00     0.043 A 
HETATM   29  C   UNL     1      43.092 -15.731   2.391  1.00  0.00     0.017 A 
ENDBRANCH   3  23
BRANCH   1  30
HETATM   30  C   UNL     1      43.437 -11.573   6.436  1.00  0.00     0.058 A 
HETATM   31  C   UNL     1      44.734 -11.828   6.900  1.00  0.00     0.032 A 
HETATM   32  C   UNL     1      45.324 -10.987   7.850  1.00  0.00     0.009 A 
HETATM   33  C   UNL     1      44.625  -9.887   8.356  1.00  0.00    -0.062 A 
HETATM   34  C   UNL     1      45.255  -8.967   9.362  1.00  0.00     0.048 C 
HETATM   35  C   UNL     1      43.333  -9.628   7.885  1.00  0.00     0.009 A 
HETATM   36  C   UNL     1      42.738 -10.462   6.932  1.00  0.00     0.032 A 
ENDBRANCH   1  30
TORSDOF 6
ENDMDL
MODEL 10
REMARK VINA RESULT:      -9.0      3.158      8.855
REMARK  6 active torsions:
REMARK  status: ('A' for Active; 'I' for Inactive)
REMARK    1  A    between atoms: C_5  and  N_6 
REMARK    2  A    between atoms: C_8  and  C_9 
REMARK    3  A    between atoms: C_16  and  C_17 
REMARK    4  A    between atoms: C_17  and  N_18 
REMARK    5  A    between atoms: C_22  and  N_23 
REMARK    6  A    between atoms: C_26  and  O_27 
ROOT
HETATM    1  N   UNL     1      40.744 -14.202   0.900  1.00  0.00    -0.244 N 
HETATM    2  N   UNL     1      41.316 -15.397   1.162  1.00  0.00    -0.167 NA
HETATM    3  C   UNL     1      42.070 -15.228   2.250  1.00  0.00     0.097 A 
HETATM    4  C   UNL     1      42.109 -13.860   2.634  1.00  0.00     0.016 A 
HETATM    5  C   UNL     1      41.209 -13.245   1.782  1.00  0.00     0.130 A 
ENDROOT
BRANCH   4   6
HETATM    6  C   UNL     1      42.910 -13.222   3.704  1.00  0.00     0.277 C 
BRANCH   6   7
HETATM    7  N   UNL     1      42.156 -12.144   4.516  1.00  0.00    -0.067 N 
HETATM    8  H   UNL     1      41.295 -11.984   3.965  1.00  0.00     0.280 HD
HETATM    9  C   UNL     1      41.737 -12.644   5.873  1.00  0.00     0.237 C 
HETATM   10  C   UNL     1      41.061 -11.545   6.663  1.00  0.00     0.061 C 
HETATM   11  C   UNL     1      41.912 -10.287   6.826  1.00  0.00     0.191 C 
HETATM   12  C   UNL     1      42.379  -9.800   5.450  1.00  0.00     0.061 C 
HETATM   13  C   UNL     1      42.961 -10.871   4.527  1.00  0.00     0.237 C 
BRANCH  11  14
HETATM   14  N   UNL     1      43.027 -10.369   7.893  1.00  0.00    -0.064 N 
HETATM   15  H   UNL     1      43.023 -11.365   8.174  1.00  0.00     0.280 HD
HETATM   16  C   UNL     1      44.431 -10.177   7.305  1.00  0.00     0.266 C 
HETATM   17  C   UNL     1      45.551 -10.498   8.307  1.00  0.00     0.144 C 
HETATM   18  C   UNL     1      45.351  -9.742   9.614  1.00  0.00     0.035 C 
HETATM   19  C   UNL     1      43.967 -10.003  10.182  1.00  0.00     0.030 C 
HETATM   20  C   UNL     1      42.868  -9.621   9.199  1.00  0.00     0.235 C 
BRANCH  17  21
HETATM   21  O   UNL     1      46.779 -10.093   7.723  1.00  0.00    -0.394 OA
HETATM   22  H   UNL     1      47.296  -9.583   8.377  1.00  0.00     0.210 HD
ENDBRANCH  17  21
ENDBRANCH  11  14
ENDBRANCH   6   7
ENDBRANCH   4   6
BRANCH   3  23
HETATM   23  C   UNL     1      42.760 -16.360   2.858  1.00  0.00    -0.005 A 
HETATM   24  C   UNL     1      43.097 -17.478   2.082  1.00  0.00     0.017 A 
HETATM   25  C   UNL     1      43.766 -18.558   2.661  1.00  0.00     0.043 A 
HETATM   26  C   UNL     1      44.088 -18.521   4.013  1.00  0.00     0.116 A 
HETATM   27  F   UNL     1      44.737 -19.553   4.566  1.00  0.00    -0.206 F 
HETATM   28  C   UNL     1      43.740 -17.431   4.802  1.00  0.00     0.043 A 
HETATM   29  C   UNL     1      43.068 -16.350   4.228  1.00  0.00     0.017 A 
ENDBRANCH   3  23
BRANCH   1  30
HETATM   30  C   UNL     1      39.847 -14.026  -0.188  1.00  0.00     0.058 A 
HETATM   31  C   UNL     1      39.645 -15.078  -1.090  1.00  0.00     0.032 A 
HETATM   32  C   UNL     1      38.775 -14.923  -2.174  1.00  0.00     0.009 A 
HETATM   33  C   UNL     1      38.103 -13.714  -2.377  1.00  0.00    -0.062 A 
HETATM   34  C   UNL     1      37.152 -13.543  -3.527  1.00  0.00     0.048 C 
HETATM   35  C   UNL     1      38.297 -12.667  -1.470  1.00  0.00     0.009 A 
HETATM   36  C   UNL     1      39.163 -12.816  -0.381  1.00  0.00     0.032 A 
ENDBRANCH   1  30
TORSDOF 6
ENDMDL
