MODEL 1
REMARK VINA RESULT:      -8.7      0.000      0.000
REMARK  5 active torsions:
REMARK  status: ('A' for Active; 'I' for Inactive)
REMARK    1  A    between atoms: C_2  and  O_3 
REMARK    2  A    between atoms: O_3  and  C_4 
REMARK    3  A    between atoms: C_5  and  C_6 
REMARK       I    between atoms: C_6  and  N_7 
REMARK    4  A    between atoms: N_10  and  C_11 
REMARK    5  A    between atoms: C_15  and  C_16 
ROOT
HETATM    1  C   UNL     1      42.438  -9.344   7.414  1.00  0.00     0.256 C 
HETATM    2  N   UNL     1      42.223 -10.485   6.633  1.00  0.00    -0.346 N 
HETATM    3  C   UNL     1      43.137 -11.638   6.558  1.00  0.00     0.146 C 
HETATM    4  C   UNL     1      43.778 -11.841   5.172  1.00  0.00     0.144 C 
HETATM    5  N   UNL     1      42.799 -12.320   4.181  1.00  0.00    -0.365 N 
HETATM    6  C   UNL     1      42.028 -11.314   3.439  1.00  0.00     0.126 C 
HETATM    7  C   UNL     1      41.638 -10.087   4.263  1.00  0.00     0.040 C 
HETATM    8  C   UNL     1      41.131 -10.445   5.658  1.00  0.00     0.127 C 
HETATM    9  O   UNL     1      41.777  -8.313   7.307  1.00  0.00    -0.267 OA
ENDROOT
BRANCH   5  10
HETATM   10  C   UNL     1      42.580 -13.662   4.025  1.00  0.00     0.122 A 
HETATM   11  N   UNL     1      41.349 -14.249   4.164  1.00  0.00    -0.262 N 
HETATM   12  H   UNL     1      40.466 -13.793   4.355  1.00  0.00     0.191 HD
HETATM   13  N   UNL     1      41.344 -15.583   4.023  1.00  0.00    -0.173 NA
HETATM   14  C   UNL     1      42.618 -15.892   3.735  1.00  0.00     0.090 A 
HETATM   15  C   UNL     1      43.415 -14.713   3.705  1.00  0.00     0.084 A 
BRANCH  14  16
HETATM   16  C   UNL     1      43.036 -17.282   3.516  1.00  0.00    -0.005 A 
HETATM   17  C   UNL     1      43.758 -17.988   4.493  1.00  0.00     0.017 A 
HETATM   18  C   UNL     1      44.139 -19.316   4.275  1.00  0.00     0.043 A 
HETATM   19  C   UNL     1      43.801 -19.942   3.082  1.00  0.00     0.116 A 
HETATM   20  F   UNL     1      44.165 -21.215   2.878  1.00  0.00    -0.206 F 
HETATM   21  C   UNL     1      43.091 -19.267   2.099  1.00  0.00     0.043 A 
HETATM   22  C   UNL     1      42.711 -17.939   2.315  1.00  0.00     0.017 A 
ENDBRANCH  14  16
ENDBRANCH   5  10
BRANCH   1  23
HETATM   23  C   UNL     1      43.465  -9.389   8.476  1.00  0.00     0.065 A 
HETATM   24  C   UNL     1      43.112  -9.670   9.800  1.00  0.00     0.084 A 
HETATM   25  C   UNL     1      44.105  -9.720  10.783  1.00  0.00     0.038 A 
HETATM   26  C   UNL     1      45.446  -9.540  10.435  1.00  0.00     0.003 A 
HETATM   27  C   UNL     1      45.801  -9.304   9.107  1.00  0.00     0.001 A 
HETATM   28  C   UNL     1      44.814  -9.233   8.124  1.00  0.00     0.020 A 
BRANCH  24  29
HETATM   29  O   UNL     1      41.790  -9.818  10.131  1.00  0.00    -0.350 OA
BRANCH  29  30
HETATM   30  C   UNL     1      41.592  -9.823  11.550  1.00  0.00     0.171 C 
HETATM   31  C   UNL     1      40.102  -9.889  11.827  1.00  0.00     0.034 C 
ENDBRANCH  29  30
ENDBRANCH  24  29
ENDBRANCH   1  23
TORSDOF 5
ENDMDL
MODEL 2
REMARK VINA RESULT:      -8.6      5.716      8.136
REMARK  5 active torsions:
REMARK  status: ('A' for Active; 'I' for Inactive)
REMARK    1  A    between atoms: C_2  and  O_3 
REMARK    2  A    between atoms: O_3  and  C_4 
REMARK    3  A    between atoms: C_5  and  C_6 
REMARK       I    between atoms: C_6  and  N_7 
REMARK    4  A    between atoms: N_10  and  C_11 
REMARK    5  A    between atoms: C_15  and  C_16 
ROOT
HETATM    1  C   UNL     1      39.945  -9.984   0.130  1.00  0.00     0.256 C 
HETATM    2  N   UNL     1      40.445 -11.157   0.705  1.00  0.00    -0.346 N 
HETATM    3  C   UNL     1      40.835 -12.362  -0.049  1.00  0.00     0.146 C 
HETATM    4  C   UNL     1      39.959 -13.596   0.244  1.00  0.00     0.144 C 
HETATM    5  N   UNL     1      40.206 -14.135   1.593  1.00  0.00    -0.365 N 
HETATM    6  C   UNL     1      39.423 -13.582   2.705  1.00  0.00     0.126 C 
HETATM    7  C   UNL     1      39.150 -12.082   2.598  1.00  0.00     0.040 C 
HETATM    8  C   UNL     1      40.377 -11.284   2.161  1.00  0.00     0.127 C 
HETATM    9  O   UNL     1      39.434  -9.073   0.780  1.00  0.00    -0.267 OA
ENDROOT
BRANCH   5  10
HETATM   10  C   UNL     1      41.188 -15.068   1.790  1.00  0.00     0.122 A 
HETATM   11  N   UNL     1      42.374 -15.075   1.103  1.00  0.00    -0.262 N 
HETATM   12  H   UNL     1      42.692 -14.404   0.415  1.00  0.00     0.191 HD
HETATM   13  N   UNL     1      43.188 -16.099   1.399  1.00  0.00    -0.173 NA
HETATM   14  C   UNL     1      42.535 -16.778   2.355  1.00  0.00     0.090 A 
HETATM   15  C   UNL     1      41.289 -16.150   2.641  1.00  0.00     0.084 A 
BRANCH  14  16
HETATM   16  C   UNL     1      43.099 -17.997   2.948  1.00  0.00    -0.005 A 
HETATM   17  C   UNL     1      43.121 -19.209   2.237  1.00  0.00     0.017 A 
HETATM   18  C   UNL     1      43.672 -20.360   2.810  1.00  0.00     0.043 A 
HETATM   19  C   UNL     1      44.203 -20.303   4.093  1.00  0.00     0.116 A 
HETATM   20  F   UNL     1      44.733 -21.406   4.637  1.00  0.00    -0.206 F 
HETATM   21  C   UNL     1      44.191 -19.119   4.817  1.00  0.00     0.043 A 
HETATM   22  C   UNL     1      43.639 -17.970   4.246  1.00  0.00     0.017 A 
ENDBRANCH  14  16
ENDBRANCH   5  10
BRANCH   1  23
HETATM   23  C   UNL     1      40.092  -9.782  -1.327  1.00  0.00     0.065 A 
HETATM   24  C   UNL     1      39.095 -10.206  -2.211  1.00  0.00     0.084 A 
HETATM   25  C   UNL     1      39.252  -9.990  -3.584  1.00  0.00     0.038 A 
HETATM   26  C   UNL     1      40.374  -9.310  -4.062  1.00  0.00     0.003 A 
HETATM   27  C   UNL     1      41.346  -8.848  -3.175  1.00  0.00     0.001 A 
HETATM   28  C   UNL     1      41.206  -9.077  -1.806  1.00  0.00     0.020 A 
BRANCH  24  29
HETATM   29  O   UNL     1      38.012 -10.895  -1.729  1.00  0.00    -0.350 OA
BRANCH  29  30
HETATM   30  C   UNL     1      37.331 -11.612  -2.767  1.00  0.00     0.171 C 
HETATM   31  C   UNL     1      37.476 -13.098  -2.496  1.00  0.00     0.034 C 
ENDBRANCH  29  30
ENDBRANCH  24  29
ENDBRANCH   1  23
TORSDOF 5
ENDMDL
MODEL 3
REMARK VINA RESULT:      -8.6      5.722      7.891
REMARK  5 active torsions:
REMARK  status: ('A' for Active; 'I' for Inactive)
REMARK    1  A    between atoms: C_2  and  O_3 
REMARK    2  A    between atoms: O_3  and  C_4 
REMARK    3  A    between atoms: C_5  and  C_6 
REMARK       I    between atoms: C_6  and  N_7 
REMARK    4  A    between atoms: N_10  and  C_11 
REMARK    5  A    between atoms: C_15  and  C_16 
ROOT
HETATM    1  C   UNL     1      40.020  -9.866   0.111  1.00  0.00     0.256 C 
HETATM    2  N   UNL     1      40.499 -11.050   0.682  1.00  0.00    -0.346 N 
HETATM    3  C   UNL     1      40.901 -12.247  -0.078  1.00  0.00     0.146 C 
HETATM    4  C   UNL     1      40.011 -13.479   0.176  1.00  0.00     0.144 C 
HETATM    5  N   UNL     1      40.221 -14.038   1.523  1.00  0.00    -0.365 N 
HETATM    6  C   UNL     1      39.413 -13.496   2.622  1.00  0.00     0.126 C 
HETATM    7  C   UNL     1      39.151 -11.993   2.529  1.00  0.00     0.040 C 
HETATM    8  C   UNL     1      40.393 -11.196   2.134  1.00  0.00     0.127 C 
HETATM    9  O   UNL     1      39.498  -8.962   0.761  1.00  0.00    -0.267 OA
ENDROOT
BRANCH   5  10
HETATM   10  C   UNL     1      41.192 -14.980   1.732  1.00  0.00     0.122 A 
HETATM   11  N   UNL     1      42.375 -15.013   1.040  1.00  0.00    -0.262 N 
HETATM   12  H   UNL     1      42.698 -14.359   0.339  1.00  0.00     0.191 HD
HETATM   13  N   UNL     1      43.178 -16.042   1.350  1.00  0.00    -0.173 NA
HETATM   14  C   UNL     1      42.521 -16.696   2.321  1.00  0.00     0.090 A 
HETATM   15  C   UNL     1      41.285 -16.047   2.601  1.00  0.00     0.084 A 
BRANCH  14  16
HETATM   16  C   UNL     1      43.073 -17.912   2.932  1.00  0.00    -0.005 A 
HETATM   17  C   UNL     1      43.101 -19.130   2.233  1.00  0.00     0.017 A 
HETATM   18  C   UNL     1      43.641 -20.277   2.824  1.00  0.00     0.043 A 
HETATM   19  C   UNL     1      44.154 -20.210   4.114  1.00  0.00     0.116 A 
HETATM   20  F   UNL     1      44.673 -21.310   4.675  1.00  0.00    -0.206 F 
HETATM   21  C   UNL     1      44.137 -19.020   4.827  1.00  0.00     0.043 A 
HETATM   22  C   UNL     1      43.596 -17.874   4.238  1.00  0.00     0.017 A 
ENDBRANCH  14  16
ENDBRANCH   5  10
BRANCH   1  23
HETATM   23  C   UNL     1      40.205  -9.645  -1.339  1.00  0.00     0.065 A 
HETATM   24  C   UNL     1      41.431  -9.195  -1.842  1.00  0.00     0.084 A 
HETATM   25  C   UNL     1      41.584  -9.008  -3.219  1.00  0.00     0.038 A 
HETATM   26  C   UNL     1      40.536  -9.317  -4.089  1.00  0.00     0.003 A 
HETATM   27  C   UNL     1      39.330  -9.808  -3.589  1.00  0.00     0.001 A 
HETATM   28  C   UNL     1      39.162  -9.978  -2.215  1.00  0.00     0.020 A 
BRANCH  24  29
HETATM   29  O   UNL     1      42.441  -8.872  -0.974  1.00  0.00    -0.350 OA
BRANCH  29  30
HETATM   30  C   UNL     1      43.224  -7.771  -1.452  1.00  0.00     0.171 C 
HETATM   31  C   UNL     1      42.700  -6.497  -0.815  1.00  0.00     0.034 C 
ENDBRANCH  29  30
ENDBRANCH  24  29
ENDBRANCH   1  23
TORSDOF 5
ENDMDL
MODEL 4
REMARK VINA RESULT:      -8.5      1.044      2.242
REMARK  5 active torsions:
REMARK  status: ('A' for Active; 'I' for Inactive)
REMARK    1  A    between atoms: C_2  and  O_3 
REMARK    2  A    between atoms: O_3  and  C_4 
REMARK    3  A    between atoms: C_5  and  C_6 
REMARK       I    between atoms: C_6  and  N_7 
REMARK    4  A    between atoms: N_10  and  C_11 
REMARK    5  A    between atoms: C_15  and  C_16 
ROOT
HETATM    1  C   UNL     1      41.632  -8.990   7.864  1.00  0.00     0.256 C 
HETATM    2  N   UNL     1      41.604 -10.045   6.946  1.00  0.00    -0.346 N 
HETATM    3  C   UNL     1      42.456 -11.245   7.019  1.00  0.00     0.146 C 
HETATM    4  C   UNL     1      43.458 -11.375   5.855  1.00  0.00     0.144 C 
HETATM    5  N   UNL     1      42.784 -11.705   4.587  1.00  0.00    -0.365 N 
HETATM    6  C   UNL     1      42.297 -10.593   3.760  1.00  0.00     0.126 C 
HETATM    7  C   UNL     1      41.736  -9.416   4.558  1.00  0.00     0.040 C 
HETATM    8  C   UNL     1      40.838  -9.854   5.713  1.00  0.00     0.127 C 
HETATM    9  O   UNL     1      41.070  -7.912   7.677  1.00  0.00    -0.267 OA
ENDROOT
BRANCH   5  10
HETATM   10  C   UNL     1      42.566 -13.012   4.245  1.00  0.00     0.122 A 
HETATM   11  N   UNL     1      41.327 -13.523   3.959  1.00  0.00    -0.262 N 
HETATM   12  H   UNL     1      40.447 -13.025   3.925  1.00  0.00     0.191 HD
HETATM   13  N   UNL     1      41.309 -14.838   3.696  1.00  0.00    -0.173 NA
HETATM   14  C   UNL     1      42.597 -15.210   3.766  1.00  0.00     0.090 A 
HETATM   15  C   UNL     1      43.415 -14.089   4.086  1.00  0.00     0.084 A 
BRANCH  14  16
HETATM   16  C   UNL     1      43.004 -16.603   3.548  1.00  0.00    -0.005 A 
HETATM   17  C   UNL     1      43.820 -17.277   4.471  1.00  0.00     0.017 A 
HETATM   18  C   UNL     1      44.189 -18.609   4.255  1.00  0.00     0.043 A 
HETATM   19  C   UNL     1      43.745 -19.271   3.117  1.00  0.00     0.116 A 
HETATM   20  F   UNL     1      44.098 -20.547   2.916  1.00  0.00    -0.206 F 
HETATM   21  C   UNL     1      42.940 -18.627   2.188  1.00  0.00     0.043 A 
HETATM   22  C   UNL     1      42.572 -17.296   2.402  1.00  0.00     0.017 A 
ENDBRANCH  14  16
ENDBRANCH   5  10
BRANCH   1  23
HETATM   23  C   UNL     1      42.310  -9.189   9.162  1.00  0.00     0.065 A 
HETATM   24  C   UNL     1      43.688  -8.980   9.287  1.00  0.00     0.084 A 
HETATM   25  C   UNL     1      44.303  -9.161  10.529  1.00  0.00     0.038 A 
HETATM   26  C   UNL     1      43.538  -9.499  11.648  1.00  0.00     0.003 A 
HETATM   27  C   UNL     1      42.157  -9.663  11.530  1.00  0.00     0.001 A 
HETATM   28  C   UNL     1      41.539  -9.504  10.290  1.00  0.00     0.020 A 
BRANCH  24  29
HETATM   29  O   UNL     1      44.429  -8.674   8.175  1.00  0.00    -0.350 OA
BRANCH  29  30
HETATM   30  C   UNL     1      45.830  -8.887   8.393  1.00  0.00     0.171 C 
HETATM   31  C   UNL     1      46.228 -10.188   7.721  1.00  0.00     0.034 C 
ENDBRANCH  29  30
ENDBRANCH  24  29
ENDBRANCH   1  23
TORSDOF 5
ENDMDL
MODEL 5
REMARK VINA RESULT:      -8.3      1.735      2.175
REMARK  5 active torsions:
REMARK  status: ('A' for Active; 'I' for Inactive)
REMARK    1  A    between atoms: C_2  and  O_3 
REMARK    2  A    between atoms: O_3  and  C_4 
REMARK    3  A    between atoms: C_5  and  C_6 
REMARK       I    between atoms: C_6  and  N_7 
REMARK    4  A    between atoms: N_10  and  C_11 
REMARK    5  A    between atoms: C_15  and  C_16 
ROOT
HETATM    1  C   UNL     1      42.196 -10.496   6.967  1.00  0.00     0.256 C 
HETATM    2  N   UNL     1      42.204 -11.591   6.094  1.00  0.00    -0.346 N 
HETATM    3  C   UNL     1      43.412 -12.160   5.471  1.00  0.00     0.146 C 
HETATM    4  C   UNL     1      43.454 -12.014   3.937  1.00  0.00     0.144 C 
HETATM    5  N   UNL     1      42.474 -12.893   3.276  1.00  0.00    -0.365 N 
HETATM    6  C   UNL     1      41.116 -12.375   3.073  1.00  0.00     0.126 C 
HETATM    7  C   UNL     1      40.601 -11.497   4.214  1.00  0.00     0.040 C 
HETATM    8  C   UNL     1      40.915 -12.071   5.594  1.00  0.00     0.127 C 
HETATM    9  O   UNL     1      41.172  -9.910   7.310  1.00  0.00    -0.267 OA
ENDROOT
BRANCH   5  10
HETATM   10  C   UNL     1      42.821 -14.173   2.936  1.00  0.00     0.122 A 
HETATM   11  N   UNL     1      43.177 -14.549   1.667  1.00  0.00    -0.262 N 
HETATM   12  H   UNL     1      43.267 -13.957   0.851  1.00  0.00     0.191 HD
HETATM   13  N   UNL     1      43.434 -15.857   1.520  1.00  0.00    -0.173 NA
HETATM   14  C   UNL     1      43.284 -16.366   2.753  1.00  0.00     0.090 A 
HETATM   15  C   UNL     1      42.923 -15.338   3.669  1.00  0.00     0.084 A 
BRANCH  14  16
HETATM   16  C   UNL     1      43.470 -17.799   3.015  1.00  0.00    -0.005 A 
HETATM   17  C   UNL     1      43.058 -18.769   2.086  1.00  0.00     0.017 A 
HETATM   18  C   UNL     1      43.253 -20.129   2.345  1.00  0.00     0.043 A 
HETATM   19  C   UNL     1      43.859 -20.525   3.531  1.00  0.00     0.116 A 
HETATM   20  F   UNL     1      44.046 -21.828   3.774  1.00  0.00    -0.206 F 
HETATM   21  C   UNL     1      44.272 -19.587   4.467  1.00  0.00     0.043 A 
HETATM   22  C   UNL     1      44.077 -18.227   4.210  1.00  0.00     0.017 A 
ENDBRANCH  14  16
ENDBRANCH   5  10
BRANCH   1  23
HETATM   23  C   UNL     1      43.471 -10.053   7.569  1.00  0.00     0.065 A 
HETATM   24  C   UNL     1      43.607  -8.758   8.082  1.00  0.00     0.084 A 
HETATM   25  C   UNL     1      44.819  -8.368   8.659  1.00  0.00     0.038 A 
HETATM   26  C   UNL     1      45.869  -9.282   8.768  1.00  0.00     0.003 A 
HETATM   27  C   UNL     1      45.717 -10.586   8.296  1.00  0.00     0.001 A 
HETATM   28  C   UNL     1      44.518 -10.977   7.701  1.00  0.00     0.020 A 
BRANCH  24  29
HETATM   29  O   UNL     1      42.576  -7.865   7.944  1.00  0.00    -0.350 OA
BRANCH  29  30
HETATM   30  C   UNL     1      42.262  -7.217   9.184  1.00  0.00     0.171 C 
HETATM   31  C   UNL     1      42.035  -5.742   8.910  1.00  0.00     0.034 C 
ENDBRANCH  29  30
ENDBRANCH  24  29
ENDBRANCH   1  23
TORSDOF 5
ENDMDL
MODEL 6
REMARK VINA RESULT:      -8.3      2.350      4.228
REMARK  5 active torsions:
REMARK  status: ('A' for Active; 'I' for Inactive)
REMARK    1  A    between atoms: C_2  and  O_3 
REMARK    2  A    between atoms: O_3  and  C_4 
REMARK    3  A    between atoms: C_5  and  C_6 
REMARK       I    between atoms: C_6  and  N_7 
REMARK    4  A    between atoms: N_10  and  C_11 
REMARK    5  A    between atoms: C_15  and  C_16 
ROOT
HETATM    1  C   UNL     1      42.774  -7.471  10.736  1.00  0.00     0.256 C 
HETATM    2  N   UNL     1      42.895  -8.430   9.725  1.00  0.00    -0.346 N 
HETATM    3  C   UNL     1      42.692  -9.877   9.910  1.00  0.00     0.146 C 
HETATM    4  C   UNL     1      43.964 -10.722   9.697  1.00  0.00     0.144 C 
HETATM    5  N   UNL     1      44.356 -10.772   8.278  1.00  0.00    -0.365 N 
HETATM    6  C   UNL     1      45.236  -9.710   7.774  1.00  0.00     0.126 C 
HETATM    7  C   UNL     1      44.960  -8.329   8.368  1.00  0.00     0.040 C 
HETATM    8  C   UNL     1      43.471  -8.003   8.448  1.00  0.00     0.127 C 
HETATM    9  O   UNL     1      43.147  -6.305  10.615  1.00  0.00    -0.267 OA
ENDROOT
BRANCH   5  10
HETATM   10  C   UNL     1      43.849 -11.744   7.459  1.00  0.00     0.122 A 
HETATM   11  N   UNL     1      42.568 -11.728   6.970  1.00  0.00    -0.262 N 
HETATM   12  H   UNL     1      41.865 -11.014   7.107  1.00  0.00     0.191 HD
HETATM   13  N   UNL     1      42.239 -12.794   6.226  1.00  0.00    -0.173 NA
HETATM   14  C   UNL     1      43.362 -13.529   6.181  1.00  0.00     0.090 A 
HETATM   15  C   UNL     1      44.396 -12.892   6.924  1.00  0.00     0.084 A 
BRANCH  14  16
HETATM   16  C   UNL     1      43.411 -14.806   5.459  1.00  0.00    -0.005 A 
HETATM   17  C   UNL     1      42.865 -14.936   4.171  1.00  0.00     0.017 A 
HETATM   18  C   UNL     1      42.931 -16.156   3.490  1.00  0.00     0.043 A 
HETATM   19  C   UNL     1      43.541 -17.249   4.093  1.00  0.00     0.116 A 
HETATM   20  F   UNL     1      43.604 -18.415   3.437  1.00  0.00    -0.206 F 
HETATM   21  C   UNL     1      44.086 -17.148   5.366  1.00  0.00     0.043 A 
HETATM   22  C   UNL     1      44.019 -15.930   6.047  1.00  0.00     0.017 A 
ENDBRANCH  14  16
ENDBRANCH   5  10
BRANCH   1  23
HETATM   23  C   UNL     1      42.104  -7.845  12.000  1.00  0.00     0.065 A 
HETATM   24  C   UNL     1      40.710  -7.811  12.106  1.00  0.00     0.084 A 
HETATM   25  C   UNL     1      40.100  -8.183  13.308  1.00  0.00     0.038 A 
HETATM   26  C   UNL     1      40.877  -8.634  14.378  1.00  0.00     0.003 A 
HETATM   27  C   UNL     1      42.265  -8.709  14.255  1.00  0.00     0.001 A 
HETATM   28  C   UNL     1      42.882  -8.320  13.066  1.00  0.00     0.020 A 
BRANCH  24  29
HETATM   29  O   UNL     1      39.963  -7.342  11.056  1.00  0.00    -0.350 OA
BRANCH  29  30
HETATM   30  C   UNL     1      39.162  -8.375  10.468  1.00  0.00     0.171 C 
HETATM   31  C   UNL     1      39.245  -8.245   8.958  1.00  0.00     0.034 C 
ENDBRANCH  29  30
ENDBRANCH  24  29
ENDBRANCH   1  23
TORSDOF 5
ENDMDL
MODEL 7
REMARK VINA RESULT:      -8.1      3.581      6.906
REMARK  5 active torsions:
REMARK  status: ('A' for Active; 'I' for Inactive)
REMARK    1  A    between atoms: C_2  and  O_3 
REMARK    2  A    between atoms: O_3  and  C_4 
REMARK    3  A    between atoms: C_5  and  C_6 
REMARK       I    between atoms: C_6  and  N_7 
REMARK    4  A    between atoms: N_10  and  C_11 
REMARK    5  A    between atoms: C_15  and  C_16 
ROOT
HETATM    1  C   UNL     1      40.626 -10.178   2.018  1.00  0.00     0.256 C 
HETATM    2  N   UNL     1      41.298 -11.199   2.697  1.00  0.00    -0.346 N 
HETATM    3  C   UNL     1      40.815 -12.586   2.822  1.00  0.00     0.146 C 
HETATM    4  C   UNL     1      40.473 -13.004   4.265  1.00  0.00     0.144 C 
HETATM    5  N   UNL     1      41.683 -13.157   5.092  1.00  0.00    -0.365 N 
HETATM    6  C   UNL     1      42.192 -11.967   5.786  1.00  0.00     0.126 C 
HETATM    7  C   UNL     1      42.055 -10.668   4.991  1.00  0.00     0.040 C 
HETATM    8  C   UNL     1      42.447 -10.825   3.523  1.00  0.00     0.127 C 
HETATM    9  O   UNL     1      40.935  -8.990   2.099  1.00  0.00    -0.267 OA
ENDROOT
BRANCH   5  10
HETATM   10  C   UNL     1      42.335 -14.359   5.140  1.00  0.00     0.122 A 
HETATM   11  N   UNL     1      43.376 -14.623   5.992  1.00  0.00    -0.262 N 
HETATM   12  H   UNL     1      43.765 -14.010   6.697  1.00  0.00     0.191 HD
HETATM   13  N   UNL     1      43.918 -15.841   5.856  1.00  0.00    -0.173 NA
HETATM   14  C   UNL     1      43.179 -16.430   4.902  1.00  0.00     0.090 A 
HETATM   15  C   UNL     1      42.165 -15.540   4.447  1.00  0.00     0.084 A 
BRANCH  14  16
HETATM   16  C   UNL     1      43.466 -17.796   4.447  1.00  0.00    -0.005 A 
HETATM   17  C   UNL     1      43.353 -18.151   3.093  1.00  0.00     0.017 A 
HETATM   18  C   UNL     1      43.642 -19.453   2.672  1.00  0.00     0.043 A 
HETATM   19  C   UNL     1      44.044 -20.404   3.602  1.00  0.00     0.116 A 
HETATM   20  F   UNL     1      44.323 -21.649   3.195  1.00  0.00    -0.206 F 
HETATM   21  C   UNL     1      44.161 -20.080   4.947  1.00  0.00     0.043 A 
HETATM   22  C   UNL     1      43.871 -18.780   5.368  1.00  0.00     0.017 A 
ENDBRANCH  14  16
ENDBRANCH   5  10
BRANCH   1  23
HETATM   23  C   UNL     1      39.527 -10.535   1.097  1.00  0.00     0.065 A 
HETATM   24  C   UNL     1      39.799 -11.035  -0.181  1.00  0.00     0.084 A 
HETATM   25  C   UNL     1      38.741 -11.379  -1.028  1.00  0.00     0.038 A 
HETATM   26  C   UNL     1      37.422 -11.270  -0.581  1.00  0.00     0.003 A 
HETATM   27  C   UNL     1      37.153 -10.813   0.710  1.00  0.00     0.001 A 
HETATM   28  C   UNL     1      38.203 -10.450   1.553  1.00  0.00     0.020 A 
BRANCH  24  29
HETATM   29  O   UNL     1      41.098 -11.111  -0.614  1.00  0.00    -0.350 OA
BRANCH  29  30
HETATM   30  C   UNL     1      41.333 -10.264  -1.746  1.00  0.00     0.171 C 
HETATM   31  C   UNL     1      42.106  -9.044  -1.279  1.00  0.00     0.034 C 
ENDBRANCH  29  30
ENDBRANCH  24  29
ENDBRANCH   1  23
TORSDOF 5
ENDMDL
MODEL 8
REMARK VINA RESULT:      -8.0      2.057      2.490
REMARK  5 active torsions:
REMARK  status: ('A' for Active; 'I' for Inactive)
REMARK    1  A    between atoms: C_2  and  O_3 
REMARK    2  A    between atoms: O_3  and  C_4 
REMARK    3  A    between atoms: C_5  and  C_6 
REMARK       I    between atoms: C_6  and  N_7 
REMARK    4  A    between atoms: N_10  and  C_11 
REMARK    5  A    between atoms: C_15  and  C_16 
ROOT
HETATM    1  C   UNL     1      39.850  -8.841   8.131  1.00  0.00     0.256 C 
HETATM    2  N   UNL     1      40.210 -10.040   7.506  1.00  0.00    -0.346 N 
HETATM    3  C   UNL     1      41.595 -10.463   7.233  1.00  0.00     0.146 C 
HETATM    4  C   UNL     1      41.937 -10.561   5.733  1.00  0.00     0.144 C 
HETATM    5  N   UNL     1      41.266 -11.706   5.093  1.00  0.00    -0.365 N 
HETATM    6  C   UNL     1      39.917 -11.495   4.552  1.00  0.00     0.126 C 
HETATM    7  C   UNL     1      39.044 -10.558   5.387  1.00  0.00     0.040 C 
HETATM    8  C   UNL     1      39.145 -10.831   6.887  1.00  0.00     0.127 C 
HETATM    9  O   UNL     1      38.698  -8.412   8.164  1.00  0.00    -0.267 OA
ENDROOT
BRANCH   5  10
HETATM   10  C   UNL     1      41.869 -12.935   5.078  1.00  0.00     0.122 A 
HETATM   11  N   UNL     1      42.673 -13.395   6.089  1.00  0.00    -0.262 N 
HETATM   12  H   UNL     1      42.892 -12.932   6.961  1.00  0.00     0.191 HD
HETATM   13  N   UNL     1      43.214 -14.603   5.869  1.00  0.00    -0.173 NA
HETATM   14  C   UNL     1      42.715 -14.981   4.682  1.00  0.00     0.090 A 
HETATM   15  C   UNL     1      41.852 -13.972   4.168  1.00  0.00     0.084 A 
BRANCH  14  16
HETATM   16  C   UNL     1      43.082 -16.265   4.072  1.00  0.00    -0.005 A 
HETATM   17  C   UNL     1      42.616 -16.625   2.797  1.00  0.00     0.017 A 
HETATM   18  C   UNL     1      42.985 -17.847   2.224  1.00  0.00     0.043 A 
HETATM   19  C   UNL     1      43.818 -18.711   2.923  1.00  0.00     0.116 A 
HETATM   20  F   UNL     1      44.171 -19.879   2.370  1.00  0.00    -0.206 F 
HETATM   21  C   UNL     1      44.289 -18.381   4.186  1.00  0.00     0.043 A 
HETATM   22  C   UNL     1      43.920 -17.161   4.760  1.00  0.00     0.017 A 
ENDBRANCH  14  16
ENDBRANCH   5  10
BRANCH   1  23
HETATM   23  C   UNL     1      40.885  -8.072   8.853  1.00  0.00     0.065 A 
HETATM   24  C   UNL     1      41.289  -8.449  10.138  1.00  0.00     0.084 A 
HETATM   25  C   UNL     1      42.281  -7.713  10.793  1.00  0.00     0.038 A 
HETATM   26  C   UNL     1      42.899  -6.640  10.148  1.00  0.00     0.003 A 
HETATM   27  C   UNL     1      42.526  -6.292   8.849  1.00  0.00     0.001 A 
HETATM   28  C   UNL     1      41.523  -7.010   8.197  1.00  0.00     0.020 A 
BRANCH  24  29
HETATM   29  O   UNL     1      40.656  -9.489  10.768  1.00  0.00    -0.350 OA
BRANCH  29  30
HETATM   30  C   UNL     1      40.620  -9.309  12.190  1.00  0.00     0.171 C 
HETATM   31  C   UNL     1      39.739 -10.390  12.788  1.00  0.00     0.034 C 
ENDBRANCH  29  30
ENDBRANCH  24  29
ENDBRANCH   1  23
TORSDOF 5
ENDMDL
MODEL 9
REMARK VINA RESULT:      -8.0      4.541      7.605
REMARK  5 active torsions:
REMARK  status: ('A' for Active; 'I' for Inactive)
REMARK    1  A    between atoms: C_2  and  O_3 
REMARK    2  A    between atoms: O_3  and  C_4 
REMARK    3  A    between atoms: C_5  and  C_6 
REMARK       I    between atoms: C_6  and  N_7 
REMARK    4  A    between atoms: N_10  and  C_11 
REMARK    5  A    between atoms: C_15  and  C_16 
ROOT
HETATM    1  C   UNL     1      40.668 -11.299   0.098  1.00  0.00     0.256 C 
HETATM    2  N   UNL     1      41.173 -11.999   1.200  1.00  0.00    -0.346 N 
HETATM    3  C   UNL     1      40.738 -13.344   1.613  1.00  0.00     0.146 C 
HETATM    4  C   UNL     1      40.032 -13.382   2.983  1.00  0.00     0.144 C 
HETATM    5  N   UNL     1      40.974 -13.145   4.091  1.00  0.00    -0.365 N 
HETATM    6  C   UNL     1      41.219 -11.756   4.496  1.00  0.00     0.126 C 
HETATM    7  C   UNL     1      41.247 -10.758   3.338  1.00  0.00     0.040 C 
HETATM    8  C   UNL     1      42.033 -11.269   2.132  1.00  0.00     0.127 C 
HETATM    9  O   UNL     1      40.889 -10.108  -0.109  1.00  0.00    -0.267 OA
ENDROOT
BRANCH   5  10
HETATM   10  C   UNL     1      41.641 -14.196   4.661  1.00  0.00     0.122 A 
HETATM   11  N   UNL     1      42.317 -14.107   5.850  1.00  0.00    -0.262 N 
HETATM   12  H   UNL     1      42.385 -13.305   6.462  1.00  0.00     0.191 HD
HETATM   13  N   UNL     1      42.951 -15.230   6.220  1.00  0.00    -0.173 NA
HETATM   14  C   UNL     1      42.647 -16.116   5.259  1.00  0.00     0.090 A 
HETATM   15  C   UNL     1      41.811 -15.511   4.278  1.00  0.00     0.084 A 
BRANCH  14  16
HETATM   16  C   UNL     1      43.169 -17.489   5.292  1.00  0.00    -0.005 A 
HETATM   17  C   UNL     1      43.769 -18.067   4.161  1.00  0.00     0.017 A 
HETATM   18  C   UNL     1      44.272 -19.371   4.212  1.00  0.00     0.043 A 
HETATM   19  C   UNL     1      44.177 -20.100   5.391  1.00  0.00     0.116 A 
HETATM   20  F   UNL     1      44.662 -21.348   5.436  1.00  0.00    -0.206 F 
HETATM   21  C   UNL     1      43.586 -19.554   6.521  1.00  0.00     0.043 A 
HETATM   22  C   UNL     1      43.081 -18.251   6.471  1.00  0.00     0.017 A 
ENDBRANCH  14  16
ENDBRANCH   5  10
BRANCH   1  23
HETATM   23  C   UNL     1      39.881 -12.033  -0.915  1.00  0.00     0.065 A 
HETATM   24  C   UNL     1      38.483 -12.045  -0.863  1.00  0.00     0.084 A 
HETATM   25  C   UNL     1      37.762 -12.735  -1.842  1.00  0.00     0.038 A 
HETATM   26  C   UNL     1      38.433 -13.366  -2.893  1.00  0.00     0.003 A 
HETATM   27  C   UNL     1      39.825 -13.315  -2.968  1.00  0.00     0.001 A 
HETATM   28  C   UNL     1      40.552 -12.645  -1.983  1.00  0.00     0.020 A 
BRANCH  24  29
HETATM   29  O   UNL     1      37.840 -11.444   0.188  1.00  0.00    -0.350 OA
BRANCH  29  30
HETATM   30  C   UNL     1      37.125 -10.272  -0.223  1.00  0.00     0.171 C 
HETATM   31  C   UNL     1      37.483  -9.137   0.718  1.00  0.00     0.034 C 
ENDBRANCH  29  30
ENDBRANCH  24  29
ENDBRANCH   1  23
TORSDOF 5
ENDMDL
MODEL 10
REMARK VINA RESULT:      -7.8      5.956      9.338
REMARK  5 active torsions:
REMARK  status: ('A' for Active; 'I' for Inactive)
REMARK    1  A    between atoms: C_2  and  O_3 
REMARK    2  A    between atoms: O_3  and  C_4 
REMARK    3  A    between atoms: C_5  and  C_6 
REMARK       I    between atoms: C_6  and  N_7 
REMARK    4  A    between atoms: N_10  and  C_11 
REMARK    5  A    between atoms: C_15  and  C_16 
ROOT
HETATM    1  C   UNL     1      41.501 -16.214   3.043  1.00  0.00     0.256 C 
HETATM    2  N   UNL     1      41.558 -15.083   2.220  1.00  0.00    -0.346 N 
HETATM    3  C   UNL     1      41.527 -13.691   2.702  1.00  0.00     0.146 C 
HETATM    4  C   UNL     1      40.276 -12.904   2.264  1.00  0.00     0.144 C 
HETATM    5  N   UNL     1      40.298 -12.600   0.822  1.00  0.00    -0.365 N 
HETATM    6  C   UNL     1      39.730 -13.594  -0.096  1.00  0.00     0.126 C 
HETATM    7  C   UNL     1      39.989 -15.046   0.310  1.00  0.00     0.040 C 
HETATM    8  C   UNL     1      41.423 -15.285   0.777  1.00  0.00     0.127 C 
HETATM    9  O   UNL     1      41.320 -17.354   2.619  1.00  0.00    -0.267 OA
ENDROOT
BRANCH   5  10
HETATM   10  C   UNL     1      40.896 -11.454   0.371  1.00  0.00     0.122 A 
HETATM   11  N   UNL     1      41.543 -10.566   1.191  1.00  0.00    -0.262 N 
HETATM   12  H   UNL     1      41.695 -10.645   2.188  1.00  0.00     0.191 HD
HETATM   13  N   UNL     1      42.022  -9.477   0.571  1.00  0.00    -0.173 NA
HETATM   14  C   UNL     1      41.720  -9.670  -0.722  1.00  0.00     0.090 A 
HETATM   15  C   UNL     1      41.035 -10.907  -0.888  1.00  0.00     0.084 A 
BRANCH  14  16
HETATM   16  C   UNL     1      42.071  -8.677  -1.746  1.00  0.00    -0.005 A 
HETATM   17  C   UNL     1      41.467  -8.694  -3.014  1.00  0.00     0.017 A 
HETATM   18  C   UNL     1      41.803  -7.735  -3.974  1.00  0.00     0.043 A 
HETATM   19  C   UNL     1      42.742  -6.756  -3.671  1.00  0.00     0.116 A 
HETATM   20  F   UNL     1      43.059  -5.837  -4.592  1.00  0.00    -0.206 F 
HETATM   21  C   UNL     1      43.356  -6.719  -2.427  1.00  0.00     0.043 A 
HETATM   22  C   UNL     1      43.022  -7.679  -1.467  1.00  0.00     0.017 A 
ENDBRANCH  14  16
ENDBRANCH   5  10
BRANCH   1  23
HETATM   23  C   UNL     1      41.736 -16.055   4.494  1.00  0.00     0.065 A 
HETATM   24  C   UNL     1      43.002 -16.288   5.042  1.00  0.00     0.084 A 
HETATM   25  C   UNL     1      43.202 -16.117   6.415  1.00  0.00     0.038 A 
HETATM   26  C   UNL     1      42.156 -15.667   7.224  1.00  0.00     0.003 A 
HETATM   27  C   UNL     1      40.906 -15.392   6.669  1.00  0.00     0.001 A 
HETATM   28  C   UNL     1      40.694 -15.580   5.303  1.00  0.00     0.020 A 
BRANCH  24  29
HETATM   29  O   UNL     1      44.011 -16.754   4.239  1.00  0.00    -0.350 OA
BRANCH  29  30
HETATM   30  C   UNL     1      44.373 -18.103   4.565  1.00  0.00     0.171 C 
HETATM   31  C   UNL     1      44.238 -18.951   3.314  1.00  0.00     0.034 C 
ENDBRANCH  29  30
ENDBRANCH  24  29
ENDBRANCH   1  23
TORSDOF 5
ENDMDL
