MODEL 1
REMARK VINA RESULT:      -8.8      0.000      0.000
REMARK  7 active torsions:
REMARK  status: ('A' for Active; 'I' for Inactive)
REMARK    1  A    between atoms: C_3  and  C_4 
REMARK    2  A    between atoms: C_9  and  N_10 
REMARK       I    between atoms: N_10  and  C_11 
REMARK       I    between atoms: C_11  and  N_15 
REMARK    3  A    between atoms: N_15  and  CA_16 
REMARK    4  A    between atoms: CA_16  and  C_17 
REMARK    5  A    between atoms: CA_16  and  CB_19 
REMARK    6  A    between atoms: C_17  and  O_18 
REMARK    7  A    between atoms: CB_19  and  CG_20 
ROOT
HETATM    1  N   UNK A   0      42.640 -11.358   3.253  1.00  0.00    -0.309 N 
HETATM    2  C   UNK A   0      42.050 -12.409   2.627  1.00  0.00     0.321 C 
HETATM    3  O   UNK A   0      41.542 -12.228   1.520  1.00  0.00    -0.247 OA
HETATM    4  H   UNK A   0      42.706 -10.572   2.618  1.00  0.00     0.170 HD
ATOM      5  N   TRP A   1      42.103 -13.629   3.216  1.00  0.00    -0.336 N 
ATOM      6  H   TRP A   1      42.827 -13.789   3.900  1.00  0.00     0.164 HD
ENDROOT
BRANCH   5   7
ATOM      7  CA  TRP A   1      41.740 -14.844   2.487  1.00  0.00     0.114 C 
BRANCH   7   8
ATOM      8  C   TRP A   1      40.594 -15.574   3.209  1.00  0.00     0.189 C 
BRANCH   8   9
ATOM      9  O   TRP A   1      39.333 -15.304   2.595  1.00  0.00    -0.399 OA
ATOM     10  H   TRP A   1      39.159 -14.354   2.707  1.00  0.00     0.209 HD
ENDBRANCH   8   9
ENDBRANCH   7   8
BRANCH   7  11
ATOM     11  CB  TRP A   1      42.979 -15.728   2.193  1.00  0.00     0.068 C 
BRANCH  11  12
ATOM     12  CG  TRP A   1      43.379 -16.703   3.265  1.00  0.00    -0.028 A 
ATOM     13  CD2 TRP A   1      43.464 -18.133   3.179  1.00  0.00    -0.002 A 
ATOM     14  CE2 TRP A   1      43.907 -18.601   4.417  1.00  0.00     0.042 A 
ATOM     15  CE3 TRP A   1      43.215 -19.082   2.165  1.00  0.00     0.014 A 
ATOM     16  CZ2 TRP A   1      44.141 -19.955   4.682  1.00  0.00     0.030 A 
ATOM     17  NE1 TRP A   1      44.038 -17.508   5.241  1.00  0.00    -0.365 N 
ATOM     18  CH2 TRP A   1      43.918 -20.867   3.648  1.00  0.00     0.002 A 
ATOM     19  CZ3 TRP A   1      43.458 -20.440   2.406  1.00  0.00     0.001 A 
ATOM     20  HE1 TRP A   1      44.323 -17.553   6.208  1.00  0.00     0.165 HD
ATOM     21  CD1 TRP A   1      43.721 -16.364   4.563  1.00  0.00     0.096 A 
ENDBRANCH  11  12
ENDBRANCH   7  11
ENDBRANCH   5   7
BRANCH   1  22
HETATM   22  C   UNK A   0      43.221 -11.191   4.520  1.00  0.00     0.036 A 
HETATM   23  C   UNK A   0      44.493 -11.632   4.873  1.00  0.00     0.030 A 
HETATM   24  C   UNK A   0      45.006 -11.361   6.148  1.00  0.00     0.018 A 
HETATM   25  C   UNK A   0      44.242 -10.668   7.098  1.00  0.00     0.015 A 
HETATM   26  C   UNK A   0      42.930 -10.274   6.777  1.00  0.00    -0.046 A 
HETATM   27  C   UNK A   0      42.038  -9.542   7.745  1.00  0.00     0.049 C 
HETATM   28  C   UNK A   0      42.438 -10.545   5.486  1.00  0.00     0.037 A 
BRANCH  25  29
HETATM   29  C   UNK A   0      44.851 -10.344   8.423  1.00  0.00     0.156 C 
HETATM   30  C   UNK A   0      45.659  -9.078   8.550  1.00  0.00     0.097 C 
HETATM   31  O   UNK A   0      44.667 -11.078   9.390  1.00  0.00    -0.293 OA
ENDBRANCH  25  29
ENDBRANCH   1  22
TORSDOF 7
ENDMDL
MODEL 2
REMARK VINA RESULT:      -8.6      3.104      6.808
REMARK  7 active torsions:
REMARK  status: ('A' for Active; 'I' for Inactive)
REMARK    1  A    between atoms: C_3  and  C_4 
REMARK    2  A    between atoms: C_9  and  N_10 
REMARK       I    between atoms: N_10  and  C_11 
REMARK       I    between atoms: C_11  and  N_15 
REMARK    3  A    between atoms: N_15  and  CA_16 
REMARK    4  A    between atoms: CA_16  and  C_17 
REMARK    5  A    between atoms: CA_16  and  CB_19 
REMARK    6  A    between atoms: C_17  and  O_18 
REMARK    7  A    between atoms: CB_19  and  CG_20 
ROOT
HETATM    1  N   UNK A   0      39.125 -13.254   3.242  1.00  0.00    -0.309 N 
HETATM    2  C   UNK A   0      39.833 -12.607   4.205  1.00  0.00     0.321 C 
HETATM    3  O   UNK A   0      39.320 -12.455   5.314  1.00  0.00    -0.247 OA
HETATM    4  H   UNK A   0      38.293 -13.666   3.646  1.00  0.00     0.170 HD
ATOM      5  N   TRP A   1      41.100 -12.214   3.925  1.00  0.00    -0.336 N 
ATOM      6  H   TRP A   1      41.580 -12.681   3.170  1.00  0.00     0.164 HD
ENDROOT
BRANCH   5   7
ATOM      7  CA  TRP A   1      42.010 -11.767   4.980  1.00  0.00     0.114 C 
BRANCH   7   8
ATOM      8  C   TRP A   1      42.392 -10.293   4.761  1.00  0.00     0.189 C 
BRANCH   8   9
ATOM      9  O   TRP A   1      42.049  -9.853   3.446  1.00  0.00    -0.399 OA
ATOM     10  H   TRP A   1      41.283 -10.379   3.160  1.00  0.00     0.209 HD
ENDBRANCH   8   9
ENDBRANCH   7   8
BRANCH   7  11
ATOM     11  CB  TRP A   1      43.217 -12.726   5.140  1.00  0.00     0.068 C 
BRANCH  11  12
ATOM     12  CG  TRP A   1      42.933 -14.195   4.989  1.00  0.00    -0.028 A 
ATOM     13  CD2 TRP A   1      43.021 -15.001   3.805  1.00  0.00    -0.002 A 
ATOM     14  CE2 TRP A   1      42.692 -16.309   4.164  1.00  0.00     0.042 A 
ATOM     15  CE3 TRP A   1      43.357 -14.751   2.458  1.00  0.00     0.014 A 
ATOM     16  CZ2 TRP A   1      42.710 -17.376   3.259  1.00  0.00     0.030 A 
ATOM     17  NE1 TRP A   1      42.366 -16.294   5.499  1.00  0.00    -0.365 N 
ATOM     18  CH2 TRP A   1      43.080 -17.102   1.940  1.00  0.00     0.002 A 
ATOM     19  CZ3 TRP A   1      43.396 -15.807   1.541  1.00  0.00     0.001 A 
ATOM     20  HE1 TRP A   1      42.065 -17.103   6.023  1.00  0.00     0.165 HD
ATOM     21  CD1 TRP A   1      42.504 -15.031   6.005  1.00  0.00     0.096 A 
ENDBRANCH  11  12
ENDBRANCH   7  11
ENDBRANCH   5   7
BRANCH   1  22
HETATM   22  C   UNK A   0      39.359 -13.516   1.884  1.00  0.00     0.036 A 
HETATM   23  C   UNK A   0      39.903 -14.698   1.387  1.00  0.00     0.030 A 
HETATM   24  C   UNK A   0      40.040 -14.886   0.006  1.00  0.00     0.018 A 
HETATM   25  C   UNK A   0      39.658 -13.884  -0.897  1.00  0.00     0.015 A 
HETATM   26  C   UNK A   0      39.168 -12.660  -0.408  1.00  0.00    -0.046 A 
HETATM   27  C   UNK A   0      38.754 -11.528  -1.310  1.00  0.00     0.049 C 
HETATM   28  C   UNK A   0      39.027 -12.495   0.983  1.00  0.00     0.037 A 
BRANCH  25  29
HETATM   29  C   UNK A   0      39.761 -14.152  -2.364  1.00  0.00     0.156 C 
HETATM   30  C   UNK A   0      38.639 -14.900  -3.036  1.00  0.00     0.097 C 
HETATM   31  O   UNK A   0      40.723 -13.741  -3.007  1.00  0.00    -0.293 OA
ENDBRANCH  25  29
ENDBRANCH   1  22
TORSDOF 7
ENDMDL
MODEL 3
REMARK VINA RESULT:      -8.5      1.941      2.698
REMARK  7 active torsions:
REMARK  status: ('A' for Active; 'I' for Inactive)
REMARK    1  A    between atoms: C_3  and  C_4 
REMARK    2  A    between atoms: C_9  and  N_10 
REMARK       I    between atoms: N_10  and  C_11 
REMARK       I    between atoms: C_11  and  N_15 
REMARK    3  A    between atoms: N_15  and  CA_16 
REMARK    4  A    between atoms: CA_16  and  C_17 
REMARK    5  A    between atoms: CA_16  and  CB_19 
REMARK    6  A    between atoms: C_17  and  O_18 
REMARK    7  A    between atoms: CB_19  and  CG_20 
ROOT
HETATM    1  N   UNK A   0      41.208 -11.656   5.457  1.00  0.00    -0.309 N 
HETATM    2  C   UNK A   0      40.951 -12.981   5.303  1.00  0.00     0.321 C 
HETATM    3  O   UNK A   0      40.012 -13.321   4.583  1.00  0.00    -0.247 OA
HETATM    4  H   UNK A   0      40.648 -11.119   4.806  1.00  0.00     0.170 HD
ATOM      5  N   TRP A   1      41.781 -13.876   5.892  1.00  0.00    -0.336 N 
ATOM      6  H   TRP A   1      42.709 -13.565   6.137  1.00  0.00     0.164 HD
ENDROOT
BRANCH   5   7
ATOM      7  CA  TRP A   1      41.737 -15.297   5.551  1.00  0.00     0.114 C 
BRANCH   7   8
ATOM      8  C   TRP A   1      40.939 -16.073   6.612  1.00  0.00     0.189 C 
BRANCH   8   9
ATOM      9  O   TRP A   1      39.587 -15.620   6.686  1.00  0.00    -0.399 OA
ATOM     10  H   TRP A   1      39.134 -15.941   5.888  1.00  0.00     0.209 HD
ENDBRANCH   8   9
ENDBRANCH   7   8
BRANCH   7  11
ATOM     11  CB  TRP A   1      43.152 -15.864   5.270  1.00  0.00     0.068 C 
BRANCH  11  12
ATOM     12  CG  TRP A   1      43.269 -16.854   4.145  1.00  0.00    -0.028 A 
ATOM     13  CD2 TRP A   1      43.565 -18.256   4.222  1.00  0.00    -0.002 A 
ATOM     14  CE2 TRP A   1      43.537 -18.761   2.921  1.00  0.00     0.042 A 
ATOM     15  CE3 TRP A   1      43.848 -19.154   5.272  1.00  0.00     0.014 A 
ATOM     16  CZ2 TRP A   1      43.746 -20.113   2.622  1.00  0.00     0.030 A 
ATOM     17  NE1 TRP A   1      43.286 -17.703   2.080  1.00  0.00    -0.365 N 
ATOM     18  CH2 TRP A   1      43.990 -20.983   3.688  1.00  0.00     0.002 A 
ATOM     19  CZ3 TRP A   1      44.044 -20.512   4.996  1.00  0.00     0.001 A 
ATOM     20  HE1 TRP A   1      43.233 -17.773   1.074  1.00  0.00     0.165 HD
ATOM     21  CD1 TRP A   1      43.127 -16.553   2.802  1.00  0.00     0.096 A 
ENDBRANCH  11  12
ENDBRANCH   7  11
ENDBRANCH   5   7
BRANCH   1  22
HETATM   22  C   UNK A   0      42.115 -10.934   6.248  1.00  0.00     0.036 A 
HETATM   23  C   UNK A   0      41.763  -9.910   7.124  1.00  0.00     0.030 A 
HETATM   24  C   UNK A   0      42.739  -9.293   7.916  1.00  0.00     0.018 A 
HETATM   25  C   UNK A   0      44.086  -9.672   7.824  1.00  0.00     0.015 A 
HETATM   26  C   UNK A   0      44.466 -10.658   6.896  1.00  0.00    -0.046 A 
HETATM   27  C   UNK A   0      45.892 -11.109   6.722  1.00  0.00     0.049 C 
HETATM   28  C   UNK A   0      43.468 -11.275   6.118  1.00  0.00     0.037 A 
BRANCH  25  29
HETATM   29  C   UNK A   0      45.084  -9.031   8.733  1.00  0.00     0.156 C 
HETATM   30  C   UNK A   0      45.307  -9.639  10.094  1.00  0.00     0.097 C 
HETATM   31  O   UNK A   0      45.729  -8.054   8.363  1.00  0.00    -0.293 OA
ENDBRANCH  25  29
ENDBRANCH   1  22
TORSDOF 7
ENDMDL
MODEL 4
REMARK VINA RESULT:      -8.4      3.057      6.355
REMARK  7 active torsions:
REMARK  status: ('A' for Active; 'I' for Inactive)
REMARK    1  A    between atoms: C_3  and  C_4 
REMARK    2  A    between atoms: C_9  and  N_10 
REMARK       I    between atoms: N_10  and  C_11 
REMARK       I    between atoms: C_11  and  N_15 
REMARK    3  A    between atoms: N_15  and  CA_16 
REMARK    4  A    between atoms: CA_16  and  C_17 
REMARK    5  A    between atoms: CA_16  and  CB_19 
REMARK    6  A    between atoms: C_17  and  O_18 
REMARK    7  A    between atoms: CB_19  and  CG_20 
ROOT
HETATM    1  N   UNK A   0      39.007 -12.882   3.855  1.00  0.00    -0.309 N 
HETATM    2  C   UNK A   0      39.697 -12.999   5.020  1.00  0.00     0.321 C 
HETATM    3  O   UNK A   0      39.194 -12.553   6.051  1.00  0.00    -0.247 OA
HETATM    4  H   UNK A   0      38.067 -12.557   4.043  1.00  0.00     0.170 HD
ATOM      5  N   TRP A   1      40.879 -13.663   5.010  1.00  0.00    -0.336 N 
ATOM      6  H   TRP A   1      41.049 -14.308   4.253  1.00  0.00     0.164 HD
ENDROOT
BRANCH   5   7
ATOM      7  CA  TRP A   1      41.537 -14.067   6.252  1.00  0.00     0.114 C 
BRANCH   7   8
ATOM      8  C   TRP A   1      43.029 -13.696   6.207  1.00  0.00     0.189 C 
BRANCH   8   9
ATOM      9  O   TRP A   1      43.525 -13.363   7.504  1.00  0.00    -0.399 OA
ATOM     10  H   TRP A   1      44.431 -13.711   7.561  1.00  0.00     0.209 HD
ENDBRANCH   8   9
ENDBRANCH   7   8
BRANCH   7  11
ATOM     11  CB  TRP A   1      41.254 -15.552   6.593  1.00  0.00     0.068 C 
BRANCH  11  12
ATOM     12  CG  TRP A   1      42.279 -16.554   6.137  1.00  0.00    -0.028 A 
ATOM     13  CD2 TRP A   1      42.549 -17.004   4.802  1.00  0.00    -0.002 A 
ATOM     14  CE2 TRP A   1      43.607 -17.913   4.873  1.00  0.00     0.042 A 
ATOM     15  CE3 TRP A   1      42.004 -16.725   3.532  1.00  0.00     0.014 A 
ATOM     16  CZ2 TRP A   1      44.162 -18.528   3.745  1.00  0.00     0.030 A 
ATOM     17  NE1 TRP A   1      43.935 -18.050   6.201  1.00  0.00    -0.365 N 
ATOM     18  CH2 TRP A   1      43.622 -18.204   2.498  1.00  0.00     0.002 A 
ATOM     19  CZ3 TRP A   1      42.555 -17.318   2.389  1.00  0.00     0.001 A 
ATOM     20  HE1 TRP A   1      44.655 -18.665   6.550  1.00  0.00     0.165 HD
ATOM     21  CD1 TRP A   1      43.144 -17.243   6.970  1.00  0.00     0.096 A 
ENDBRANCH  11  12
ENDBRANCH   7  11
ENDBRANCH   5   7
BRANCH   1  22
HETATM   22  C   UNK A   0      39.309 -13.189   2.519  1.00  0.00     0.036 A 
HETATM   23  C   UNK A   0      39.840 -14.401   2.085  1.00  0.00     0.030 A 
HETATM   24  C   UNK A   0      40.048 -14.632   0.720  1.00  0.00     0.018 A 
HETATM   25  C   UNK A   0      39.753 -13.643  -0.230  1.00  0.00     0.015 A 
HETATM   26  C   UNK A   0      39.278 -12.390   0.199  1.00  0.00    -0.046 A 
HETATM   27  C   UNK A   0      38.954 -11.270  -0.754  1.00  0.00     0.049 C 
HETATM   28  C   UNK A   0      39.064 -12.183   1.575  1.00  0.00     0.037 A 
BRANCH  25  29
HETATM   29  C   UNK A   0      39.929 -13.954  -1.681  1.00  0.00     0.156 C 
HETATM   30  C   UNK A   0      38.934 -14.872  -2.343  1.00  0.00     0.097 C 
HETATM   31  O   UNK A   0      40.845 -13.445  -2.321  1.00  0.00    -0.293 OA
ENDBRANCH  25  29
ENDBRANCH   1  22
TORSDOF 7
ENDMDL
MODEL 5
REMARK VINA RESULT:      -8.3      3.060      4.660
REMARK  7 active torsions:
REMARK  status: ('A' for Active; 'I' for Inactive)
REMARK    1  A    between atoms: C_3  and  C_4 
REMARK    2  A    between atoms: C_9  and  N_10 
REMARK       I    between atoms: N_10  and  C_11 
REMARK       I    between atoms: C_11  and  N_15 
REMARK    3  A    between atoms: N_15  and  CA_16 
REMARK    4  A    between atoms: CA_16  and  C_17 
REMARK    5  A    between atoms: CA_16  and  CB_19 
REMARK    6  A    between atoms: C_17  and  O_18 
REMARK    7  A    between atoms: CB_19  and  CG_20 
ROOT
HETATM    1  N   UNK A   0      45.557 -10.390   8.312  1.00  0.00    -0.309 N 
HETATM    2  C   UNK A   0      45.298 -11.065   7.161  1.00  0.00     0.321 C 
HETATM    3  O   UNK A   0      46.223 -11.268   6.374  1.00  0.00    -0.247 OA
HETATM    4  H   UNK A   0      46.557 -10.275   8.424  1.00  0.00     0.170 HD
ATOM      5  N   TRP A   1      44.047 -11.547   6.959  1.00  0.00    -0.336 N 
ATOM      6  H   TRP A   1      43.458 -11.679   7.768  1.00  0.00     0.164 HD
ENDROOT
BRANCH   5   7
ATOM      7  CA  TRP A   1      43.762 -12.507   5.893  1.00  0.00     0.114 C 
BRANCH   7   8
ATOM      8  C   TRP A   1      43.336 -11.768   4.613  1.00  0.00     0.189 C 
BRANCH   8   9
ATOM      9  O   TRP A   1      44.452 -11.510   3.761  1.00  0.00    -0.399 OA
ATOM     10  H   TRP A   1      44.881 -10.702   4.091  1.00  0.00     0.209 HD
ENDBRANCH   8   9
ENDBRANCH   7   8
BRANCH   7  11
ATOM     11  CB  TRP A   1      42.773 -13.605   6.360  1.00  0.00     0.068 C 
BRANCH  11  12
ATOM     12  CG  TRP A   1      43.160 -15.028   6.066  1.00  0.00    -0.028 A 
ATOM     13  CD2 TRP A   1      43.172 -15.703   4.800  1.00  0.00    -0.002 A 
ATOM     14  CE2 TRP A   1      43.632 -17.002   5.022  1.00  0.00     0.042 A 
ATOM     15  CE3 TRP A   1      42.841 -15.336   3.478  1.00  0.00     0.014 A 
ATOM     16  CZ2 TRP A   1      43.807 -17.936   3.994  1.00  0.00     0.030 A 
ATOM     17  NE1 TRP A   1      43.844 -17.131   6.373  1.00  0.00    -0.365 N 
ATOM     18  CH2 TRP A   1      43.504 -17.531   2.691  1.00  0.00     0.002 A 
ATOM     19  CZ3 TRP A   1      43.024 -16.251   2.434  1.00  0.00     0.001 A 
ATOM     20  HE1 TRP A   1      44.160 -17.978   6.823  1.00  0.00     0.165 HD
ATOM     21  CD1 TRP A   1      43.562 -15.956   7.012  1.00  0.00     0.096 A 
ENDBRANCH  11  12
ENDBRANCH   7  11
ENDBRANCH   5   7
BRANCH   1  22
HETATM   22  C   UNK A   0      44.749  -9.922   9.359  1.00  0.00     0.036 A 
HETATM   23  C   UNK A   0      44.431 -10.651  10.502  1.00  0.00     0.030 A 
HETATM   24  C   UNK A   0      43.666 -10.069  11.520  1.00  0.00     0.018 A 
HETATM   25  C   UNK A   0      43.185  -8.757  11.397  1.00  0.00     0.015 A 
HETATM   26  C   UNK A   0      43.443  -8.031  10.220  1.00  0.00    -0.046 A 
HETATM   27  C   UNK A   0      42.948  -6.626  10.003  1.00  0.00     0.049 C 
HETATM   28  C   UNK A   0      44.224  -8.630   9.214  1.00  0.00     0.037 A 
BRANCH  25  29
HETATM   29  C   UNK A   0      42.427  -8.153  12.535  1.00  0.00     0.156 C 
HETATM   30  C   UNK A   0      43.204  -7.483  13.638  1.00  0.00     0.097 C 
HETATM   31  O   UNK A   0      41.199  -8.174  12.548  1.00  0.00    -0.293 OA
ENDBRANCH  25  29
ENDBRANCH   1  22
TORSDOF 7
ENDMDL
MODEL 6
REMARK VINA RESULT:      -8.3      3.501      6.852
REMARK  7 active torsions:
REMARK  status: ('A' for Active; 'I' for Inactive)
REMARK    1  A    between atoms: C_3  and  C_4 
REMARK    2  A    between atoms: C_9  and  N_10 
REMARK       I    between atoms: N_10  and  C_11 
REMARK       I    between atoms: C_11  and  N_15 
REMARK    3  A    between atoms: N_15  and  CA_16 
REMARK    4  A    between atoms: CA_16  and  C_17 
REMARK    5  A    between atoms: CA_16  and  CB_19 
REMARK    6  A    between atoms: C_17  and  O_18 
REMARK    7  A    between atoms: CB_19  and  CG_20 
ROOT
HETATM    1  N   UNK A   0      39.938 -15.376   0.457  1.00  0.00    -0.309 N 
HETATM    2  C   UNK A   0      39.868 -14.398  -0.483  1.00  0.00     0.321 C 
HETATM    3  O   UNK A   0      38.971 -14.452  -1.325  1.00  0.00    -0.247 OA
HETATM    4  H   UNK A   0      39.110 -15.957   0.412  1.00  0.00     0.170 HD
ATOM      5  N   TRP A   1      40.746 -13.367  -0.416  1.00  0.00    -0.336 N 
ATOM      6  H   TRP A   1      41.187 -13.185   0.473  1.00  0.00     0.164 HD
ENDROOT
BRANCH   5   7
ATOM      7  CA  TRP A   1      40.561 -12.154  -1.211  1.00  0.00     0.114 C 
BRANCH   7   8
ATOM      8  C   TRP A   1      41.527 -12.152  -2.409  1.00  0.00     0.189 C 
BRANCH   8   9
ATOM      9  O   TRP A   1      41.272 -13.248  -3.288  1.00  0.00    -0.399 OA
ATOM     10  H   TRP A   1      40.385 -13.113  -3.662  1.00  0.00     0.209 HD
ENDBRANCH   8   9
ENDBRANCH   7   8
BRANCH   7  11
ATOM     11  CB  TRP A   1      40.623 -10.878  -0.334  1.00  0.00     0.068 C 
BRANCH  11  12
ATOM     12  CG  TRP A   1      40.180 -11.022   1.095  1.00  0.00    -0.028 A 
ATOM     13  CD2 TRP A   1      40.911 -11.570   2.202  1.00  0.00    -0.002 A 
ATOM     14  CE2 TRP A   1      40.099 -11.463   3.333  1.00  0.00     0.042 A 
ATOM     15  CE3 TRP A   1      42.190 -12.144   2.358  1.00  0.00     0.014 A 
ATOM     16  CZ2 TRP A   1      40.511 -11.869   4.608  1.00  0.00     0.030 A 
ATOM     17  NE1 TRP A   1      38.905 -10.920   2.925  1.00  0.00    -0.365 N 
ATOM     18  CH2 TRP A   1      41.796 -12.401   4.737  1.00  0.00     0.002 A 
ATOM     19  CZ3 TRP A   1      42.626 -12.541   3.628  1.00  0.00     0.001 A 
ATOM     20  HE1 TRP A   1      38.118 -10.749   3.534  1.00  0.00     0.165 HD
ATOM     21  CD1 TRP A   1      38.939 -10.654   1.585  1.00  0.00     0.096 A 
ENDBRANCH  11  12
ENDBRANCH   7  11
ENDBRANCH   5   7
BRANCH   1  22
HETATM   22  C   UNK A   0      40.854 -15.667   1.480  1.00  0.00     0.036 A 
HETATM   23  C   UNK A   0      42.225 -15.829   1.295  1.00  0.00     0.030 A 
HETATM   24  C   UNK A   0      43.063 -16.057   2.393  1.00  0.00     0.018 A 
HETATM   25  C   UNK A   0      42.539 -16.153   3.690  1.00  0.00     0.015 A 
HETATM   26  C   UNK A   0      41.149 -16.057   3.885  1.00  0.00    -0.046 A 
HETATM   27  C   UNK A   0      40.506 -16.166   5.242  1.00  0.00     0.049 C 
HETATM   28  C   UNK A   0      40.325 -15.815   2.770  1.00  0.00     0.037 A 
BRANCH  25  29
HETATM   29  C   UNK A   0      43.477 -16.332   4.840  1.00  0.00     0.156 C 
HETATM   30  C   UNK A   0      44.126 -17.678   5.032  1.00  0.00     0.097 C 
HETATM   31  O   UNK A   0      43.734 -15.392   5.588  1.00  0.00    -0.293 OA
ENDBRANCH  25  29
ENDBRANCH   1  22
TORSDOF 7
ENDMDL
MODEL 7
REMARK VINA RESULT:      -8.2      4.394      5.735
REMARK  7 active torsions:
REMARK  status: ('A' for Active; 'I' for Inactive)
REMARK    1  A    between atoms: C_3  and  C_4 
REMARK    2  A    between atoms: C_9  and  N_10 
REMARK       I    between atoms: N_10  and  C_11 
REMARK       I    between atoms: C_11  and  N_15 
REMARK    3  A    between atoms: N_15  and  CA_16 
REMARK    4  A    between atoms: CA_16  and  C_17 
REMARK    5  A    between atoms: CA_16  and  CB_19 
REMARK    6  A    between atoms: C_17  and  O_18 
REMARK    7  A    between atoms: CB_19  and  CG_20 
ROOT
HETATM    1  N   UNK A   0      40.033 -13.389  -1.054  1.00  0.00    -0.309 N 
HETATM    2  C   UNK A   0      40.095 -14.461  -0.222  1.00  0.00     0.321 C 
HETATM    3  O   UNK A   0      39.448 -15.469  -0.507  1.00  0.00    -0.247 OA
HETATM    4  H   UNK A   0      39.552 -13.644  -1.908  1.00  0.00     0.170 HD
ATOM      5  N   TRP A   1      40.919 -14.402   0.853  1.00  0.00    -0.336 N 
ATOM      6  H   TRP A   1      41.677 -13.736   0.827  1.00  0.00     0.164 HD
ENDROOT
BRANCH   5   7
ATOM      7  CA  TRP A   1      41.247 -15.597   1.629  1.00  0.00     0.114 C 
BRANCH   7   8
ATOM      8  C   TRP A   1      40.458 -15.606   2.949  1.00  0.00     0.189 C 
BRANCH   8   9
ATOM      9  O   TRP A   1      39.049 -15.631   2.717  1.00  0.00    -0.399 OA
ATOM     10  H   TRP A   1      38.915 -15.961   1.813  1.00  0.00     0.209 HD
ENDBRANCH   8   9
ENDBRANCH   7   8
BRANCH   7  11
ATOM     11  CB  TRP A   1      42.778 -15.770   1.796  1.00  0.00     0.068 C 
BRANCH  11  12
ATOM     12  CG  TRP A   1      43.238 -16.625   2.944  1.00  0.00    -0.028 A 
ATOM     13  CD2 TRP A   1      43.377 -18.053   2.988  1.00  0.00    -0.002 A 
ATOM     14  CE2 TRP A   1      43.863 -18.386   4.254  1.00  0.00     0.042 A 
ATOM     15  CE3 TRP A   1      43.145 -19.101   2.073  1.00  0.00     0.014 A 
ATOM     16  CZ2 TRP A   1      44.155 -19.700   4.637  1.00  0.00     0.030 A 
ATOM     17  NE1 TRP A   1      43.967 -17.217   4.969  1.00  0.00    -0.365 N 
ATOM     18  CH2 TRP A   1      43.947 -20.712   3.697  1.00  0.00     0.002 A 
ATOM     19  CZ3 TRP A   1      43.446 -20.420   2.432  1.00  0.00     0.001 A 
ATOM     20  HE1 TRP A   1      44.273 -17.161   5.929  1.00  0.00     0.165 HD
ATOM     21  CD1 TRP A   1      43.592 -16.154   4.196  1.00  0.00     0.096 A 
ENDBRANCH  11  12
ENDBRANCH   7  11
ENDBRANCH   5   7
BRANCH   1  22
HETATM   22  C   UNK A   0      40.555 -12.087  -0.993  1.00  0.00     0.036 A 
HETATM   23  C   UNK A   0      41.025 -11.476   0.167  1.00  0.00     0.030 A 
HETATM   24  C   UNK A   0      41.585 -10.194   0.111  1.00  0.00     0.018 A 
HETATM   25  C   UNK A   0      41.658  -9.493  -1.102  1.00  0.00     0.015 A 
HETATM   26  C   UNK A   0      41.128 -10.072  -2.269  1.00  0.00    -0.046 A 
HETATM   27  C   UNK A   0      41.151  -9.379  -3.606  1.00  0.00     0.049 C 
HETATM   28  C   UNK A   0      40.580 -11.366  -2.194  1.00  0.00     0.037 A 
BRANCH  25  29
HETATM   29  C   UNK A   0      42.321  -8.154  -1.127  1.00  0.00     0.156 C 
HETATM   30  C   UNK A   0      41.506  -6.944  -0.753  1.00  0.00     0.097 C 
HETATM   31  O   UNK A   0      43.511  -8.053  -1.414  1.00  0.00    -0.293 OA
ENDBRANCH  25  29
ENDBRANCH   1  22
TORSDOF 7
ENDMDL
MODEL 8
REMARK VINA RESULT:      -8.1      3.606      6.669
REMARK  7 active torsions:
REMARK  status: ('A' for Active; 'I' for Inactive)
REMARK    1  A    between atoms: C_3  and  C_4 
REMARK    2  A    between atoms: C_9  and  N_10 
REMARK       I    between atoms: N_10  and  C_11 
REMARK       I    between atoms: C_11  and  N_15 
REMARK    3  A    between atoms: N_15  and  CA_16 
REMARK    4  A    between atoms: CA_16  and  C_17 
REMARK    5  A    between atoms: CA_16  and  CB_19 
REMARK    6  A    between atoms: C_17  and  O_18 
REMARK    7  A    between atoms: CB_19  and  CG_20 
ROOT
HETATM    1  N   UNK A   0      39.604 -14.591   0.205  1.00  0.00    -0.309 N 
HETATM    2  C   UNK A   0      40.299 -14.868   1.339  1.00  0.00     0.321 C 
HETATM    3  O   UNK A   0      39.949 -15.828   2.027  1.00  0.00    -0.247 OA
HETATM    4  H   UNK A   0      38.956 -15.343   0.007  1.00  0.00     0.170 HD
ATOM      5  N   TRP A   1      41.390 -14.119   1.632  1.00  0.00    -0.336 N 
ATOM      6  H   TRP A   1      41.833 -13.620   0.875  1.00  0.00     0.164 HD
ENDROOT
BRANCH   5   7
ATOM      7  CA  TRP A   1      42.338 -14.524   2.670  1.00  0.00     0.114 C 
BRANCH   7   8
ATOM      8  C   TRP A   1      43.170 -13.314   3.129  1.00  0.00     0.189 C 
BRANCH   8   9
ATOM      9  O   TRP A   1      42.464 -12.088   2.933  1.00  0.00    -0.399 OA
ATOM     10  H   TRP A   1      41.732 -12.275   2.322  1.00  0.00     0.209 HD
ENDBRANCH   8   9
ENDBRANCH   7   8
BRANCH   7  11
ATOM     11  CB  TRP A   1      43.177 -15.751   2.232  1.00  0.00     0.068 C 
BRANCH  11  12
ATOM     12  CG  TRP A   1      43.491 -16.765   3.297  1.00  0.00    -0.028 A 
ATOM     13  CD2 TRP A   1      43.547 -18.194   3.174  1.00  0.00    -0.002 A 
ATOM     14  CE2 TRP A   1      43.906 -18.706   4.422  1.00  0.00     0.042 A 
ATOM     15  CE3 TRP A   1      43.335 -19.108   2.121  1.00  0.00     0.014 A 
ATOM     16  CZ2 TRP A   1      44.092 -20.073   4.661  1.00  0.00     0.030 A 
ATOM     17  NE1 TRP A   1      44.015 -17.640   5.283  1.00  0.00    -0.365 N 
ATOM     18  CH2 TRP A   1      43.908 -20.950   3.589  1.00  0.00     0.002 A 
ATOM     19  CZ3 TRP A   1      43.531 -20.478   2.336  1.00  0.00     0.001 A 
ATOM     20  HE1 TRP A   1      44.242 -17.719   6.263  1.00  0.00     0.165 HD
ATOM     21  CD1 TRP A   1      43.764 -16.471   4.621  1.00  0.00     0.096 A 
ENDBRANCH  11  12
ENDBRANCH   7  11
ENDBRANCH   5   7
BRANCH   1  22
HETATM   22  C   UNK A   0      39.670 -13.554  -0.738  1.00  0.00     0.036 A 
HETATM   23  C   UNK A   0      40.063 -13.713  -2.065  1.00  0.00     0.030 A 
HETATM   24  C   UNK A   0      40.035 -12.624  -2.944  1.00  0.00     0.018 A 
HETATM   25  C   UNK A   0      39.640 -11.353  -2.502  1.00  0.00     0.015 A 
HETATM   26  C   UNK A   0      39.303 -11.163  -1.150  1.00  0.00    -0.046 A 
HETATM   27  C   UNK A   0      38.885  -9.828  -0.593  1.00  0.00     0.049 C 
HETATM   28  C   UNK A   0      39.325 -12.273  -0.285  1.00  0.00     0.037 A 
BRANCH  25  29
HETATM   29  C   UNK A   0      39.563 -10.233  -3.489  1.00  0.00     0.156 C 
HETATM   30  C   UNK A   0      40.839  -9.531  -3.877  1.00  0.00     0.097 C 
HETATM   31  O   UNK A   0      38.489  -9.918  -3.993  1.00  0.00    -0.293 OA
ENDBRANCH  25  29
ENDBRANCH   1  22
TORSDOF 7
ENDMDL
MODEL 9
REMARK VINA RESULT:      -8.1      2.595      3.687
REMARK  7 active torsions:
REMARK  status: ('A' for Active; 'I' for Inactive)
REMARK    1  A    between atoms: C_3  and  C_4 
REMARK    2  A    between atoms: C_9  and  N_10 
REMARK       I    between atoms: N_10  and  C_11 
REMARK       I    between atoms: C_11  and  N_15 
REMARK    3  A    between atoms: N_15  and  CA_16 
REMARK    4  A    between atoms: CA_16  and  C_17 
REMARK    5  A    between atoms: CA_16  and  CB_19 
REMARK    6  A    between atoms: C_17  and  O_18 
REMARK    7  A    between atoms: CB_19  and  CG_20 
ROOT
HETATM    1  N   UNK A   0      42.579 -10.087   6.574  1.00  0.00    -0.309 N 
HETATM    2  C   UNK A   0      42.370 -11.231   5.870  1.00  0.00     0.321 C 
HETATM    3  O   UNK A   0      42.324 -11.168   4.641  1.00  0.00    -0.247 OA
HETATM    4  H   UNK A   0      42.824  -9.335   5.942  1.00  0.00     0.170 HD
ATOM      5  N   TRP A   1      42.288 -12.404   6.545  1.00  0.00    -0.336 N 
ATOM      6  H   TRP A   1      42.697 -12.443   7.468  1.00  0.00     0.164 HD
ENDROOT
BRANCH   5   7
ATOM      7  CA  TRP A   1      42.342 -13.689   5.851  1.00  0.00     0.114 C 
BRANCH   7   8
ATOM      8  C   TRP A   1      40.985 -14.405   5.954  1.00  0.00     0.189 C 
BRANCH   8   9
ATOM      9  O   TRP A   1      40.051 -13.648   6.724  1.00  0.00    -0.399 OA
ATOM     10  H   TRP A   1      39.292 -13.460   6.147  1.00  0.00     0.209 HD
ENDBRANCH   8   9
ENDBRANCH   7   8
BRANCH   7  11
ATOM     11  CB  TRP A   1      43.553 -14.539   6.312  1.00  0.00     0.068 C 
BRANCH  11  12
ATOM     12  CG  TRP A   1      43.617 -15.952   5.800  1.00  0.00    -0.028 A 
ATOM     13  CD2 TRP A   1      43.462 -16.417   4.451  1.00  0.00    -0.002 A 
ATOM     14  CE2 TRP A   1      43.633 -17.802   4.465  1.00  0.00     0.042 A 
ATOM     15  CE3 TRP A   1      43.200 -15.795   3.213  1.00  0.00     0.014 A 
ATOM     16  CZ2 TRP A   1      43.585 -18.588   3.307  1.00  0.00     0.030 A 
ATOM     17  NE1 TRP A   1      43.833 -18.174   5.773  1.00  0.00    -0.365 N 
ATOM     18  CH2 TRP A   1      43.358 -17.939   2.091  1.00  0.00     0.002 A 
ATOM     19  CZ3 TRP A   1      43.164 -16.562   2.041  1.00  0.00     0.001 A 
ATOM     20  HE1 TRP A   1      43.963 -19.126   6.082  1.00  0.00     0.165 HD
ATOM     21  CD1 TRP A   1      43.822 -17.074   6.584  1.00  0.00     0.096 A 
ENDBRANCH  11  12
ENDBRANCH   7  11
ENDBRANCH   5   7
BRANCH   1  22
HETATM   22  C   UNK A   0      42.600  -9.788   7.945  1.00  0.00     0.036 A 
HETATM   23  C   UNK A   0      41.502  -9.339   8.675  1.00  0.00     0.030 A 
HETATM   24  C   UNK A   0      41.611  -9.127  10.054  1.00  0.00     0.018 A 
HETATM   25  C   UNK A   0      42.828  -9.335  10.720  1.00  0.00     0.015 A 
HETATM   26  C   UNK A   0      43.962  -9.726   9.985  1.00  0.00    -0.046 A 
HETATM   27  C   UNK A   0      45.308  -9.953  10.620  1.00  0.00     0.049 C 
HETATM   28  C   UNK A   0      43.828  -9.945   8.601  1.00  0.00     0.037 A 
BRANCH  25  29
HETATM   29  C   UNK A   0      42.883  -9.159  12.203  1.00  0.00     0.156 C 
HETATM   30  C   UNK A   0      43.161  -7.784  12.752  1.00  0.00     0.097 C 
HETATM   31  O   UNK A   0      42.673 -10.109  12.952  1.00  0.00    -0.293 OA
ENDBRANCH  25  29
ENDBRANCH   1  22
TORSDOF 7
ENDMDL
MODEL 10
REMARK VINA RESULT:      -7.9      3.942      7.529
REMARK  7 active torsions:
REMARK  status: ('A' for Active; 'I' for Inactive)
REMARK    1  A    between atoms: C_3  and  C_4 
REMARK    2  A    between atoms: C_9  and  N_10 
REMARK       I    between atoms: N_10  and  C_11 
REMARK       I    between atoms: C_11  and  N_15 
REMARK    3  A    between atoms: N_15  and  CA_16 
REMARK    4  A    between atoms: CA_16  and  C_17 
REMARK    5  A    between atoms: CA_16  and  CB_19 
REMARK    6  A    between atoms: C_17  and  O_18 
REMARK    7  A    between atoms: CB_19  and  CG_20 
ROOT
HETATM    1  N   UNK A   0      39.659 -15.264   0.366  1.00  0.00    -0.309 N 
HETATM    2  C   UNK A   0      39.658 -14.491  -0.752  1.00  0.00     0.321 C 
HETATM    3  O   UNK A   0      39.079 -14.906  -1.756  1.00  0.00    -0.247 OA
HETATM    4  H   UNK A   0      39.026 -16.044   0.245  1.00  0.00     0.170 HD
ATOM      5  N   TRP A   1      40.235 -13.265  -0.695  1.00  0.00    -0.336 N 
ATOM      6  H   TRP A   1      40.348 -12.842   0.214  1.00  0.00     0.164 HD
ENDROOT
BRANCH   5   7
ATOM      7  CA  TRP A   1      40.034 -12.278  -1.755  1.00  0.00     0.114 C 
BRANCH   7   8
ATOM      8  C   TRP A   1      41.254 -12.249  -2.691  1.00  0.00     0.189 C 
BRANCH   8   9
ATOM      9  O   TRP A   1      41.387 -13.472  -3.415  1.00  0.00    -0.399 OA
ATOM     10  H   TRP A   1      41.475 -14.183  -2.760  1.00  0.00     0.209 HD
ENDBRANCH   8   9
ENDBRANCH   7   8
BRANCH   7  11
ATOM     11  CB  TRP A   1      39.632 -10.895  -1.181  1.00  0.00     0.068 C 
BRANCH  11  12
ATOM     12  CG  TRP A   1      38.969 -10.894   0.169  1.00  0.00    -0.028 A 
ATOM     13  CD2 TRP A   1      39.582 -10.763   1.460  1.00  0.00    -0.002 A 
ATOM     14  CE2 TRP A   1      38.561 -10.789   2.411  1.00  0.00     0.042 A 
ATOM     15  CE3 TRP A   1      40.908 -10.618   1.918  1.00  0.00     0.014 A 
ATOM     16  CZ2 TRP A   1      38.794 -10.648   3.785  1.00  0.00     0.030 A 
ATOM     17  NE1 TRP A   1      37.380 -10.979   1.735  1.00  0.00    -0.365 N 
ATOM     18  CH2 TRP A   1      40.115 -10.470   4.204  1.00  0.00     0.002 A 
ATOM     19  CZ3 TRP A   1      41.160 -10.458   3.286  1.00  0.00     0.001 A 
ATOM     20  HE1 TRP A   1      36.476 -11.061   2.176  1.00  0.00     0.165 HD
ATOM     21  CD1 TRP A   1      37.611 -11.047   0.389  1.00  0.00     0.096 A 
ENDBRANCH  11  12
ENDBRANCH   7  11
ENDBRANCH   5   7
BRANCH   1  22
HETATM   22  C   UNK A   0      40.277 -15.145   1.621  1.00  0.00     0.036 A 
HETATM   23  C   UNK A   0      39.907 -14.230   2.603  1.00  0.00     0.030 A 
HETATM   24  C   UNK A   0      40.547 -14.234   3.848  1.00  0.00     0.018 A 
HETATM   25  C   UNK A   0      41.587 -15.135   4.119  1.00  0.00     0.015 A 
HETATM   26  C   UNK A   0      42.016 -16.020   3.114  1.00  0.00    -0.046 A 
HETATM   27  C   UNK A   0      43.136 -17.006   3.318  1.00  0.00     0.049 C 
HETATM   28  C   UNK A   0      41.351 -16.009   1.873  1.00  0.00     0.037 A 
BRANCH  25  29
HETATM   29  C   UNK A   0      42.200 -15.147   5.482  1.00  0.00     0.156 C 
HETATM   30  C   UNK A   0      41.566 -16.007   6.545  1.00  0.00     0.097 C 
HETATM   31  O   UNK A   0      43.214 -14.497   5.716  1.00  0.00    -0.293 OA
ENDBRANCH  25  29
ENDBRANCH   1  22
TORSDOF 7
ENDMDL
