MODEL 1
REMARK VINA RESULT:      -7.9      0.000      0.000
REMARK  6 active torsions:
REMARK  status: ('A' for Active; 'I' for Inactive)
REMARK    1  A    between atoms: C_4  and  O_5 
REMARK    2  A    between atoms: O_5  and  C_6 
REMARK    3  A    between atoms: C_6  and  C_7 
REMARK    4  A    between atoms: C_10  and  C_11 
REMARK    5  A    between atoms: C_11  and  N_12 
REMARK       I    between atoms: N_12  and  C_13 
REMARK       I    between atoms: C_13  and  N_14 
REMARK    6  A    between atoms: N_14  and  C_15 
ROOT
HETATM    1  C   UNL     1      43.119 -14.470   7.131  1.00  0.00     0.165 C 
ENDROOT
BRANCH   1   2
HETATM    2  C   UNL     1      42.737 -13.210   6.389  1.00  0.00    -0.007 A 
HETATM    3  C   UNL     1      43.616 -12.123   6.220  1.00  0.00     0.077 A 
HETATM    4  C   UNL     1      43.217 -11.019   5.453  1.00  0.00     0.044 A 
HETATM    5  C   UNL     1      41.943 -10.964   4.873  1.00  0.00    -0.059 A 
HETATM    6  C   UNL     1      41.527  -9.790   4.036  1.00  0.00     0.048 C 
HETATM    7  C   UNL     1      41.074 -12.043   5.041  1.00  0.00     0.007 A 
HETATM    8  C   UNL     1      41.468 -13.154   5.786  1.00  0.00     0.012 A 
BRANCH   3   9
HETATM    9  O   UNL     1      44.844 -12.236   6.826  1.00  0.00    -0.350 OA
BRANCH   9  10
HETATM   10  C   UNL     1      45.835 -11.274   6.459  1.00  0.00     0.180 C 
BRANCH  10  11
HETATM   11  C   UNL     1      46.382 -10.677   7.720  1.00  0.00     0.010 A 
HETATM   12  C   UNL     1      46.133  -9.225   8.042  1.00  0.00     0.007 A 
HETATM   13  C   UNL     1      45.463 -10.299   8.854  1.00  0.00     0.007 A 
ENDBRANCH  10  11
ENDBRANCH   9  10
ENDBRANCH   3   9
ENDBRANCH   1   2
BRANCH   1  14
HETATM   14  N   UNL     1      43.918 -15.380   6.339  1.00  0.00    -0.339 N 
HETATM   15  C   UNL     1      43.343 -16.492   5.769  1.00  0.00     0.321 C 
HETATM   16  N   UNL     1      44.210 -17.119   4.904  1.00  0.00    -0.307 N 
HETATM   17  O   UNL     1      42.204 -16.852   6.037  1.00  0.00    -0.247 OA
HETATM   18  H   UNL     1      45.063 -16.622   4.707  1.00  0.00     0.170 HD
HETATM   19  H   UNL     1      44.701 -14.945   5.872  1.00  0.00     0.164 HD
BRANCH  16  20
HETATM   20  C   UNL     1      43.996 -18.339   4.221  1.00  0.00     0.059 A 
HETATM   21  C   UNL     1      43.556 -18.317   2.884  1.00  0.00    -0.032 A 
HETATM   22  C   UNL     1      43.251 -17.041   2.152  1.00  0.00     0.050 C 
HETATM   23  C   UNL     1      43.379 -19.535   2.209  1.00  0.00     0.028 A 
HETATM   24  C   UNL     1      43.639 -20.721   2.876  1.00  0.00     0.117 A 
HETATM   25  N   UNL     1      44.056 -20.779   4.153  1.00  0.00    -0.271 NA
HETATM   26  C   UNL     1      44.222 -19.592   4.794  1.00  0.00     0.146 A 
ENDBRANCH  16  20
ENDBRANCH   1  14
TORSDOF 6
ENDMDL
MODEL 2
REMARK VINA RESULT:      -7.7      4.487      7.548
REMARK  6 active torsions:
REMARK  status: ('A' for Active; 'I' for Inactive)
REMARK    1  A    between atoms: C_4  and  O_5 
REMARK    2  A    between atoms: O_5  and  C_6 
REMARK    3  A    between atoms: C_6  and  C_7 
REMARK    4  A    between atoms: C_10  and  C_11 
REMARK    5  A    between atoms: C_11  and  N_12 
REMARK       I    between atoms: N_12  and  C_13 
REMARK       I    between atoms: C_13  and  N_14 
REMARK    6  A    between atoms: N_14  and  C_15 
ROOT
HETATM    1  C   UNL     1      42.582 -15.332   2.740  1.00  0.00     0.165 C 
ENDROOT
BRANCH   1   2
HETATM    2  C   UNL     1      43.030 -16.759   2.956  1.00  0.00    -0.007 A 
HETATM    3  C   UNL     1      43.677 -17.191   4.129  1.00  0.00     0.077 A 
HETATM    4  C   UNL     1      43.993 -18.548   4.290  1.00  0.00     0.044 A 
HETATM    5  C   UNL     1      43.702 -19.481   3.286  1.00  0.00    -0.059 A 
HETATM    6  C   UNL     1      44.023 -20.936   3.470  1.00  0.00     0.048 C 
HETATM    7  C   UNL     1      43.059 -19.051   2.124  1.00  0.00     0.007 A 
HETATM    8  C   UNL     1      42.724 -17.707   1.963  1.00  0.00     0.012 A 
BRANCH   3   9
HETATM    9  O   UNL     1      43.945 -16.223   5.066  1.00  0.00    -0.350 OA
BRANCH   9  10
HETATM   10  C   UNL     1      44.505 -16.662   6.305  1.00  0.00     0.180 C 
BRANCH  10  11
HETATM   11  C   UNL     1      43.409 -16.659   7.328  1.00  0.00     0.010 A 
HETATM   12  C   UNL     1      43.018 -15.375   8.016  1.00  0.00     0.007 A 
HETATM   13  C   UNL     1      42.080 -16.013   7.029  1.00  0.00     0.007 A 
ENDBRANCH  10  11
ENDBRANCH   9  10
ENDBRANCH   3   9
ENDBRANCH   1   2
BRANCH   1  14
HETATM   14  N   UNL     1      42.298 -15.024   1.356  1.00  0.00    -0.339 N 
HETATM   15  C   UNL     1      41.012 -14.743   0.957  1.00  0.00     0.321 C 
HETATM   16  N   UNL     1      40.975 -14.289  -0.342  1.00  0.00    -0.307 N 
HETATM   17  O   UNL     1      40.047 -14.906   1.693  1.00  0.00    -0.247 OA
HETATM   18  H   UNL     1      41.871 -14.099  -0.760  1.00  0.00     0.170 HD
HETATM   19  H   UNL     1      43.065 -14.589   0.862  1.00  0.00     0.164 HD
BRANCH  16  20
HETATM   20  C   UNL     1      39.823 -14.002  -1.110  1.00  0.00     0.059 A 
HETATM   21  C   UNL     1      39.171 -12.764  -0.946  1.00  0.00    -0.032 A 
HETATM   22  C   UNL     1      39.619 -11.740   0.057  1.00  0.00     0.050 C 
HETATM   23  C   UNL     1      38.049 -12.480  -1.739  1.00  0.00     0.028 A 
HETATM   24  C   UNL     1      37.613 -13.423  -2.655  1.00  0.00     0.117 A 
HETATM   25  N   UNL     1      38.208 -14.614  -2.835  1.00  0.00    -0.271 NA
HETATM   26  C   UNL     1      39.293 -14.877  -2.061  1.00  0.00     0.146 A 
ENDBRANCH  16  20
ENDBRANCH   1  14
TORSDOF 6
ENDMDL
MODEL 3
REMARK VINA RESULT:      -7.5      4.594      7.486
REMARK  6 active torsions:
REMARK  status: ('A' for Active; 'I' for Inactive)
REMARK    1  A    between atoms: C_4  and  O_5 
REMARK    2  A    between atoms: O_5  and  C_6 
REMARK    3  A    between atoms: C_6  and  C_7 
REMARK    4  A    between atoms: C_10  and  C_11 
REMARK    5  A    between atoms: C_11  and  N_12 
REMARK       I    between atoms: N_12  and  C_13 
REMARK       I    between atoms: C_13  and  N_14 
REMARK    6  A    between atoms: N_14  and  C_15 
ROOT
HETATM    1  C   UNL     1      40.007 -16.065   3.257  1.00  0.00     0.165 C 
ENDROOT
BRANCH   1   2
HETATM    2  C   UNL     1      40.985 -15.502   4.263  1.00  0.00    -0.007 A 
HETATM    3  C   UNL     1      42.302 -15.981   4.403  1.00  0.00     0.077 A 
HETATM    4  C   UNL     1      43.176 -15.357   5.304  1.00  0.00     0.044 A 
HETATM    5  C   UNL     1      42.753 -14.280   6.093  1.00  0.00    -0.059 A 
HETATM    6  C   UNL     1      43.698 -13.602   7.042  1.00  0.00     0.048 C 
HETATM    7  C   UNL     1      41.448 -13.806   5.952  1.00  0.00     0.007 A 
HETATM    8  C   UNL     1      40.576 -14.408   5.045  1.00  0.00     0.012 A 
BRANCH   3   9
HETATM    9  O   UNL     1      42.648 -17.048   3.609  1.00  0.00    -0.350 OA
BRANCH   9  10
HETATM   10  C   UNL     1      43.592 -17.974   4.150  1.00  0.00     0.180 C 
BRANCH  10  11
HETATM   11  C   UNL     1      44.070 -18.846   3.029  1.00  0.00     0.010 A 
HETATM   12  C   UNL     1      43.809 -20.331   3.059  1.00  0.00     0.007 A 
HETATM   13  C   UNL     1      43.091 -19.464   2.063  1.00  0.00     0.007 A 
ENDBRANCH  10  11
ENDBRANCH   9  10
ENDBRANCH   3   9
ENDBRANCH   1   2
BRANCH   1  14
HETATM   14  N   UNL     1      39.527 -15.080   2.314  1.00  0.00    -0.339 N 
HETATM   15  C   UNL     1      40.288 -14.736   1.221  1.00  0.00     0.321 C 
HETATM   16  N   UNL     1      39.585 -13.939   0.347  1.00  0.00    -0.307 N 
HETATM   17  O   UNL     1      41.449 -15.104   1.089  1.00  0.00    -0.247 OA
HETATM   18  H   UNL     1      38.604 -13.834   0.549  1.00  0.00     0.170 HD
HETATM   19  H   UNL     1      38.520 -15.036   2.237  1.00  0.00     0.164 HD
BRANCH  16  20
HETATM   20  C   UNL     1      40.079 -13.319  -0.824  1.00  0.00     0.059 A 
HETATM   21  C   UNL     1      39.750 -13.855  -2.084  1.00  0.00    -0.032 A 
HETATM   22  C   UNL     1      38.927 -15.101  -2.243  1.00  0.00     0.050 C 
HETATM   23  C   UNL     1      40.220 -13.210  -3.238  1.00  0.00     0.028 A 
HETATM   24  C   UNL     1      40.995 -12.069  -3.106  1.00  0.00     0.117 A 
HETATM   25  N   UNL     1      41.331 -11.533  -1.920  1.00  0.00    -0.271 NA
HETATM   26  C   UNL     1      40.870 -12.168  -0.811  1.00  0.00     0.146 A 
ENDBRANCH  16  20
ENDBRANCH   1  14
TORSDOF 6
ENDMDL
MODEL 4
REMARK VINA RESULT:      -7.5      3.863      7.678
REMARK  6 active torsions:
REMARK  status: ('A' for Active; 'I' for Inactive)
REMARK    1  A    between atoms: C_4  and  O_5 
REMARK    2  A    between atoms: O_5  and  C_6 
REMARK    3  A    between atoms: C_6  and  C_7 
REMARK    4  A    between atoms: C_10  and  C_11 
REMARK    5  A    between atoms: C_11  and  N_12 
REMARK       I    between atoms: N_12  and  C_13 
REMARK       I    between atoms: C_13  and  N_14 
REMARK    6  A    between atoms: N_14  and  C_15 
ROOT
HETATM    1  C   UNL     1      42.994 -16.470   1.658  1.00  0.00     0.165 C 
ENDROOT
BRANCH   1   2
HETATM    2  C   UNL     1      43.373 -17.547   2.649  1.00  0.00    -0.007 A 
HETATM    3  C   UNL     1      43.606 -17.286   4.013  1.00  0.00     0.077 A 
HETATM    4  C   UNL     1      43.878 -18.348   4.887  1.00  0.00     0.044 A 
HETATM    5  C   UNL     1      43.950 -19.667   4.422  1.00  0.00    -0.059 A 
HETATM    6  C   UNL     1      44.221 -20.803   5.364  1.00  0.00     0.048 C 
HETATM    7  C   UNL     1      43.717 -19.924   3.070  1.00  0.00     0.007 A 
HETATM    8  C   UNL     1      43.428 -18.876   2.195  1.00  0.00     0.012 A 
BRANCH   3   9
HETATM    9  O   UNL     1      43.534 -15.969   4.401  1.00  0.00    -0.350 OA
BRANCH   9  10
HETATM   10  C   UNL     1      42.879 -15.698   5.641  1.00  0.00     0.180 C 
BRANCH  10  11
HETATM   11  C   UNL     1      41.412 -15.562   5.364  1.00  0.00     0.010 A 
HETATM   12  C   UNL     1      40.403 -15.970   6.406  1.00  0.00     0.007 A 
HETATM   13  C   UNL     1      40.590 -14.516   6.073  1.00  0.00     0.007 A 
ENDBRANCH  10  11
ENDBRANCH   9  10
ENDBRANCH   3   9
ENDBRANCH   1   2
BRANCH   1  14
HETATM   14  N   UNL     1      41.669 -15.933   1.876  1.00  0.00    -0.339 N 
HETATM   15  C   UNL     1      41.461 -14.573   1.867  1.00  0.00     0.321 C 
HETATM   16  N   UNL     1      40.119 -14.268   1.896  1.00  0.00    -0.307 N 
HETATM   17  O   UNL     1      42.384 -13.769   1.848  1.00  0.00    -0.247 OA
HETATM   18  H   UNL     1      39.494 -15.049   1.785  1.00  0.00     0.170 HD
HETATM   19  H   UNL     1      40.920 -16.540   1.573  1.00  0.00     0.164 HD
BRANCH  16  20
HETATM   20  C   UNL     1      39.542 -12.981   1.996  1.00  0.00     0.059 A 
HETATM   21  C   UNL     1      39.105 -12.324   0.830  1.00  0.00    -0.032 A 
HETATM   22  C   UNL     1      39.271 -12.914  -0.542  1.00  0.00     0.050 C 
HETATM   23  C   UNL     1      38.504 -11.062   0.948  1.00  0.00     0.028 A 
HETATM   24  C   UNL     1      38.360 -10.497   2.205  1.00  0.00     0.117 A 
HETATM   25  N   UNL     1      38.769 -11.094   3.338  1.00  0.00    -0.271 NA
HETATM   26  C   UNL     1      39.350 -12.316   3.209  1.00  0.00     0.146 A 
ENDBRANCH  16  20
ENDBRANCH   1  14
TORSDOF 6
ENDMDL
MODEL 5
REMARK VINA RESULT:      -7.4      2.294      7.986
REMARK  6 active torsions:
REMARK  status: ('A' for Active; 'I' for Inactive)
REMARK    1  A    between atoms: C_4  and  O_5 
REMARK    2  A    between atoms: O_5  and  C_6 
REMARK    3  A    between atoms: C_6  and  C_7 
REMARK    4  A    between atoms: C_10  and  C_11 
REMARK    5  A    between atoms: C_11  and  N_12 
REMARK       I    between atoms: N_12  and  C_13 
REMARK       I    between atoms: C_13  and  N_14 
REMARK    6  A    between atoms: N_14  and  C_15 
ROOT
HETATM    1  C   UNL     1      43.157 -16.326   6.150  1.00  0.00     0.165 C 
ENDROOT
BRANCH   1   2
HETATM    2  C   UNL     1      43.237 -17.288   4.987  1.00  0.00    -0.007 A 
HETATM    3  C   UNL     1      42.640 -17.031   3.738  1.00  0.00     0.077 A 
HETATM    4  C   UNL     1      42.822 -17.936   2.682  1.00  0.00     0.044 A 
HETATM    5  C   UNL     1      43.567 -19.110   2.856  1.00  0.00    -0.059 A 
HETATM    6  C   UNL     1      43.777 -20.065   1.718  1.00  0.00     0.048 C 
HETATM    7  C   UNL     1      44.159 -19.361   4.095  1.00  0.00     0.007 A 
HETATM    8  C   UNL     1      43.998 -18.459   5.146  1.00  0.00     0.012 A 
BRANCH   3   9
HETATM    9  O   UNL     1      41.912 -15.870   3.639  1.00  0.00    -0.350 OA
BRANCH   9  10
HETATM   10  C   UNL     1      42.083 -15.102   2.447  1.00  0.00     0.180 C 
BRANCH  10  11
HETATM   11  C   UNL     1      40.722 -14.792   1.903  1.00  0.00     0.010 A 
HETATM   12  C   UNL     1      40.464 -14.861   0.419  1.00  0.00     0.007 A 
HETATM   13  C   UNL     1      39.854 -15.886   1.334  1.00  0.00     0.007 A 
ENDBRANCH  10  11
ENDBRANCH   9  10
ENDBRANCH   3   9
ENDBRANCH   1   2
BRANCH   1  14
HETATM   14  N   UNL     1      43.454 -14.959   5.783  1.00  0.00    -0.339 N 
HETATM   15  C   UNL     1      43.598 -13.995   6.754  1.00  0.00     0.321 C 
HETATM   16  N   UNL     1      44.067 -12.814   6.226  1.00  0.00    -0.307 N 
HETATM   17  O   UNL     1      43.319 -14.201   7.929  1.00  0.00    -0.247 OA
HETATM   18  H   UNL     1      44.360 -12.855   5.264  1.00  0.00     0.170 HD
HETATM   19  H   UNL     1      43.978 -14.864   4.925  1.00  0.00     0.164 HD
BRANCH  16  20
HETATM   20  C   UNL     1      44.238 -11.586   6.908  1.00  0.00     0.059 A 
HETATM   21  C   UNL     1      43.162 -10.682   6.989  1.00  0.00    -0.032 A 
HETATM   22  C   UNL     1      41.835 -10.942   6.335  1.00  0.00     0.050 C 
HETATM   23  C   UNL     1      43.337  -9.483   7.697  1.00  0.00     0.028 A 
HETATM   24  C   UNL     1      44.560  -9.222   8.291  1.00  0.00     0.117 A 
HETATM   25  N   UNL     1      45.610 -10.060   8.230  1.00  0.00    -0.271 NA
HETATM   26  C   UNL     1      45.427 -11.217   7.541  1.00  0.00     0.146 A 
ENDBRANCH  16  20
ENDBRANCH   1  14
TORSDOF 6
ENDMDL
MODEL 6
REMARK VINA RESULT:      -7.4      2.521      8.378
REMARK  6 active torsions:
REMARK  status: ('A' for Active; 'I' for Inactive)
REMARK    1  A    between atoms: C_4  and  O_5 
REMARK    2  A    between atoms: O_5  and  C_6 
REMARK    3  A    between atoms: C_6  and  C_7 
REMARK    4  A    between atoms: C_10  and  C_11 
REMARK    5  A    between atoms: C_11  and  N_12 
REMARK       I    between atoms: N_12  and  C_13 
REMARK       I    between atoms: C_13  and  N_14 
REMARK    6  A    between atoms: N_14  and  C_15 
ROOT
HETATM    1  C   UNL     1      42.615 -14.423   5.359  1.00  0.00     0.165 C 
ENDROOT
BRANCH   1   2
HETATM    2  C   UNL     1      42.982 -15.885   5.245  1.00  0.00    -0.007 A 
HETATM    3  C   UNL     1      43.402 -16.478   4.039  1.00  0.00     0.077 A 
HETATM    4  C   UNL     1      43.800 -17.823   4.028  1.00  0.00     0.044 A 
HETATM    5  C   UNL     1      43.761 -18.598   5.194  1.00  0.00    -0.059 A 
HETATM    6  C   UNL     1      44.208 -20.031   5.183  1.00  0.00     0.048 C 
HETATM    7  C   UNL     1      43.346 -18.007   6.389  1.00  0.00     0.007 A 
HETATM    8  C   UNL     1      42.965 -16.666   6.414  1.00  0.00     0.012 A 
BRANCH   3   9
HETATM    9  O   UNL     1      43.403 -15.667   2.930  1.00  0.00    -0.350 OA
BRANCH   9  10
HETATM   10  C   UNL     1      42.572 -16.064   1.839  1.00  0.00     0.180 C 
BRANCH  10  11
HETATM   11  C   UNL     1      41.315 -15.250   1.900  1.00  0.00     0.010 A 
HETATM   12  C   UNL     1      40.063 -15.737   1.217  1.00  0.00     0.007 A 
HETATM   13  C   UNL     1      40.138 -15.715   2.718  1.00  0.00     0.007 A 
ENDBRANCH  10  11
ENDBRANCH   9  10
ENDBRANCH   3   9
ENDBRANCH   1   2
BRANCH   1  14
HETATM   14  N   UNL     1      43.276 -13.751   6.455  1.00  0.00    -0.339 N 
HETATM   15  C   UNL     1      43.226 -12.380   6.561  1.00  0.00     0.321 C 
HETATM   16  N   UNL     1      43.741 -11.949   7.762  1.00  0.00    -0.307 N 
HETATM   17  O   UNL     1      42.782 -11.670   5.668  1.00  0.00    -0.247 OA
HETATM   18  H   UNL     1      43.949 -12.672   8.430  1.00  0.00     0.170 HD
HETATM   19  H   UNL     1      43.340 -14.301   7.300  1.00  0.00     0.164 HD
BRANCH  16  20
HETATM   20  C   UNL     1      43.940 -10.609   8.169  1.00  0.00     0.059 A 
HETATM   21  C   UNL     1      45.212 -10.022   8.027  1.00  0.00    -0.032 A 
HETATM   22  C   UNL     1      46.398 -10.779   7.500  1.00  0.00     0.050 C 
HETATM   23  C   UNL     1      45.386  -8.682   8.404  1.00  0.00     0.028 A 
HETATM   24  C   UNL     1      44.306  -7.976   8.908  1.00  0.00     0.117 A 
HETATM   25  N   UNL     1      43.080  -8.506   9.062  1.00  0.00    -0.271 NA
HETATM   26  C   UNL     1      42.925  -9.804   8.693  1.00  0.00     0.146 A 
ENDBRANCH  16  20
ENDBRANCH   1  14
TORSDOF 6
ENDMDL
MODEL 7
REMARK VINA RESULT:      -7.4      3.291      8.024
REMARK  6 active torsions:
REMARK  status: ('A' for Active; 'I' for Inactive)
REMARK    1  A    between atoms: C_4  and  O_5 
REMARK    2  A    between atoms: O_5  and  C_6 
REMARK    3  A    between atoms: C_6  and  C_7 
REMARK    4  A    between atoms: C_10  and  C_11 
REMARK    5  A    between atoms: C_11  and  N_12 
REMARK       I    between atoms: N_12  and  C_13 
REMARK       I    between atoms: C_13  and  N_14 
REMARK    6  A    between atoms: N_14  and  C_15 
ROOT
HETATM    1  C   UNL     1      43.194 -15.311   5.537  1.00  0.00     0.165 C 
ENDROOT
BRANCH   1   2
HETATM    2  C   UNL     1      43.307 -16.526   4.645  1.00  0.00    -0.007 A 
HETATM    3  C   UNL     1      43.042 -16.490   3.263  1.00  0.00     0.077 A 
HETATM    4  C   UNL     1      43.243 -17.640   2.486  1.00  0.00     0.044 A 
HETATM    5  C   UNL     1      43.677 -18.838   3.068  1.00  0.00    -0.059 A 
HETATM    6  C   UNL     1      43.911 -20.061   2.231  1.00  0.00     0.048 C 
HETATM    7  C   UNL     1      43.941 -18.871   4.438  1.00  0.00     0.007 A 
HETATM    8  C   UNL     1      43.762 -17.728   5.216  1.00  0.00     0.012 A 
BRANCH   3   9
HETATM    9  O   UNL     1      42.605 -15.288   2.759  1.00  0.00    -0.350 OA
BRANCH   9  10
HETATM   10  C   UNL     1      42.235 -15.264   1.380  1.00  0.00     0.180 C 
BRANCH  10  11
HETATM   11  C   UNL     1      40.766 -14.978   1.306  1.00  0.00     0.010 A 
HETATM   12  C   UNL     1      39.802 -16.064   0.898  1.00  0.00     0.007 A 
HETATM   13  C   UNL     1      39.816 -15.569   2.317  1.00  0.00     0.007 A 
ENDBRANCH  10  11
ENDBRANCH   9  10
ENDBRANCH   3   9
ENDBRANCH   1   2
BRANCH   1  14
HETATM   14  N   UNL     1      41.845 -14.803   5.644  1.00  0.00    -0.339 N 
HETATM   15  C   UNL     1      41.603 -13.451   5.560  1.00  0.00     0.321 C 
HETATM   16  N   UNL     1      40.255 -13.184   5.488  1.00  0.00    -0.307 N 
HETATM   17  O   UNL     1      42.504 -12.623   5.565  1.00  0.00    -0.247 OA
HETATM   18  H   UNL     1      39.659 -13.987   5.371  1.00  0.00     0.170 HD
HETATM   19  H   UNL     1      41.134 -15.444   5.321  1.00  0.00     0.164 HD
BRANCH  16  20
HETATM   20  C   UNL     1      39.639 -11.911   5.492  1.00  0.00     0.059 A 
HETATM   21  C   UNL     1      39.295 -11.303   4.269  1.00  0.00    -0.032 A 
HETATM   22  C   UNL     1      39.600 -11.930   2.939  1.00  0.00     0.050 C 
HETATM   23  C   UNL     1      38.654 -10.054   4.290  1.00  0.00     0.028 A 
HETATM   24  C   UNL     1      38.382  -9.455   5.509  1.00  0.00     0.117 A 
HETATM   25  N   UNL     1      38.700 -10.005   6.694  1.00  0.00    -0.271 NA
HETATM   26  C   UNL     1      39.320 -11.213   6.659  1.00  0.00     0.146 A 
ENDBRANCH  16  20
ENDBRANCH   1  14
TORSDOF 6
ENDMDL
MODEL 8
REMARK VINA RESULT:      -7.4      2.878      8.270
REMARK  6 active torsions:
REMARK  status: ('A' for Active; 'I' for Inactive)
REMARK    1  A    between atoms: C_4  and  O_5 
REMARK    2  A    between atoms: O_5  and  C_6 
REMARK    3  A    between atoms: C_6  and  C_7 
REMARK    4  A    between atoms: C_10  and  C_11 
REMARK    5  A    between atoms: C_11  and  N_12 
REMARK       I    between atoms: N_12  and  C_13 
REMARK       I    between atoms: C_13  and  N_14 
REMARK    6  A    between atoms: N_14  and  C_15 
ROOT
HETATM    1  C   UNL     1      41.297 -14.106   5.233  1.00  0.00     0.165 C 
ENDROOT
BRANCH   1   2
HETATM    2  C   UNL     1      41.912 -15.339   4.611  1.00  0.00    -0.007 A 
HETATM    3  C   UNL     1      41.452 -15.899   3.403  1.00  0.00     0.077 A 
HETATM    4  C   UNL     1      42.121 -16.998   2.847  1.00  0.00     0.044 A 
HETATM    5  C   UNL     1      43.228 -17.571   3.488  1.00  0.00    -0.059 A 
HETATM    6  C   UNL     1      43.954 -18.734   2.880  1.00  0.00     0.048 C 
HETATM    7  C   UNL     1      43.682 -17.014   4.685  1.00  0.00     0.007 A 
HETATM    8  C   UNL     1      43.034 -15.909   5.236  1.00  0.00     0.012 A 
BRANCH   3   9
HETATM    9  O   UNL     1      40.355 -15.298   2.834  1.00  0.00    -0.350 OA
BRANCH   9  10
HETATM   10  C   UNL     1      39.948 -15.781   1.553  1.00  0.00     0.180 C 
BRANCH  10  11
HETATM   11  C   UNL     1      40.486 -14.840   0.517  1.00  0.00     0.010 A 
HETATM   12  C   UNL     1      39.690 -14.550  -0.730  1.00  0.00     0.007 A 
HETATM   13  C   UNL     1      39.863 -13.482   0.314  1.00  0.00     0.007 A 
ENDBRANCH  10  11
ENDBRANCH   9  10
ENDBRANCH   3   9
ENDBRANCH   1   2
BRANCH   1  14
HETATM   14  N   UNL     1      42.042 -13.607   6.368  1.00  0.00    -0.339 N 
HETATM   15  C   UNL     1      42.825 -12.483   6.244  1.00  0.00     0.321 C 
HETATM   16  N   UNL     1      43.292 -12.058   7.467  1.00  0.00    -0.307 N 
HETATM   17  O   UNL     1      43.062 -11.966   5.160  1.00  0.00    -0.247 OA
HETATM   18  H   UNL     1      42.901 -12.526   8.268  1.00  0.00     0.170 HD
HETATM   19  H   UNL     1      41.617 -13.806   7.263  1.00  0.00     0.164 HD
BRANCH  16  20
HETATM   20  C   UNL     1      44.200 -11.001   7.709  1.00  0.00     0.059 A 
HETATM   21  C   UNL     1      43.719  -9.770   8.195  1.00  0.00    -0.032 A 
HETATM   22  C   UNL     1      42.258  -9.507   8.426  1.00  0.00     0.050 C 
HETATM   23  C   UNL     1      44.635  -8.742   8.462  1.00  0.00     0.028 A 
HETATM   24  C   UNL     1      45.984  -8.964   8.237  1.00  0.00     0.117 A 
HETATM   25  N   UNL     1      46.478 -10.124   7.770  1.00  0.00    -0.271 NA
HETATM   26  C   UNL     1      45.579 -11.111   7.516  1.00  0.00     0.146 A 
ENDBRANCH  16  20
ENDBRANCH   1  14
TORSDOF 6
ENDMDL
MODEL 9
REMARK VINA RESULT:      -7.3      5.064      8.167
REMARK  6 active torsions:
REMARK  status: ('A' for Active; 'I' for Inactive)
REMARK    1  A    between atoms: C_4  and  O_5 
REMARK    2  A    between atoms: O_5  and  C_6 
REMARK    3  A    between atoms: C_6  and  C_7 
REMARK    4  A    between atoms: C_10  and  C_11 
REMARK    5  A    between atoms: C_11  and  N_12 
REMARK       I    between atoms: N_12  and  C_13 
REMARK       I    between atoms: C_13  and  N_14 
REMARK    6  A    between atoms: N_14  and  C_15 
ROOT
HETATM    1  C   UNL     1      43.021 -14.008   1.962  1.00  0.00     0.165 C 
ENDROOT
BRANCH   1   2
HETATM    2  C   UNL     1      42.948 -14.651   3.328  1.00  0.00    -0.007 A 
HETATM    3  C   UNL     1      43.188 -16.021   3.544  1.00  0.00     0.077 A 
HETATM    4  C   UNL     1      43.179 -16.531   4.850  1.00  0.00     0.044 A 
HETATM    5  C   UNL     1      42.904 -15.704   5.947  1.00  0.00    -0.059 A 
HETATM    6  C   UNL     1      42.915 -16.248   7.345  1.00  0.00     0.048 C 
HETATM    7  C   UNL     1      42.668 -14.345   5.731  1.00  0.00     0.007 A 
HETATM    8  C   UNL     1      42.693 -13.825   4.437  1.00  0.00     0.012 A 
BRANCH   3   9
HETATM    9  O   UNL     1      43.437 -16.779   2.425  1.00  0.00    -0.350 OA
BRANCH   9  10
HETATM   10  C   UNL     1      42.764 -18.035   2.334  1.00  0.00     0.180 C 
BRANCH  10  11
HETATM   11  C   UNL     1      43.806 -19.112   2.320  1.00  0.00     0.010 A 
HETATM   12  C   UNL     1      43.760 -20.225   3.336  1.00  0.00     0.007 A 
HETATM   13  C   UNL     1      43.456 -20.515   1.893  1.00  0.00     0.007 A 
ENDBRANCH  10  11
ENDBRANCH   9  10
ENDBRANCH   3   9
ENDBRANCH   1   2
BRANCH   1  14
HETATM   14  N   UNL     1      41.916 -14.367   1.101  1.00  0.00    -0.339 N 
HETATM   15  C   UNL     1      41.083 -13.395   0.597  1.00  0.00     0.321 C 
HETATM   16  N   UNL     1      40.223 -13.908  -0.346  1.00  0.00    -0.307 N 
HETATM   17  O   UNL     1      41.127 -12.232   0.979  1.00  0.00    -0.247 OA
HETATM   18  H   UNL     1      40.404 -14.857  -0.629  1.00  0.00     0.170 HD
HETATM   19  H   UNL     1      42.070 -15.204   0.556  1.00  0.00     0.164 HD
BRANCH  16  20
HETATM   20  C   UNL     1      39.169 -13.225  -0.997  1.00  0.00     0.059 A 
HETATM   21  C   UNL     1      38.507 -13.839  -2.077  1.00  0.00    -0.032 A 
HETATM   22  C   UNL     1      38.905 -15.185  -2.611  1.00  0.00     0.050 C 
HETATM   23  C   UNL     1      37.442 -13.162  -2.691  1.00  0.00     0.028 A 
HETATM   24  C   UNL     1      37.075 -11.912  -2.221  1.00  0.00     0.117 A 
HETATM   25  N   UNL     1      37.687 -11.295  -1.196  1.00  0.00    -0.271 NA
HETATM   26  C   UNL     1      38.717 -11.960  -0.611  1.00  0.00     0.146 A 
ENDBRANCH  16  20
ENDBRANCH   1  14
TORSDOF 6
ENDMDL
MODEL 10
REMARK VINA RESULT:      -7.3      4.995      7.342
REMARK  6 active torsions:
REMARK  status: ('A' for Active; 'I' for Inactive)
REMARK    1  A    between atoms: C_4  and  O_5 
REMARK    2  A    between atoms: O_5  and  C_6 
REMARK    3  A    between atoms: C_6  and  C_7 
REMARK    4  A    between atoms: C_10  and  C_11 
REMARK    5  A    between atoms: C_11  and  N_12 
REMARK       I    between atoms: N_12  and  C_13 
REMARK       I    between atoms: C_13  and  N_14 
REMARK    6  A    between atoms: N_14  and  C_15 
ROOT
HETATM    1  C   UNL     1      42.499 -14.007   2.462  1.00  0.00     0.165 C 
ENDROOT
BRANCH   1   2
HETATM    2  C   UNL     1      42.947 -15.375   2.924  1.00  0.00    -0.007 A 
HETATM    3  C   UNL     1      43.036 -15.734   4.282  1.00  0.00     0.077 A 
HETATM    4  C   UNL     1      43.385 -17.047   4.632  1.00  0.00     0.044 A 
HETATM    5  C   UNL     1      43.678 -18.003   3.651  1.00  0.00    -0.059 A 
HETATM    6  C   UNL     1      44.031 -19.412   4.029  1.00  0.00     0.048 C 
HETATM    7  C   UNL     1      43.588 -17.644   2.305  1.00  0.00     0.007 A 
HETATM    8  C   UNL     1      43.223 -16.347   1.946  1.00  0.00     0.012 A 
BRANCH   3   9
HETATM    9  O   UNL     1      42.750 -14.746   5.192  1.00  0.00    -0.350 OA
BRANCH   9  10
HETATM   10  C   UNL     1      43.673 -14.574   6.269  1.00  0.00     0.180 C 
BRANCH  10  11
HETATM   11  C   UNL     1      43.597 -13.144   6.712  1.00  0.00     0.010 A 
HETATM   12  C   UNL     1      44.834 -12.282   6.707  1.00  0.00     0.007 A 
HETATM   13  C   UNL     1      43.734 -12.022   5.715  1.00  0.00     0.007 A 
ENDBRANCH  10  11
ENDBRANCH   9  10
ENDBRANCH   3   9
ENDBRANCH   1   2
BRANCH   1  14
HETATM   14  N   UNL     1      42.036 -13.989   1.092  1.00  0.00    -0.339 N 
HETATM   15  C   UNL     1      40.853 -13.367   0.767  1.00  0.00     0.321 C 
HETATM   16  N   UNL     1      40.683 -13.288  -0.596  1.00  0.00    -0.307 N 
HETATM   17  O   UNL     1      40.070 -12.963   1.617  1.00  0.00    -0.247 OA
HETATM   18  H   UNL     1      41.479 -13.559  -1.149  1.00  0.00     0.170 HD
HETATM   19  H   UNL     1      42.775 -14.014   0.404  1.00  0.00     0.164 HD
BRANCH  16  20
HETATM   20  C   UNL     1      39.546 -12.806  -1.285  1.00  0.00     0.059 A 
HETATM   21  C   UNL     1      38.715 -13.712  -1.972  1.00  0.00    -0.032 A 
HETATM   22  C   UNL     1      39.012 -15.182  -2.051  1.00  0.00     0.050 C 
HETATM   23  C   UNL     1      37.572 -13.223  -2.623  1.00  0.00     0.028 A 
HETATM   24  C   UNL     1      37.295 -11.867  -2.574  1.00  0.00     0.117 A 
HETATM   25  N   UNL     1      38.067 -10.974  -1.932  1.00  0.00    -0.271 NA
HETATM   26  C   UNL     1      39.171 -11.460  -1.306  1.00  0.00     0.146 A 
ENDBRANCH  16  20
ENDBRANCH   1  14
TORSDOF 6
ENDMDL
