MODEL 1
REMARK VINA RESULT:      -9.3      0.000      0.000
REMARK  9 active torsions:
REMARK  status: ('A' for Active; 'I' for Inactive)
REMARK    1  A    between atoms: C_2  and  O_3 
REMARK    2  A    between atoms: O_3  and  C_4 
REMARK    3  A    between atoms: C_7  and  C_8 
REMARK       I    between atoms: C_8  and  N_9 
REMARK    4  A    between atoms: N_9  and  C_10 
REMARK    5  A    between atoms: C_10  and  N_11 
REMARK    6  A    between atoms: N_11  and  C_12 
REMARK    7  A    between atoms: C_15  and  N_16 
REMARK    8  A    between atoms: N_19  and  C_21 
REMARK    9  A    between atoms: C_21  and  C_22 
ROOT
HETATM    1  C   UNL     1      43.164 -10.600   6.916  1.00  0.00     0.034 C 
HETATM    2  C   UNL     1      41.952 -10.668   6.235  1.00  0.00     0.032 C 
HETATM    3  C   UNL     1      41.357 -11.903   5.960  1.00  0.00     0.031 C 
HETATM    4  C   UNL     1      41.928 -13.104   6.399  1.00  0.00     0.030 C 
HETATM    5  C   UNL     1      43.220 -13.012   6.950  1.00  0.00     0.031 C 
HETATM    6  C   UNL     1      43.841 -11.778   7.197  1.00  0.00     0.032 C 
ENDROOT
BRANCH   1   7
HETATM    7  N   UNL     1      43.729  -9.371   7.305  1.00  0.00    -0.333 N 
HETATM    8  H   UNL     1      43.504  -8.559   6.739  1.00  0.00     0.168 HD
BRANCH   7   9
HETATM    9  C   UNL     1      44.503  -9.130   8.402  1.00  0.00     0.179 C 
HETATM   10  S   UNL     1      46.165  -9.176   8.285  1.00  0.00    -0.040 SA
BRANCH   9  11
HETATM   11  N   UNL     1      43.921  -8.879   9.617  1.00  0.00    -0.299 N 
HETATM   12  C   UNL     1      43.622  -9.830  10.582  1.00  0.00     0.257 C 
HETATM   13  O   UNL     1      43.932 -11.016  10.576  1.00  0.00    -0.267 OA
HETATM   14  H   UNL     1      44.062  -7.937   9.960  1.00  0.00     0.171 HD
BRANCH  12  15
HETATM   15  C   UNL     1      42.893  -9.331  11.760  1.00  0.00     0.032 A 
HETATM   16  C   UNL     1      41.761 -10.005  12.222  1.00  0.00     0.020 A 
HETATM   17  C   UNL     1      41.210  -9.647  13.454  1.00  0.00     0.038 A 
HETATM   18  C   UNL     1      41.777  -8.621  14.222  1.00  0.00     0.069 A 
HETATM   19  C   UNL     1      42.868  -7.913  13.720  1.00  0.00     0.038 A 
HETATM   20  C   UNL     1      43.441  -8.280  12.499  1.00  0.00     0.020 A 
BRANCH  18  21
HETATM   21  O   UNL     1      41.193  -8.448  15.445  1.00  0.00    -0.347 OA
BRANCH  21  22
HETATM   22  C   UNL     1      41.452  -7.246  16.185  1.00  0.00     0.120 C 
HETATM   23  C   UNL     1      41.424  -7.518  17.689  1.00  0.00     0.040 C 
HETATM   24  C   UNL     1      40.336  -6.266  15.827  1.00  0.00     0.040 C 
ENDBRANCH  21  22
ENDBRANCH  18  21
ENDBRANCH  12  15
ENDBRANCH   9  11
ENDBRANCH   7   9
ENDBRANCH   1   7
BRANCH   4  25
HETATM   25  N   UNL     1      41.275 -14.345   6.311  1.00  0.00    -0.378 N 
HETATM   26  C   UNL     1      41.937 -15.556   6.841  1.00  0.00     0.150 C 
HETATM   27  C   UNL     1      42.987 -16.119   5.854  1.00  0.00     0.255 C 
HETATM   28  N   UNL     1      42.402 -16.315   4.452  1.00  0.00    -0.064 N 
HETATM   29  H   UNL     1      41.717 -17.077   4.522  1.00  0.00     0.280 HD
HETATM   30  C   UNL     1      41.658 -15.067   3.963  1.00  0.00     0.255 C 
HETATM   31  C   UNL     1      40.616 -14.608   5.007  1.00  0.00     0.150 C 
BRANCH  28  32
HETATM   32  C   UNL     1      43.448 -16.741   3.446  1.00  0.00     0.273 C 
BRANCH  32  33
HETATM   33  C   UNL     1      43.602 -18.234   3.351  1.00  0.00    -0.033 A 
HETATM   34  C   UNL     1      43.267 -18.912   2.168  1.00  0.00     0.009 A 
HETATM   35  C   UNL     1      43.378 -20.301   2.094  1.00  0.00     0.001 A 
HETATM   36  C   UNL     1      43.820 -21.027   3.199  1.00  0.00     0.000 A 
HETATM   37  C   UNL     1      44.160 -20.366   4.377  1.00  0.00     0.001 A 
HETATM   38  C   UNL     1      44.056 -18.975   4.453  1.00  0.00     0.009 A 
ENDBRANCH  32  33
ENDBRANCH  28  32
ENDBRANCH   4  25
TORSDOF 9
ENDMDL
MODEL 2
REMARK VINA RESULT:      -9.2      1.614      2.409
REMARK  9 active torsions:
REMARK  status: ('A' for Active; 'I' for Inactive)
REMARK    1  A    between atoms: C_2  and  O_3 
REMARK    2  A    between atoms: O_3  and  C_4 
REMARK    3  A    between atoms: C_7  and  C_8 
REMARK       I    between atoms: C_8  and  N_9 
REMARK    4  A    between atoms: N_9  and  C_10 
REMARK    5  A    between atoms: C_10  and  N_11 
REMARK    6  A    between atoms: N_11  and  C_12 
REMARK    7  A    between atoms: C_15  and  N_16 
REMARK    8  A    between atoms: N_19  and  C_21 
REMARK    9  A    between atoms: C_21  and  C_22 
ROOT
HETATM    1  C   UNL     1      43.510 -10.873   7.516  1.00  0.00     0.034 C 
HETATM    2  C   UNL     1      42.361 -10.299   6.980  1.00  0.00     0.032 C 
HETATM    3  C   UNL     1      42.025 -10.497   5.637  1.00  0.00     0.031 C 
HETATM    4  C   UNL     1      42.796 -11.316   4.803  1.00  0.00     0.030 C 
HETATM    5  C   UNL     1      44.024 -11.758   5.331  1.00  0.00     0.031 C 
HETATM    6  C   UNL     1      44.388 -11.533   6.667  1.00  0.00     0.032 C 
ENDROOT
BRANCH   1   7
HETATM    7  N   UNL     1      43.813 -10.784   8.888  1.00  0.00    -0.333 N 
HETATM    8  H   UNL     1      43.581 -11.585   9.466  1.00  0.00     0.168 HD
BRANCH   7   9
HETATM    9  C   UNL     1      44.444  -9.757   9.527  1.00  0.00     0.179 C 
HETATM   10  S   UNL     1      45.692  -8.942   8.779  1.00  0.00    -0.040 SA
BRANCH   9  11
HETATM   11  N   UNL     1      44.079  -9.407  10.800  1.00  0.00    -0.299 N 
HETATM   12  C   UNL     1      42.779  -9.343  11.279  1.00  0.00     0.257 C 
HETATM   13  O   UNL     1      41.758  -9.702  10.705  1.00  0.00    -0.267 OA
HETATM   14  H   UNL     1      44.796  -9.567  11.497  1.00  0.00     0.171 HD
BRANCH  12  15
HETATM   15  C   UNL     1      42.634  -8.830  12.652  1.00  0.00     0.032 A 
HETATM   16  C   UNL     1      43.400  -7.743  13.079  1.00  0.00     0.020 A 
HETATM   17  C   UNL     1      43.101  -7.138  14.302  1.00  0.00     0.038 A 
HETATM   18  C   UNL     1      42.051  -7.612  15.099  1.00  0.00     0.069 A 
HETATM   19  C   UNL     1      41.336  -8.737  14.691  1.00  0.00     0.038 A 
HETATM   20  C   UNL     1      41.611  -9.335  13.458  1.00  0.00     0.020 A 
BRANCH  18  21
HETATM   21  O   UNL     1      41.813  -6.863  16.216  1.00  0.00    -0.347 OA
BRANCH  21  22
HETATM   22  C   UNL     1      41.455  -7.519  17.441  1.00  0.00     0.120 C 
HETATM   23  C   UNL     1      40.013  -7.193  17.831  1.00  0.00     0.040 C 
HETATM   24  C   UNL     1      42.402  -6.984  18.514  1.00  0.00     0.040 C 
ENDBRANCH  21  22
ENDBRANCH  18  21
ENDBRANCH  12  15
ENDBRANCH   9  11
ENDBRANCH   7   9
ENDBRANCH   1   7
BRANCH   4  25
HETATM   25  N   UNL     1      42.396 -11.694   3.510  1.00  0.00    -0.378 N 
HETATM   26  C   UNL     1      40.961 -11.901   3.222  1.00  0.00     0.150 C 
HETATM   27  C   UNL     1      40.470 -13.288   3.702  1.00  0.00     0.255 C 
HETATM   28  N   UNL     1      41.361 -14.419   3.178  1.00  0.00    -0.064 N 
HETATM   29  H   UNL     1      41.219 -14.461   2.162  1.00  0.00     0.280 HD
HETATM   30  C   UNL     1      42.848 -14.137   3.425  1.00  0.00     0.255 C 
HETATM   31  C   UNL     1      43.237 -12.745   2.884  1.00  0.00     0.150 C 
BRANCH  28  32
HETATM   32  C   UNL     1      40.972 -15.768   3.743  1.00  0.00     0.273 C 
BRANCH  32  33
HETATM   33  C   UNL     1      42.068 -16.792   3.632  1.00  0.00    -0.033 A 
HETATM   34  C   UNL     1      42.287 -17.473   2.425  1.00  0.00     0.009 A 
HETATM   35  C   UNL     1      43.282 -18.448   2.335  1.00  0.00     0.001 A 
HETATM   36  C   UNL     1      44.064 -18.754   3.447  1.00  0.00     0.000 A 
HETATM   37  C   UNL     1      43.859 -18.082   4.650  1.00  0.00     0.001 A 
HETATM   38  C   UNL     1      42.869 -17.102   4.743  1.00  0.00     0.009 A 
ENDBRANCH  32  33
ENDBRANCH  28  32
ENDBRANCH   4  25
TORSDOF 9
ENDMDL
MODEL 3
REMARK VINA RESULT:      -9.1      4.350     12.282
REMARK  9 active torsions:
REMARK  status: ('A' for Active; 'I' for Inactive)
REMARK    1  A    between atoms: C_2  and  O_3 
REMARK    2  A    between atoms: O_3  and  C_4 
REMARK    3  A    between atoms: C_7  and  C_8 
REMARK       I    between atoms: C_8  and  N_9 
REMARK    4  A    between atoms: N_9  and  C_10 
REMARK    5  A    between atoms: C_10  and  N_11 
REMARK    6  A    between atoms: N_11  and  C_12 
REMARK    7  A    between atoms: C_15  and  N_16 
REMARK    8  A    between atoms: N_19  and  C_21 
REMARK    9  A    between atoms: C_21  and  C_22 
ROOT
HETATM    1  C   UNL     1      42.833 -13.203   6.183  1.00  0.00     0.034 C 
HETATM    2  C   UNL     1      44.103 -13.120   6.745  1.00  0.00     0.032 C 
HETATM    3  C   UNL     1      44.578 -11.909   7.259  1.00  0.00     0.031 C 
HETATM    4  C   UNL     1      43.780 -10.758   7.273  1.00  0.00     0.030 C 
HETATM    5  C   UNL     1      42.565 -10.836   6.567  1.00  0.00     0.031 C 
HETATM    6  C   UNL     1      42.097 -12.038   6.016  1.00  0.00     0.032 C 
ENDROOT
BRANCH   1   7
HETATM    7  N   UNL     1      42.287 -14.430   5.761  1.00  0.00    -0.333 N 
HETATM    8  H   UNL     1      41.478 -14.775   6.269  1.00  0.00     0.168 HD
BRANCH   7   9
HETATM    9  C   UNL     1      42.687 -15.188   4.701  1.00  0.00     0.179 C 
HETATM   10  S   UNL     1      43.683 -16.504   4.936  1.00  0.00    -0.040 SA
BRANCH   9  11
HETATM   11  N   UNL     1      42.298 -14.858   3.429  1.00  0.00    -0.299 N 
HETATM   12  C   UNL     1      41.077 -14.302   3.076  1.00  0.00     0.257 C 
HETATM   13  O   UNL     1      40.199 -13.899   3.830  1.00  0.00    -0.267 OA
HETATM   14  H   UNL     1      43.065 -14.669   2.795  1.00  0.00     0.171 HD
BRANCH  12  15
HETATM   15  C   UNL     1      40.848 -14.141   1.630  1.00  0.00     0.032 A 
HETATM   16  C   UNL     1      40.153 -15.121   0.917  1.00  0.00     0.020 A 
HETATM   17  C   UNL     1      39.761 -14.857  -0.397  1.00  0.00     0.038 A 
HETATM   18  C   UNL     1      40.061 -13.629  -1.002  1.00  0.00     0.069 A 
HETATM   19  C   UNL     1      40.810 -12.685  -0.301  1.00  0.00     0.038 A 
HETATM   20  C   UNL     1      41.187 -12.930   1.022  1.00  0.00     0.020 A 
BRANCH  18  21
HETATM   21  O   UNL     1      39.530 -13.475  -2.252  1.00  0.00    -0.347 OA
BRANCH  21  22
HETATM   22  C   UNL     1      38.209 -13.964  -2.522  1.00  0.00     0.120 C 
HETATM   23  C   UNL     1      38.163 -14.693  -3.865  1.00  0.00     0.040 C 
HETATM   24  C   UNL     1      37.296 -12.740  -2.579  1.00  0.00     0.040 C 
ENDBRANCH  21  22
ENDBRANCH  18  21
ENDBRANCH  12  15
ENDBRANCH   9  11
ENDBRANCH   7   9
ENDBRANCH   1   7
BRANCH   4  25
HETATM   25  N   UNL     1      44.142  -9.577   7.945  1.00  0.00    -0.378 N 
HETATM   26  C   UNL     1      45.207  -9.620   8.970  1.00  0.00     0.150 C 
HETATM   27  C   UNL     1      44.682 -10.146  10.327  1.00  0.00     0.255 C 
HETATM   28  N   UNL     1      43.432  -9.389  10.785  1.00  0.00    -0.064 N 
HETATM   29  H   UNL     1      43.730  -8.432  11.007  1.00  0.00     0.280 HD
HETATM   30  C   UNL     1      42.378  -9.299   9.675  1.00  0.00     0.255 C 
HETATM   31  C   UNL     1      42.999  -8.735   8.377  1.00  0.00     0.150 C 
BRANCH  28  32
HETATM   32  C   UNL     1      42.831  -9.977  12.043  1.00  0.00     0.273 C 
BRANCH  32  33
HETATM   33  C   UNL     1      42.676  -8.970  13.149  1.00  0.00    -0.033 A 
HETATM   34  C   UNL     1      41.702  -9.147  14.144  1.00  0.00     0.009 A 
HETATM   35  C   UNL     1      41.537  -8.193  15.150  1.00  0.00     0.001 A 
HETATM   36  C   UNL     1      42.339  -7.054  15.170  1.00  0.00     0.000 A 
HETATM   37  C   UNL     1      43.312  -6.868  14.191  1.00  0.00     0.001 A 
HETATM   38  C   UNL     1      43.485  -7.822  13.187  1.00  0.00     0.009 A 
ENDBRANCH  32  33
ENDBRANCH  28  32
ENDBRANCH   4  25
TORSDOF 9
ENDMDL
MODEL 4
REMARK VINA RESULT:      -8.9      2.482      3.560
REMARK  9 active torsions:
REMARK  status: ('A' for Active; 'I' for Inactive)
REMARK    1  A    between atoms: C_2  and  O_3 
REMARK    2  A    between atoms: O_3  and  C_4 
REMARK    3  A    between atoms: C_7  and  C_8 
REMARK       I    between atoms: C_8  and  N_9 
REMARK    4  A    between atoms: N_9  and  C_10 
REMARK    5  A    between atoms: C_10  and  N_11 
REMARK    6  A    between atoms: N_11  and  C_12 
REMARK    7  A    between atoms: C_15  and  N_16 
REMARK    8  A    between atoms: N_19  and  C_21 
REMARK    9  A    between atoms: C_21  and  C_22 
ROOT
HETATM    1  C   UNL     1      41.461 -10.506   3.654  1.00  0.00     0.034 C 
HETATM    2  C   UNL     1      40.625 -11.408   4.305  1.00  0.00     0.032 C 
HETATM    3  C   UNL     1      40.276 -12.621   3.703  1.00  0.00     0.031 C 
HETATM    4  C   UNL     1      40.793 -12.993   2.455  1.00  0.00     0.030 C 
HETATM    5  C   UNL     1      41.511 -12.002   1.761  1.00  0.00     0.031 C 
HETATM    6  C   UNL     1      41.835 -10.767   2.343  1.00  0.00     0.032 C 
ENDROOT
BRANCH   1   7
HETATM    7  N   UNL     1      41.918  -9.332   4.281  1.00  0.00    -0.333 N 
HETATM    8  H   UNL     1      42.773  -8.919   3.922  1.00  0.00     0.168 HD
BRANCH   7   9
HETATM    9  C   UNL     1      41.306  -8.644   5.287  1.00  0.00     0.179 C 
HETATM   10  S   UNL     1      39.814  -7.945   5.041  1.00  0.00    -0.040 SA
BRANCH   9  11
HETATM   11  N   UNL     1      41.927  -8.497   6.500  1.00  0.00    -0.299 N 
HETATM   12  C   UNL     1      42.652  -9.477   7.161  1.00  0.00     0.257 C 
HETATM   13  O   UNL     1      42.969 -10.581   6.734  1.00  0.00    -0.267 OA
HETATM   14  H   UNL     1      42.172  -7.541   6.729  1.00  0.00     0.171 HD
BRANCH  12  15
HETATM   15  C   UNL     1      43.128  -9.114   8.508  1.00  0.00     0.032 A 
HETATM   16  C   UNL     1      42.716  -7.918   9.098  1.00  0.00     0.020 A 
HETATM   17  C   UNL     1      43.002  -7.690  10.446  1.00  0.00     0.038 A 
HETATM   18  C   UNL     1      43.698  -8.642  11.203  1.00  0.00     0.069 A 
HETATM   19  C   UNL     1      44.160  -9.803  10.584  1.00  0.00     0.038 A 
HETATM   20  C   UNL     1      43.858 -10.051   9.242  1.00  0.00     0.020 A 
BRANCH  18  21
HETATM   21  O   UNL     1      43.818  -8.328  12.526  1.00  0.00    -0.347 OA
BRANCH  21  22
HETATM   22  C   UNL     1      42.657  -7.917  13.262  1.00  0.00     0.120 C 
HETATM   23  C   UNL     1      43.047  -7.023  14.439  1.00  0.00     0.040 C 
HETATM   24  C   UNL     1      42.004  -9.193  13.791  1.00  0.00     0.040 C 
ENDBRANCH  21  22
ENDBRANCH  18  21
ENDBRANCH  12  15
ENDBRANCH   9  11
ENDBRANCH   7   9
ENDBRANCH   1   7
BRANCH   4  25
HETATM   25  N   UNL     1      40.622 -14.273   1.901  1.00  0.00    -0.378 N 
HETATM   26  C   UNL     1      40.083 -15.365   2.740  1.00  0.00     0.150 C 
HETATM   27  C   UNL     1      41.170 -15.982   3.652  1.00  0.00     0.255 C 
HETATM   28  N   UNL     1      42.415 -16.389   2.858  1.00  0.00    -0.064 N 
HETATM   29  H   UNL     1      42.140 -17.176   2.259  1.00  0.00     0.280 HD
HETATM   30  C   UNL     1      42.904 -15.260   1.943  1.00  0.00     0.255 C 
HETATM   31  C   UNL     1      41.751 -14.738   1.057  1.00  0.00     0.150 C 
BRANCH  28  32
HETATM   32  C   UNL     1      43.536 -16.874   3.752  1.00  0.00     0.273 C 
BRANCH  32  33
HETATM   33  C   UNL     1      43.699 -18.368   3.735  1.00  0.00    -0.033 A 
HETATM   34  C   UNL     1      43.506 -19.094   2.549  1.00  0.00     0.009 A 
HETATM   35  C   UNL     1      43.625 -20.485   2.545  1.00  0.00     0.001 A 
HETATM   36  C   UNL     1      43.933 -21.164   3.722  1.00  0.00     0.000 A 
HETATM   37  C   UNL     1      44.131 -20.455   4.905  1.00  0.00     0.001 A 
HETATM   38  C   UNL     1      44.019 -19.064   4.913  1.00  0.00     0.009 A 
ENDBRANCH  32  33
ENDBRANCH  28  32
ENDBRANCH   4  25
TORSDOF 9
ENDMDL
MODEL 5
REMARK VINA RESULT:      -8.9      3.000     11.831
REMARK  9 active torsions:
REMARK  status: ('A' for Active; 'I' for Inactive)
REMARK    1  A    between atoms: C_2  and  O_3 
REMARK    2  A    between atoms: O_3  and  C_4 
REMARK    3  A    between atoms: C_7  and  C_8 
REMARK       I    between atoms: C_8  and  N_9 
REMARK    4  A    between atoms: N_9  and  C_10 
REMARK    5  A    between atoms: C_10  and  N_11 
REMARK    6  A    between atoms: N_11  and  C_12 
REMARK    7  A    between atoms: C_15  and  N_16 
REMARK    8  A    between atoms: N_19  and  C_21 
REMARK    9  A    between atoms: C_21  and  C_22 
ROOT
HETATM    1  C   UNL     1      41.556 -10.861   5.993  1.00  0.00     0.034 C 
HETATM    2  C   UNL     1      42.779 -11.431   6.335  1.00  0.00     0.032 C 
HETATM    3  C   UNL     1      43.704 -10.723   7.109  1.00  0.00     0.031 C 
HETATM    4  C   UNL     1      43.416  -9.447   7.607  1.00  0.00     0.030 C 
HETATM    5  C   UNL     1      42.240  -8.842   7.123  1.00  0.00     0.031 C 
HETATM    6  C   UNL     1      41.323  -9.532   6.315  1.00  0.00     0.032 C 
ENDROOT
BRANCH   1   7
HETATM    7  N   UNL     1      40.562 -11.590   5.312  1.00  0.00    -0.333 N 
HETATM    8  H   UNL     1      39.689 -11.752   5.804  1.00  0.00     0.168 HD
BRANCH   7   9
HETATM    9  C   UNL     1      40.615 -12.057   4.032  1.00  0.00     0.179 C 
HETATM   10  S   UNL     1      39.840 -11.237   2.805  1.00  0.00    -0.040 SA
BRANCH   9  11
HETATM   11  N   UNL     1      41.281 -13.221   3.748  1.00  0.00    -0.299 N 
HETATM   12  C   UNL     1      41.432 -14.297   4.611  1.00  0.00     0.257 C 
HETATM   13  O   UNL     1      40.903 -14.449   5.707  1.00  0.00    -0.267 OA
HETATM   14  H   UNL     1      41.332 -13.441   2.761  1.00  0.00     0.171 HD
BRANCH  12  15
HETATM   15  C   UNL     1      42.287 -15.390   4.118  1.00  0.00     0.032 A 
HETATM   16  C   UNL     1      43.248 -15.960   4.955  1.00  0.00     0.020 A 
HETATM   17  C   UNL     1      43.898 -17.127   4.549  1.00  0.00     0.038 A 
HETATM   18  C   UNL     1      43.601 -17.722   3.316  1.00  0.00     0.069 A 
HETATM   19  C   UNL     1      42.686 -17.107   2.462  1.00  0.00     0.038 A 
HETATM   20  C   UNL     1      42.012 -15.953   2.870  1.00  0.00     0.020 A 
BRANCH  18  21
HETATM   21  O   UNL     1      44.241 -18.909   3.096  1.00  0.00    -0.347 OA
BRANCH  21  22
HETATM   22  C   UNL     1      43.472 -20.113   2.979  1.00  0.00     0.120 C 
HETATM   23  C   UNL     1      43.987 -21.183   3.942  1.00  0.00     0.040 C 
HETATM   24  C   UNL     1      43.645 -20.603   1.542  1.00  0.00     0.040 C 
ENDBRANCH  21  22
ENDBRANCH  18  21
ENDBRANCH  12  15
ENDBRANCH   9  11
ENDBRANCH   7   9
ENDBRANCH   1   7
BRANCH   4  25
HETATM   25  N   UNL     1      44.230  -8.780   8.539  1.00  0.00    -0.378 N 
HETATM   26  C   UNL     1      45.108  -9.566   9.433  1.00  0.00     0.150 C 
HETATM   27  C   UNL     1      44.331 -10.150  10.637  1.00  0.00     0.255 C 
HETATM   28  N   UNL     1      43.529  -9.073  11.372  1.00  0.00    -0.064 N 
HETATM   29  H   UNL     1      44.211  -8.448  11.817  1.00  0.00     0.280 HD
HETATM   30  C   UNL     1      42.688  -8.228  10.408  1.00  0.00     0.255 C 
HETATM   31  C   UNL     1      43.563  -7.671   9.264  1.00  0.00     0.150 C 
BRANCH  28  32
HETATM   32  C   UNL     1      42.663  -9.649  12.471  1.00  0.00     0.273 C 
BRANCH  32  33
HETATM   33  C   UNL     1      42.440  -8.692  13.610  1.00  0.00    -0.033 A 
HETATM   34  C   UNL     1      43.264  -7.566  13.767  1.00  0.00     0.009 A 
HETATM   35  C   UNL     1      43.076  -6.699  14.845  1.00  0.00     0.001 A 
HETATM   36  C   UNL     1      42.070  -6.948  15.776  1.00  0.00     0.000 A 
HETATM   37  C   UNL     1      41.243  -8.060  15.629  1.00  0.00     0.001 A 
HETATM   38  C   UNL     1      41.423  -8.927  14.549  1.00  0.00     0.009 A 
ENDBRANCH  32  33
ENDBRANCH  28  32
ENDBRANCH   4  25
TORSDOF 9
ENDMDL
MODEL 6
REMARK VINA RESULT:      -8.7      5.457     10.064
REMARK  9 active torsions:
REMARK  status: ('A' for Active; 'I' for Inactive)
REMARK    1  A    between atoms: C_2  and  O_3 
REMARK    2  A    between atoms: O_3  and  C_4 
REMARK    3  A    between atoms: C_7  and  C_8 
REMARK       I    between atoms: C_8  and  N_9 
REMARK    4  A    between atoms: N_9  and  C_10 
REMARK    5  A    between atoms: C_10  and  N_11 
REMARK    6  A    between atoms: N_11  and  C_12 
REMARK    7  A    between atoms: C_15  and  N_16 
REMARK    8  A    between atoms: N_19  and  C_21 
REMARK    9  A    between atoms: C_21  and  C_22 
ROOT
HETATM    1  C   UNL     1      39.719 -10.903   0.766  1.00  0.00     0.034 C 
HETATM    2  C   UNL     1      40.546  -9.901   1.266  1.00  0.00     0.032 C 
HETATM    3  C   UNL     1      40.459  -9.507   2.605  1.00  0.00     0.031 C 
HETATM    4  C   UNL     1      39.581 -10.135   3.497  1.00  0.00     0.030 C 
HETATM    5  C   UNL     1      38.660 -11.035   2.930  1.00  0.00     0.031 C 
HETATM    6  C   UNL     1      38.715 -11.410   1.579  1.00  0.00     0.032 C 
ENDROOT
BRANCH   1   7
HETATM    7  N   UNL     1      39.861 -11.397  -0.544  1.00  0.00    -0.333 N 
HETATM    8  H   UNL     1      39.351 -10.915  -1.278  1.00  0.00     0.168 HD
BRANCH   7   9
HETATM    9  C   UNL     1      40.660 -12.422  -0.955  1.00  0.00     0.179 C 
HETATM   10  S   UNL     1      41.073 -12.573  -2.563  1.00  0.00    -0.040 SA
BRANCH   9  11
HETATM   11  N   UNL     1      41.106 -13.355  -0.056  1.00  0.00    -0.299 N 
HETATM   12  C   UNL     1      40.504 -14.577   0.205  1.00  0.00     0.257 C 
HETATM   13  O   UNL     1      39.565 -15.086  -0.396  1.00  0.00    -0.267 OA
HETATM   14  H   UNL     1      42.098 -13.304   0.140  1.00  0.00     0.171 HD
BRANCH  12  15
HETATM   15  C   UNL     1      41.106 -15.360   1.299  1.00  0.00     0.032 A 
HETATM   16  C   UNL     1      42.486 -15.567   1.335  1.00  0.00     0.020 A 
HETATM   17  C   UNL     1      43.062 -16.123   2.480  1.00  0.00     0.038 A 
HETATM   18  C   UNL     1      42.271 -16.476   3.580  1.00  0.00     0.069 A 
HETATM   19  C   UNL     1      40.887 -16.323   3.506  1.00  0.00     0.038 A 
HETATM   20  C   UNL     1      40.304 -15.746   2.375  1.00  0.00     0.020 A 
BRANCH  18  21
HETATM   21  O   UNL     1      42.979 -16.915   4.663  1.00  0.00    -0.347 OA
BRANCH  21  22
HETATM   22  C   UNL     1      43.255 -16.008   5.740  1.00  0.00     0.120 C 
HETATM   23  C   UNL     1      44.637 -16.275   6.335  1.00  0.00     0.040 C 
HETATM   24  C   UNL     1      42.189 -16.261   6.805  1.00  0.00     0.040 C 
ENDBRANCH  21  22
ENDBRANCH  18  21
ENDBRANCH  12  15
ENDBRANCH   9  11
ENDBRANCH   7   9
ENDBRANCH   1   7
BRANCH   4  25
HETATM   25  N   UNL     1      39.594  -9.903   4.884  1.00  0.00    -0.378 N 
HETATM   26  C   UNL     1      40.728  -9.172   5.490  1.00  0.00     0.150 C 
HETATM   27  C   UNL     1      41.957 -10.087   5.703  1.00  0.00     0.255 C 
HETATM   28  N   UNL     1      41.588 -11.366   6.461  1.00  0.00    -0.064 N 
HETATM   29  H   UNL     1      41.341 -11.083   7.416  1.00  0.00     0.280 HD
HETATM   30  C   UNL     1      40.364 -12.059   5.852  1.00  0.00     0.255 C 
HETATM   31  C   UNL     1      39.189 -11.067   5.710  1.00  0.00     0.150 C 
BRANCH  28  32
HETATM   32  C   UNL     1      42.751 -12.330   6.564  1.00  0.00     0.273 C 
BRANCH  32  33
HETATM   33  C   UNL     1      44.013 -11.681   7.061  1.00  0.00    -0.033 A 
HETATM   34  C   UNL     1      44.043 -11.050   8.315  1.00  0.00     0.009 A 
HETATM   35  C   UNL     1      45.207 -10.419   8.759  1.00  0.00     0.001 A 
HETATM   36  C   UNL     1      46.346 -10.408   7.957  1.00  0.00     0.000 A 
HETATM   37  C   UNL     1      46.330 -11.034   6.713  1.00  0.00     0.001 A 
HETATM   38  C   UNL     1      45.171 -11.672   6.267  1.00  0.00     0.009 A 
ENDBRANCH  32  33
ENDBRANCH  28  32
ENDBRANCH   4  25
TORSDOF 9
ENDMDL
MODEL 7
REMARK VINA RESULT:      -8.7      1.556      2.110
REMARK  9 active torsions:
REMARK  status: ('A' for Active; 'I' for Inactive)
REMARK    1  A    between atoms: C_2  and  O_3 
REMARK    2  A    between atoms: O_3  and  C_4 
REMARK    3  A    between atoms: C_7  and  C_8 
REMARK       I    between atoms: C_8  and  N_9 
REMARK    4  A    between atoms: N_9  and  C_10 
REMARK    5  A    between atoms: C_10  and  N_11 
REMARK    6  A    between atoms: N_11  and  C_12 
REMARK    7  A    between atoms: C_15  and  N_16 
REMARK    8  A    between atoms: N_19  and  C_21 
REMARK    9  A    between atoms: C_21  and  C_22 
ROOT
HETATM    1  C   UNL     1      41.665 -10.498   6.218  1.00  0.00     0.034 C 
HETATM    2  C   UNL     1      40.788 -11.560   6.412  1.00  0.00     0.032 C 
HETATM    3  C   UNL     1      40.497 -12.445   5.369  1.00  0.00     0.031 C 
HETATM    4  C   UNL     1      41.112 -12.326   4.116  1.00  0.00     0.030 C 
HETATM    5  C   UNL     1      41.874 -11.161   3.907  1.00  0.00     0.031 C 
HETATM    6  C   UNL     1      42.142 -10.248   4.939  1.00  0.00     0.032 C 
ENDROOT
BRANCH   1   7
HETATM    7  N   UNL     1      42.063  -9.661   7.278  1.00  0.00    -0.333 N 
HETATM    8  H   UNL     1      41.496  -8.837   7.453  1.00  0.00     0.168 HD
BRANCH   7   9
HETATM    9  C   UNL     1      43.097  -9.863   8.143  1.00  0.00     0.179 C 
HETATM   10  S   UNL     1      44.615 -10.241   7.566  1.00  0.00    -0.040 SA
BRANCH   9  11
HETATM   11  N   UNL     1      42.892  -9.786   9.496  1.00  0.00    -0.299 N 
HETATM   12  C   UNL     1      41.687  -9.484  10.114  1.00  0.00     0.257 C 
HETATM   13  O   UNL     1      40.590  -9.361   9.582  1.00  0.00    -0.267 OA
HETATM   14  H   UNL     1      43.543 -10.331  10.047  1.00  0.00     0.171 HD
BRANCH  12  15
HETATM   15  C   UNL     1      41.744  -9.349  11.580  1.00  0.00     0.032 A 
HETATM   16  C   UNL     1      42.864  -8.779  12.189  1.00  0.00     0.020 A 
HETATM   17  C   UNL     1      42.814  -8.465  13.548  1.00  0.00     0.038 A 
HETATM   18  C   UNL     1      41.660  -8.718  14.301  1.00  0.00     0.069 A 
HETATM   19  C   UNL     1      40.572  -9.346  13.696  1.00  0.00     0.038 A 
HETATM   20  C   UNL     1      40.603  -9.643  12.330  1.00  0.00     0.020 A 
BRANCH  18  21
HETATM   21  O   UNL     1      41.721  -8.270  15.590  1.00  0.00    -0.347 OA
BRANCH  21  22
HETATM   22  C   UNL     1      40.790  -7.272  16.033  1.00  0.00     0.120 C 
HETATM   23  C   UNL     1      41.418  -5.880  15.979  1.00  0.00     0.040 C 
HETATM   24  C   UNL     1      40.443  -7.614  17.482  1.00  0.00     0.040 C 
ENDBRANCH  21  22
ENDBRANCH  18  21
ENDBRANCH  12  15
ENDBRANCH   9  11
ENDBRANCH   7   9
ENDBRANCH   1   7
BRANCH   4  25
HETATM   25  N   UNL     1      40.995 -13.295   3.104  1.00  0.00    -0.378 N 
HETATM   26  C   UNL     1      40.325 -14.579   3.400  1.00  0.00     0.150 C 
HETATM   27  C   UNL     1      41.263 -15.564   4.137  1.00  0.00     0.255 C 
HETATM   28  N   UNL     1      42.598 -15.733   3.404  1.00  0.00    -0.064 N 
HETATM   29  H   UNL     1      42.393 -16.221   2.525  1.00  0.00     0.280 HD
HETATM   30  C   UNL     1      43.229 -14.383   3.047  1.00  0.00     0.255 C 
HETATM   31  C   UNL     1      42.221 -13.491   2.290  1.00  0.00     0.150 C 
BRANCH  28  32
HETATM   32  C   UNL     1      43.575 -16.591   4.178  1.00  0.00     0.273 C 
BRANCH  32  33
HETATM   33  C   UNL     1      43.617 -18.016   3.700  1.00  0.00    -0.033 A 
HETATM   34  C   UNL     1      43.160 -18.351   2.415  1.00  0.00     0.009 A 
HETATM   35  C   UNL     1      43.169 -19.680   1.987  1.00  0.00     0.001 A 
HETATM   36  C   UNL     1      43.627 -20.685   2.836  1.00  0.00     0.000 A 
HETATM   37  C   UNL     1      44.086 -20.365   4.112  1.00  0.00     0.001 A 
HETATM   38  C   UNL     1      44.086 -19.037   4.542  1.00  0.00     0.009 A 
ENDBRANCH  32  33
ENDBRANCH  28  32
ENDBRANCH   4  25
TORSDOF 9
ENDMDL
MODEL 8
REMARK VINA RESULT:      -8.5      2.631      3.408
REMARK  9 active torsions:
REMARK  status: ('A' for Active; 'I' for Inactive)
REMARK    1  A    between atoms: C_2  and  O_3 
REMARK    2  A    between atoms: O_3  and  C_4 
REMARK    3  A    between atoms: C_7  and  C_8 
REMARK       I    between atoms: C_8  and  N_9 
REMARK    4  A    between atoms: N_9  and  C_10 
REMARK    5  A    between atoms: C_10  and  N_11 
REMARK    6  A    between atoms: N_11  and  C_12 
REMARK    7  A    between atoms: C_15  and  N_16 
REMARK    8  A    between atoms: N_19  and  C_21 
REMARK    9  A    between atoms: C_21  and  C_22 
ROOT
HETATM    1  C   UNL     1      39.423 -11.006   5.372  1.00  0.00     0.034 C 
HETATM    2  C   UNL     1      39.987 -12.240   5.684  1.00  0.00     0.032 C 
HETATM    3  C   UNL     1      40.156 -13.217   4.698  1.00  0.00     0.031 C 
HETATM    4  C   UNL     1      39.815 -12.974   3.362  1.00  0.00     0.030 C 
HETATM    5  C   UNL     1      39.114 -11.780   3.108  1.00  0.00     0.031 C 
HETATM    6  C   UNL     1      38.907 -10.809   4.099  1.00  0.00     0.032 C 
ENDROOT
BRANCH   1   7
HETATM    7  N   UNL     1      39.345  -9.966   6.317  1.00  0.00    -0.333 N 
HETATM    8  H   UNL     1      38.441  -9.800   6.748  1.00  0.00     0.168 HD
BRANCH   7   9
HETATM    9  C   UNL     1      40.367  -9.185   6.769  1.00  0.00     0.179 C 
HETATM   10  S   UNL     1      41.420  -8.471   5.692  1.00  0.00    -0.040 SA
BRANCH   9  11
HETATM   11  N   UNL     1      40.557  -9.006   8.114  1.00  0.00    -0.299 N 
HETATM   12  C   UNL     1      39.703  -9.443   9.116  1.00  0.00     0.257 C 
HETATM   13  O   UNL     1      38.717 -10.161   8.990  1.00  0.00    -0.267 OA
HETATM   14  H   UNL     1      41.525  -8.885   8.386  1.00  0.00     0.171 HD
BRANCH  12  15
HETATM   15  C   UNL     1      40.065  -9.030  10.483  1.00  0.00     0.032 A 
HETATM   16  C   UNL     1      40.305  -7.685  10.768  1.00  0.00     0.020 A 
HETATM   17  C   UNL     1      40.436  -7.284  12.100  1.00  0.00     0.038 A 
HETATM   18  C   UNL     1      40.335  -8.214  13.142  1.00  0.00     0.069 A 
HETATM   19  C   UNL     1      40.159  -9.564  12.840  1.00  0.00     0.038 A 
HETATM   20  C   UNL     1      40.003  -9.972  11.513  1.00  0.00     0.020 A 
BRANCH  18  21
HETATM   21  O   UNL     1      40.385  -7.664  14.392  1.00  0.00    -0.347 OA
BRANCH  21  22
HETATM   22  C   UNL     1      41.442  -8.041  15.285  1.00  0.00     0.120 C 
HETATM   23  C   UNL     1      41.079  -7.701  16.730  1.00  0.00     0.040 C 
HETATM   24  C   UNL     1      42.671  -7.233  14.869  1.00  0.00     0.040 C 
ENDBRANCH  21  22
ENDBRANCH  18  21
ENDBRANCH  12  15
ENDBRANCH   9  11
ENDBRANCH   7   9
ENDBRANCH   1   7
BRANCH   4  25
HETATM   25  N   UNL     1      40.139 -13.850   2.312  1.00  0.00    -0.378 N 
HETATM   26  C   UNL     1      39.821 -15.289   2.438  1.00  0.00     0.150 C 
HETATM   27  C   UNL     1      40.871 -16.039   3.293  1.00  0.00     0.255 C 
HETATM   28  N   UNL     1      42.297 -15.776   2.801  1.00  0.00    -0.064 N 
HETATM   29  H   UNL     1      42.381 -16.226   1.883  1.00  0.00     0.280 HD
HETATM   30  C   UNL     1      42.570 -14.280   2.609  1.00  0.00     0.255 C 
HETATM   31  C   UNL     1      41.483 -13.636   1.720  1.00  0.00     0.150 C 
BRANCH  28  32
HETATM   32  C   UNL     1      43.341 -16.396   3.704  1.00  0.00     0.273 C 
BRANCH  32  33
HETATM   33  C   UNL     1      43.478 -17.882   3.514  1.00  0.00    -0.033 A 
HETATM   34  C   UNL     1      43.957 -18.693   4.555  1.00  0.00     0.009 A 
HETATM   35  C   UNL     1      44.115 -20.067   4.364  1.00  0.00     0.001 A 
HETATM   36  C   UNL     1      43.802 -20.642   3.134  1.00  0.00     0.000 A 
HETATM   37  C   UNL     1      43.323 -19.849   2.095  1.00  0.00     0.001 A 
HETATM   38  C   UNL     1      43.157 -18.475   2.283  1.00  0.00     0.009 A 
ENDBRANCH  32  33
ENDBRANCH  28  32
ENDBRANCH   4  25
TORSDOF 9
ENDMDL
MODEL 9
REMARK VINA RESULT:      -8.5      1.967      3.069
REMARK  9 active torsions:
REMARK  status: ('A' for Active; 'I' for Inactive)
REMARK    1  A    between atoms: C_2  and  O_3 
REMARK    2  A    between atoms: O_3  and  C_4 
REMARK    3  A    between atoms: C_7  and  C_8 
REMARK       I    between atoms: C_8  and  N_9 
REMARK    4  A    between atoms: N_9  and  C_10 
REMARK    5  A    between atoms: C_10  and  N_11 
REMARK    6  A    between atoms: N_11  and  C_12 
REMARK    7  A    between atoms: C_15  and  N_16 
REMARK    8  A    between atoms: N_19  and  C_21 
REMARK    9  A    between atoms: C_21  and  C_22 
ROOT
HETATM    1  C   UNL     1      42.040 -10.919   5.625  1.00  0.00     0.034 C 
HETATM    2  C   UNL     1      41.141 -11.973   5.762  1.00  0.00     0.032 C 
HETATM    3  C   UNL     1      40.754 -12.729   4.651  1.00  0.00     0.031 C 
HETATM    4  C   UNL     1      41.291 -12.489   3.380  1.00  0.00     0.030 C 
HETATM    5  C   UNL     1      42.078 -11.330   3.248  1.00  0.00     0.031 C 
HETATM    6  C   UNL     1      42.442 -10.543   4.351  1.00  0.00     0.032 C 
ENDROOT
BRANCH   1   7
HETATM    7  N   UNL     1      42.533 -10.215   6.740  1.00  0.00    -0.333 N 
HETATM    8  H   UNL     1      42.167  -9.280   6.895  1.00  0.00     0.168 HD
BRANCH   7   9
HETATM    9  C   UNL     1      43.409 -10.670   7.680  1.00  0.00     0.179 C 
HETATM   10  S   UNL     1      44.747 -11.555   7.224  1.00  0.00    -0.040 SA
BRANCH   9  11
HETATM   11  N   UNL     1      43.182 -10.431   9.010  1.00  0.00    -0.299 N 
HETATM   12  C   UNL     1      42.578  -9.298   9.535  1.00  0.00     0.257 C 
HETATM   13  O   UNL     1      42.038  -8.390   8.915  1.00  0.00    -0.267 OA
HETATM   14  H   UNL     1      43.115 -11.267   9.578  1.00  0.00     0.171 HD
BRANCH  12  15
HETATM   15  C   UNL     1      42.549  -9.220  11.006  1.00  0.00     0.032 A 
HETATM   16  C   UNL     1      43.415  -8.356  11.679  1.00  0.00     0.020 A 
HETATM   17  C   UNL     1      43.231  -8.136  13.046  1.00  0.00     0.038 A 
HETATM   18  C   UNL     1      42.197  -8.774  13.742  1.00  0.00     0.069 A 
HETATM   19  C   UNL     1      41.379  -9.683  13.072  1.00  0.00     0.038 A 
HETATM   20  C   UNL     1      41.539  -9.892  11.699  1.00  0.00     0.020 A 
BRANCH  18  21
HETATM   21  O   UNL     1      42.077  -8.389  15.048  1.00  0.00    -0.347 OA
BRANCH  21  22
HETATM   22  C   UNL     1      41.849  -7.007  15.357  1.00  0.00     0.120 C 
HETATM   23  C   UNL     1      42.072  -6.739  16.845  1.00  0.00     0.040 C 
HETATM   24  C   UNL     1      40.390  -6.718  15.005  1.00  0.00     0.040 C 
ENDBRANCH  21  22
ENDBRANCH  18  21
ENDBRANCH  12  15
ENDBRANCH   9  11
ENDBRANCH   7   9
ENDBRANCH   1   7
BRANCH   4  25
HETATM   25  N   UNL     1      41.077 -13.338   2.280  1.00  0.00    -0.378 N 
HETATM   26  C   UNL     1      40.046 -14.394   2.364  1.00  0.00     0.150 C 
HETATM   27  C   UNL     1      40.554 -15.637   3.133  1.00  0.00     0.255 C 
HETATM   28  N   UNL     1      41.891 -16.140   2.580  1.00  0.00    -0.064 N 
HETATM   29  H   UNL     1      41.702 -16.509   1.641  1.00  0.00     0.280 HD
HETATM   30  C   UNL     1      42.913 -15.006   2.435  1.00  0.00     0.255 C 
HETATM   31  C   UNL     1      42.316 -13.832   1.629  1.00  0.00     0.150 C 
BRANCH  28  32
HETATM   32  C   UNL     1      42.465 -17.273   3.402  1.00  0.00     0.273 C 
BRANCH  32  33
HETATM   33  C   UNL     1      42.821 -16.863   4.805  1.00  0.00    -0.033 A 
HETATM   34  C   UNL     1      44.162 -16.825   5.218  1.00  0.00     0.009 A 
HETATM   35  C   UNL     1      44.486 -16.477   6.530  1.00  0.00     0.001 A 
HETATM   36  C   UNL     1      43.478 -16.169   7.442  1.00  0.00     0.000 A 
HETATM   37  C   UNL     1      42.144 -16.200   7.043  1.00  0.00     0.001 A 
HETATM   38  C   UNL     1      41.815 -16.541   5.730  1.00  0.00     0.009 A 
ENDBRANCH  32  33
ENDBRANCH  28  32
ENDBRANCH   4  25
TORSDOF 9
ENDMDL
MODEL 10
REMARK VINA RESULT:      -8.4      3.946     11.093
REMARK  9 active torsions:
REMARK  status: ('A' for Active; 'I' for Inactive)
REMARK    1  A    between atoms: C_2  and  O_3 
REMARK    2  A    between atoms: O_3  and  C_4 
REMARK    3  A    between atoms: C_7  and  C_8 
REMARK       I    between atoms: C_8  and  N_9 
REMARK    4  A    between atoms: N_9  and  C_10 
REMARK    5  A    between atoms: C_10  and  N_11 
REMARK    6  A    between atoms: N_11  and  C_12 
REMARK    7  A    between atoms: C_15  and  N_16 
REMARK    8  A    between atoms: N_19  and  C_21 
REMARK    9  A    between atoms: C_21  and  C_22 
ROOT
HETATM    1  C   UNL     1      40.733 -10.114   5.400  1.00  0.00     0.034 C 
HETATM    2  C   UNL     1      39.588 -10.761   5.854  1.00  0.00     0.032 C 
HETATM    3  C   UNL     1      39.077 -10.495   7.129  1.00  0.00     0.031 C 
HETATM    4  C   UNL     1      39.664  -9.540   7.968  1.00  0.00     0.030 C 
HETATM    5  C   UNL     1      40.899  -9.016   7.542  1.00  0.00     0.031 C 
HETATM    6  C   UNL     1      41.438  -9.304   6.279  1.00  0.00     0.032 C 
ENDROOT
BRANCH   1   7
HETATM    7  N   UNL     1      41.204 -10.276   4.083  1.00  0.00    -0.333 N 
HETATM    8  H   UNL     1      41.995  -9.706   3.801  1.00  0.00     0.168 HD
BRANCH   7   9
HETATM    9  C   UNL     1      40.753 -11.164   3.151  1.00  0.00     0.179 C 
HETATM   10  S   UNL     1      39.626 -10.692   2.017  1.00  0.00    -0.040 SA
BRANCH   9  11
HETATM   11  N   UNL     1      41.200 -12.459   3.158  1.00  0.00    -0.299 N 
HETATM   12  C   UNL     1      42.528 -12.855   3.204  1.00  0.00     0.257 C 
HETATM   13  O   UNL     1      43.510 -12.142   3.371  1.00  0.00    -0.267 OA
HETATM   14  H   UNL     1      40.530 -13.129   3.517  1.00  0.00     0.171 HD
BRANCH  12  15
HETATM   15  C   UNL     1      42.762 -14.305   3.085  1.00  0.00     0.032 A 
HETATM   16  C   UNL     1      42.348 -15.167   4.102  1.00  0.00     0.020 A 
HETATM   17  C   UNL     1      42.383 -16.546   3.883  1.00  0.00     0.038 A 
HETATM   18  C   UNL     1      42.832 -17.067   2.662  1.00  0.00     0.069 A 
HETATM   19  C   UNL     1      43.302 -16.197   1.678  1.00  0.00     0.038 A 
HETATM   20  C   UNL     1      43.248 -14.815   1.879  1.00  0.00     0.020 A 
BRANCH  18  21
HETATM   21  O   UNL     1      42.718 -18.424   2.555  1.00  0.00    -0.347 OA
BRANCH  21  22
HETATM   22  C   UNL     1      43.898 -19.237   2.614  1.00  0.00     0.120 C 
HETATM   23  C   UNL     1      43.729 -20.502   1.773  1.00  0.00     0.040 C 
HETATM   24  C   UNL     1      44.086 -19.625   4.080  1.00  0.00     0.040 C 
ENDBRANCH  21  22
ENDBRANCH  18  21
ENDBRANCH  12  15
ENDBRANCH   9  11
ENDBRANCH   7   9
ENDBRANCH   1   7
BRANCH   4  25
HETATM   25  N   UNL     1      39.081  -9.107   9.171  1.00  0.00    -0.378 N 
HETATM   26  C   UNL     1      39.035  -7.662   9.480  1.00  0.00     0.150 C 
HETATM   27  C   UNL     1      40.385  -7.147  10.033  1.00  0.00     0.255 C 
HETATM   28  N   UNL     1      40.882  -8.000  11.204  1.00  0.00    -0.064 N 
HETATM   29  H   UNL     1      40.235  -7.838  11.984  1.00  0.00     0.280 HD
HETATM   30  C   UNL     1      40.846  -9.497  10.877  1.00  0.00     0.255 C 
HETATM   31  C   UNL     1      39.450  -9.911  10.363  1.00  0.00     0.150 C 
BRANCH  28  32
HETATM   32  C   UNL     1      42.262  -7.589  11.671  1.00  0.00     0.273 C 
BRANCH  32  33
HETATM   33  C   UNL     1      43.362  -8.101  10.783  1.00  0.00    -0.033 A 
HETATM   34  C   UNL     1      43.600  -7.511   9.531  1.00  0.00     0.009 A 
HETATM   35  C   UNL     1      44.600  -8.011   8.694  1.00  0.00     0.001 A 
HETATM   36  C   UNL     1      45.366  -9.103   9.095  1.00  0.00     0.000 A 
HETATM   37  C   UNL     1      45.142  -9.694  10.336  1.00  0.00     0.001 A 
HETATM   38  C   UNL     1      44.148  -9.195  11.180  1.00  0.00     0.009 A 
ENDBRANCH  32  33
ENDBRANCH  28  32
ENDBRANCH   4  25
TORSDOF 9
ENDMDL
