MODEL 1
REMARK VINA RESULT:      -8.9      0.000      0.000
REMARK  4 active torsions:
REMARK  status: ('A' for Active; 'I' for Inactive)
REMARK    1  A    between atoms: N_2  and  C_4 
REMARK    2  A    between atoms: N_2  and  C_16 
REMARK    3  A    between atoms: C_4  and  C_5 
REMARK    4  A    between atoms: C_16  and  C_17 
ROOT
HETATM    1  C   UNL     1      40.811 -13.493   3.462  1.00  0.00     0.270 C 
HETATM    2  N   UNL     1      42.314 -13.530   3.489  1.00  0.00    -0.064 N 
HETATM    3  H   UNL     1      42.567 -13.951   4.399  1.00  0.00     0.280 HD
ENDROOT
BRANCH   2   4
HETATM    4  C   UNL     1      42.886 -14.493   2.455  1.00  0.00     0.312 C 
BRANCH   4   5
HETATM    5  C   UNL     1      43.212 -15.846   3.073  1.00  0.00     0.133 A 
HETATM    6  N   UNL     1      43.105 -16.909   2.339  1.00  0.00    -0.233 NA
HETATM    7  C   UNL     1      43.412 -18.148   2.944  1.00  0.00     0.074 A 
HETATM    8  C   UNL     1      43.820 -18.255   4.278  1.00  0.00     0.061 A 
HETATM    9  C   UNL     1      43.311 -19.316   2.186  1.00  0.00     0.032 A 
HETATM   10  C   UNL     1      43.920 -17.010   5.056  1.00  0.00     0.259 A 
HETATM   11  C   UNL     1      44.122 -19.489   4.857  1.00  0.00     0.019 A 
HETATM   12  O   UNL     1      44.268 -16.981   6.228  1.00  0.00    -0.267 OA
HETATM   13  N   UNL     1      43.601 -15.858   4.381  1.00  0.00    -0.309 N 
HETATM   14  H   UNL     1      43.669 -15.023   4.951  1.00  0.00     0.170 HD
HETATM   15  C   UNL     1      44.016 -20.646   4.087  1.00  0.00     0.001 A 
HETATM   16  C   UNL     1      43.611 -20.559   2.754  1.00  0.00     0.002 A 
ENDBRANCH   4   5
ENDBRANCH   2   4
BRANCH   2  17
HETATM   17  C   UNL     1      42.962 -12.173   3.400  1.00  0.00     0.273 C 
BRANCH  17  18
HETATM   18  C   UNL     1      43.059 -11.442   4.710  1.00  0.00    -0.028 A 
HETATM   19  C   UNL     1      42.149 -10.422   5.026  1.00  0.00     0.035 A 
HETATM   20  C   UNL     1      42.210  -9.769   6.263  1.00  0.00     0.070 A 
HETATM   21 CL   UNL     1      41.031  -8.555   6.598  1.00  0.00    -0.081 Cl
HETATM   22  C   UNL     1      43.200 -10.103   7.192  1.00  0.00     0.123 A 
HETATM   23  C   UNL     1      44.121 -11.104   6.873  1.00  0.00     0.104 A 
HETATM   24  O   UNL     1      43.159  -9.532   8.434  1.00  0.00    -0.346 OA
HETATM   25  O   UNL     1      45.067 -11.560   7.749  1.00  0.00    -0.348 OA
HETATM   26  C   UNL     1      44.040 -11.783   5.652  1.00  0.00     0.048 A 
HETATM   27  C   UNL     1      45.998 -10.542   8.133  1.00  0.00     0.178 C 
HETATM   28  C   UNL     1      45.457  -9.647   9.235  1.00  0.00     0.053 C 
HETATM   29  C   UNL     1      44.329  -8.765   8.723  1.00  0.00     0.178 C 
ENDBRANCH  17  18
ENDBRANCH   2  17
TORSDOF 4
ENDMDL
MODEL 2
REMARK VINA RESULT:      -8.6      4.489      6.516
REMARK  4 active torsions:
REMARK  status: ('A' for Active; 'I' for Inactive)
REMARK    1  A    between atoms: N_2  and  C_4 
REMARK    2  A    between atoms: N_2  and  C_16 
REMARK    3  A    between atoms: C_4  and  C_5 
REMARK    4  A    between atoms: C_16  and  C_17 
ROOT
HETATM    1  C   UNL     1      40.911 -14.353   4.892  1.00  0.00     0.270 C 
HETATM    2  N   UNL     1      41.339 -14.169   3.462  1.00  0.00    -0.064 N 
HETATM    3  H   UNL     1      41.255 -13.154   3.275  1.00  0.00     0.280 HD
ENDROOT
BRANCH   2   4
HETATM    4  C   UNL     1      42.819 -14.470   3.259  1.00  0.00     0.312 C 
BRANCH   4   5
HETATM    5  C   UNL     1      43.156 -15.902   3.653  1.00  0.00     0.133 A 
HETATM    6  N   UNL     1      43.079 -16.831   2.752  1.00  0.00    -0.233 NA
HETATM    7  C   UNL     1      43.396 -18.149   3.151  1.00  0.00     0.074 A 
HETATM    8  C   UNL     1      43.781 -18.468   4.458  1.00  0.00     0.061 A 
HETATM    9  C   UNL     1      43.327 -19.177   2.210  1.00  0.00     0.032 A 
HETATM   10  C   UNL     1      43.847 -17.367   5.431  1.00  0.00     0.259 A 
HETATM   11  C   UNL     1      44.094 -19.777   4.833  1.00  0.00     0.019 A 
HETATM   12  O   UNL     1      44.173 -17.527   6.599  1.00  0.00    -0.267 OA
HETATM   13  N   UNL     1      43.521 -16.125   4.949  1.00  0.00    -0.309 N 
HETATM   14  H   UNL     1      43.565 -15.394   5.650  1.00  0.00     0.170 HD
HETATM   15  C   UNL     1      44.020 -20.792   3.880  1.00  0.00     0.001 A 
HETATM   16  C   UNL     1      43.638 -20.492   2.572  1.00  0.00     0.002 A 
ENDBRANCH   4   5
ENDBRANCH   2   4
BRANCH   2  17
HETATM   17  C   UNL     1      40.483 -14.904   2.465  1.00  0.00     0.273 C 
BRANCH  17  18
HETATM   18  C   UNL     1      40.291 -14.187   1.158  1.00  0.00    -0.028 A 
HETATM   19  C   UNL     1      39.833 -14.877   0.025  1.00  0.00     0.035 A 
HETATM   20  C   UNL     1      39.611 -14.203  -1.181  1.00  0.00     0.070 A 
HETATM   21 CL   UNL     1      39.007 -15.110  -2.518  1.00  0.00    -0.081 Cl
HETATM   22  C   UNL     1      39.873 -12.834  -1.285  1.00  0.00     0.123 A 
HETATM   23  C   UNL     1      40.349 -12.146  -0.166  1.00  0.00     0.104 A 
HETATM   24  O   UNL     1      39.535 -12.183  -2.440  1.00  0.00    -0.346 OA
HETATM   25  O   UNL     1      40.550 -10.793  -0.146  1.00  0.00    -0.348 OA
HETATM   26  C   UNL     1      40.537 -12.811   1.051  1.00  0.00     0.048 A 
HETATM   27  C   UNL     1      41.546 -10.371  -1.083  1.00  0.00     0.178 C 
HETATM   28  C   UNL     1      40.995 -10.234  -2.493  1.00  0.00     0.053 C 
HETATM   29  C   UNL     1      40.664 -11.593  -3.087  1.00  0.00     0.178 C 
ENDBRANCH  17  18
ENDBRANCH   2  17
TORSDOF 4
ENDMDL
MODEL 3
REMARK VINA RESULT:      -8.5      4.415      6.905
REMARK  4 active torsions:
REMARK  status: ('A' for Active; 'I' for Inactive)
REMARK    1  A    between atoms: N_2  and  C_4 
REMARK    2  A    between atoms: N_2  and  C_16 
REMARK    3  A    between atoms: C_4  and  C_5 
REMARK    4  A    between atoms: C_16  and  C_17 
ROOT
HETATM    1  C   UNL     1      42.356 -11.651   2.865  1.00  0.00     0.270 C 
HETATM    2  N   UNL     1      41.538 -12.836   3.299  1.00  0.00    -0.064 N 
HETATM    3  H   UNL     1      41.786 -13.599   2.646  1.00  0.00     0.280 HD
ENDROOT
BRANCH   2   4
HETATM    4  C   UNL     1      41.959 -13.358   4.668  1.00  0.00     0.312 C 
BRANCH   4   5
HETATM    5  C   UNL     1      42.561 -14.754   4.573  1.00  0.00     0.133 A 
HETATM    6  N   UNL     1      42.302 -15.474   3.527  1.00  0.00    -0.233 NA
HETATM    7  C   UNL     1      42.874 -16.764   3.470  1.00  0.00     0.074 A 
HETATM    8  C   UNL     1      43.691 -17.271   4.487  1.00  0.00     0.061 A 
HETATM    9  C   UNL     1      42.621 -17.570   2.360  1.00  0.00     0.032 A 
HETATM   10  C   UNL     1      43.945 -16.403   5.647  1.00  0.00     0.259 A 
HETATM   11  C   UNL     1      44.250 -18.549   4.412  1.00  0.00     0.019 A 
HETATM   12  O   UNL     1      44.644 -16.738   6.593  1.00  0.00    -0.267 OA
HETATM   13  N   UNL     1      43.346 -15.168   5.610  1.00  0.00    -0.309 N 
HETATM   14  H   UNL     1      43.531 -14.603   6.430  1.00  0.00     0.170 HD
HETATM   15  C   UNL     1      43.987 -19.341   3.296  1.00  0.00     0.001 A 
HETATM   16  C   UNL     1      43.174 -18.852   2.272  1.00  0.00     0.002 A 
ENDBRANCH   4   5
ENDBRANCH   2   4
BRANCH   2  17
HETATM   17  C   UNL     1      40.050 -12.616   3.225  1.00  0.00     0.273 C 
BRANCH  17  18
HETATM   18  C   UNL     1      39.501 -12.538   1.828  1.00  0.00    -0.028 A 
HETATM   19  C   UNL     1      38.520 -11.590   1.498  1.00  0.00     0.035 A 
HETATM   20  C   UNL     1      38.039 -11.486   0.188  1.00  0.00     0.070 A 
HETATM   21 CL   UNL     1      36.865 -10.268  -0.150  1.00  0.00    -0.081 Cl
HETATM   22  C   UNL     1      38.506 -12.348  -0.808  1.00  0.00     0.123 A 
HETATM   23  C   UNL     1      39.467 -13.307  -0.481  1.00  0.00     0.104 A 
HETATM   24  O   UNL     1      38.104 -12.143  -2.100  1.00  0.00    -0.346 OA
HETATM   25  O   UNL     1      40.048 -14.134  -1.403  1.00  0.00    -0.348 OA
HETATM   26  C   UNL     1      39.976 -13.389   0.820  1.00  0.00     0.048 A 
HETATM   27  C   UNL     1      39.102 -15.002  -2.036  1.00  0.00     0.178 C 
HETATM   28  C   UNL     1      38.354 -14.317  -3.169  1.00  0.00     0.053 C 
HETATM   29  C   UNL     1      37.398 -13.262  -2.638  1.00  0.00     0.178 C 
ENDBRANCH  17  18
ENDBRANCH   2  17
TORSDOF 4
ENDMDL
MODEL 4
REMARK VINA RESULT:      -8.5      1.881      2.543
REMARK  4 active torsions:
REMARK  status: ('A' for Active; 'I' for Inactive)
REMARK    1  A    between atoms: N_2  and  C_4 
REMARK    2  A    between atoms: N_2  and  C_16 
REMARK    3  A    between atoms: C_4  and  C_5 
REMARK    4  A    between atoms: C_16  and  C_17 
ROOT
HETATM    1  C   UNL     1      39.664 -12.616   5.667  1.00  0.00     0.270 C 
HETATM    2  N   UNL     1      41.075 -12.566   5.149  1.00  0.00    -0.064 N 
HETATM    3  H   UNL     1      41.642 -13.091   5.836  1.00  0.00     0.280 HD
ENDROOT
BRANCH   2   4
HETATM    4  C   UNL     1      41.239 -13.343   3.849  1.00  0.00     0.312 C 
BRANCH   4   5
HETATM    5  C   UNL     1      42.049 -14.617   4.058  1.00  0.00     0.133 A 
HETATM    6  N   UNL     1      42.025 -15.530   3.139  1.00  0.00    -0.233 NA
HETATM    7  C   UNL     1      42.785 -16.698   3.365  1.00  0.00     0.074 A 
HETATM    8  C   UNL     1      43.543 -16.891   4.525  1.00  0.00     0.061 A 
HETATM    9  C   UNL     1      42.787 -17.704   2.397  1.00  0.00     0.032 A 
HETATM   10  C   UNL     1      43.526 -15.816   5.530  1.00  0.00     0.259 A 
HETATM   11  C   UNL     1      44.291 -18.053   4.730  1.00  0.00     0.019 A 
HETATM   12  O   UNL     1      44.151 -15.873   6.580  1.00  0.00    -0.267 OA
HETATM   13  N   UNL     1      42.758 -14.722   5.220  1.00  0.00    -0.309 N 
HETATM   14  H   UNL     1      42.760 -14.009   5.939  1.00  0.00     0.170 HD
HETATM   15  C   UNL     1      44.282 -19.047   3.754  1.00  0.00     0.001 A 
HETATM   16  C   UNL     1      43.532 -18.872   2.590  1.00  0.00     0.002 A 
ENDBRANCH   4   5
ENDBRANCH   2   4
BRANCH   2  17
HETATM   17  C   UNL     1      41.638 -11.174   5.037  1.00  0.00     0.273 C 
BRANCH  17  18
HETATM   18  C   UNL     1      42.540 -10.773   6.171  1.00  0.00    -0.028 A 
HETATM   19  C   UNL     1      43.906 -11.095   6.144  1.00  0.00     0.035 A 
HETATM   20  C   UNL     1      44.756 -10.685   7.177  1.00  0.00     0.070 A 
HETATM   21 CL   UNL     1      46.431 -11.080   7.054  1.00  0.00    -0.081 Cl
HETATM   22  C   UNL     1      44.252  -9.973   8.270  1.00  0.00     0.123 A 
HETATM   23  C   UNL     1      42.889  -9.669   8.311  1.00  0.00     0.104 A 
HETATM   24  O   UNL     1      45.127  -9.486   9.202  1.00  0.00    -0.346 OA
HETATM   25  O   UNL     1      42.320  -8.903   9.292  1.00  0.00    -0.348 OA
HETATM   26  C   UNL     1      42.043 -10.046   7.262  1.00  0.00     0.048 A 
HETATM   27  C   UNL     1      42.435  -9.497  10.589  1.00  0.00     0.178 C 
HETATM   28  C   UNL     1      43.792  -9.244  11.225  1.00  0.00     0.053 C 
HETATM   29  C   UNL     1      44.888 -10.015  10.506  1.00  0.00     0.178 C 
ENDBRANCH  17  18
ENDBRANCH   2  17
TORSDOF 4
ENDMDL
MODEL 5
REMARK VINA RESULT:      -8.2      2.599      7.995
REMARK  4 active torsions:
REMARK  status: ('A' for Active; 'I' for Inactive)
REMARK    1  A    between atoms: N_2  and  C_4 
REMARK    2  A    between atoms: N_2  and  C_16 
REMARK    3  A    between atoms: C_4  and  C_5 
REMARK    4  A    between atoms: C_16  and  C_17 
ROOT
HETATM    1  C   UNL     1      41.249 -11.269   2.851  1.00  0.00     0.270 C 
HETATM    2  N   UNL     1      41.354 -11.776   4.263  1.00  0.00    -0.064 N 
HETATM    3  H   UNL     1      42.343 -12.052   4.387  1.00  0.00     0.280 HD
ENDROOT
BRANCH   2   4
HETATM    4  C   UNL     1      41.138 -10.671   5.291  1.00  0.00     0.312 C 
BRANCH   4   5
HETATM    5  C   UNL     1      42.293 -10.596   6.281  1.00  0.00     0.133 A 
HETATM    6  N   UNL     1      42.123  -9.947   7.390  1.00  0.00    -0.233 NA
HETATM    7  C   UNL     1      43.214  -9.896   8.285  1.00  0.00     0.074 A 
HETATM    8  C   UNL     1      44.441 -10.511   8.014  1.00  0.00     0.061 A 
HETATM    9  C   UNL     1      43.070  -9.208   9.491  1.00  0.00     0.032 A 
HETATM   10  C   UNL     1      44.568 -11.231   6.737  1.00  0.00     0.259 A 
HETATM   11  C   UNL     1      45.508 -10.452   8.913  1.00  0.00     0.019 A 
HETATM   12  O   UNL     1      45.591 -11.808   6.394  1.00  0.00    -0.267 OA
HETATM   13  N   UNL     1      43.454 -11.224   5.935  1.00  0.00    -0.309 N 
HETATM   14  H   UNL     1      43.583 -11.718   5.060  1.00  0.00     0.170 HD
HETATM   15  C   UNL     1      45.347  -9.762  10.113  1.00  0.00     0.001 A 
HETATM   16  C   UNL     1      44.130  -9.141  10.401  1.00  0.00     0.002 A 
ENDBRANCH   4   5
ENDBRANCH   2   4
BRANCH   2  17
HETATM   17  C   UNL     1      40.489 -12.975   4.550  1.00  0.00     0.273 C 
BRANCH  17  18
HETATM   18  C   UNL     1      41.247 -14.261   4.727  1.00  0.00    -0.028 A 
HETATM   19  C   UNL     1      41.877 -14.556   5.946  1.00  0.00     0.035 A 
HETATM   20  C   UNL     1      42.545 -15.772   6.128  1.00  0.00     0.070 A 
HETATM   21 CL   UNL     1      43.258 -16.082   7.668  1.00  0.00    -0.081 Cl
HETATM   22  C   UNL     1      42.622 -16.702   5.087  1.00  0.00     0.123 A 
HETATM   23  C   UNL     1      42.014 -16.404   3.865  1.00  0.00     0.104 A 
HETATM   24  O   UNL     1      43.178 -17.927   5.335  1.00  0.00    -0.346 OA
HETATM   25  O   UNL     1      41.960 -17.284   2.819  1.00  0.00    -0.348 OA
HETATM   26  C   UNL     1      41.315 -15.204   3.691  1.00  0.00     0.048 A 
HETATM   27  C   UNL     1      43.258 -17.628   2.322  1.00  0.00     0.178 C 
HETATM   28  C   UNL     1      43.930 -18.708   3.154  1.00  0.00     0.053 C 
HETATM   29  C   UNL     1      44.325 -18.181   4.523  1.00  0.00     0.178 C 
ENDBRANCH  17  18
ENDBRANCH   2  17
TORSDOF 4
ENDMDL
MODEL 6
REMARK VINA RESULT:      -8.1      4.428      7.964
REMARK  4 active torsions:
REMARK  status: ('A' for Active; 'I' for Inactive)
REMARK    1  A    between atoms: N_2  and  C_4 
REMARK    2  A    between atoms: N_2  and  C_16 
REMARK    3  A    between atoms: C_4  and  C_5 
REMARK    4  A    between atoms: C_16  and  C_17 
ROOT
HETATM    1  C   UNL     1      39.762 -12.766   4.430  1.00  0.00     0.270 C 
HETATM    2  N   UNL     1      40.696 -12.785   3.252  1.00  0.00    -0.064 N 
HETATM    3  H   UNL     1      40.405 -13.596   2.679  1.00  0.00     0.280 HD
ENDROOT
BRANCH   2   4
HETATM    4  C   UNL     1      40.495 -11.583   2.336  1.00  0.00     0.312 C 
BRANCH   4   5
HETATM    5  C   UNL     1      39.710 -11.959   1.086  1.00  0.00     0.133 A 
HETATM    6  N   UNL     1      40.068 -13.011   0.417  1.00  0.00    -0.233 NA
HETATM    7  C   UNL     1      39.321 -13.331  -0.738  1.00  0.00     0.074 A 
HETATM    8  C   UNL     1      38.233 -12.563  -1.167  1.00  0.00     0.061 A 
HETATM    9  C   UNL     1      39.674 -14.456  -1.483  1.00  0.00     0.032 A 
HETATM   10  C   UNL     1      37.880 -11.382  -0.365  1.00  0.00     0.259 A 
HETATM   11  C   UNL     1      37.505 -12.897  -2.311  1.00  0.00     0.019 A 
HETATM   12  O   UNL     1      36.948 -10.639  -0.642  1.00  0.00    -0.267 OA
HETATM   13  N   UNL     1      38.664 -11.154   0.738  1.00  0.00    -0.309 N 
HETATM   14  H   UNL     1      38.400 -10.327   1.259  1.00  0.00     0.170 HD
HETATM   15  C   UNL     1      37.870 -14.024  -3.045  1.00  0.00     0.001 A 
HETATM   16  C   UNL     1      38.953 -14.802  -2.631  1.00  0.00     0.002 A 
ENDBRANCH   4   5
ENDBRANCH   2   4
BRANCH   2  17
HETATM   17  C   UNL     1      42.145 -12.963   3.621  1.00  0.00     0.273 C 
BRANCH  17  18
HETATM   18  C   UNL     1      42.522 -14.366   4.007  1.00  0.00    -0.028 A 
HETATM   19  C   UNL     1      43.080 -14.634   5.267  1.00  0.00     0.035 A 
HETATM   20  C   UNL     1      43.391 -15.945   5.645  1.00  0.00     0.070 A 
HETATM   21 CL   UNL     1      44.034 -16.201   7.226  1.00  0.00    -0.081 Cl
HETATM   22  C   UNL     1      43.180 -17.007   4.761  1.00  0.00     0.123 A 
HETATM   23  C   UNL     1      42.644 -16.742   3.499  1.00  0.00     0.104 A 
HETATM   24  O   UNL     1      43.383 -18.285   5.204  1.00  0.00    -0.346 OA
HETATM   25  O   UNL     1      42.320 -17.722   2.600  1.00  0.00    -0.348 OA
HETATM   26  C   UNL     1      42.299 -15.437   3.130  1.00  0.00     0.048 A 
HETATM   27  C   UNL     1      43.458 -18.484   2.183  1.00  0.00     0.178 C 
HETATM   28  C   UNL     1      43.828 -19.568   3.182  1.00  0.00     0.053 C 
HETATM   29  C   UNL     1      44.392 -18.968   4.460  1.00  0.00     0.178 C 
ENDBRANCH  17  18
ENDBRANCH   2  17
TORSDOF 4
ENDMDL
MODEL 7
REMARK VINA RESULT:      -8.0      2.768      8.583
REMARK  4 active torsions:
REMARK  status: ('A' for Active; 'I' for Inactive)
REMARK    1  A    between atoms: N_2  and  C_4 
REMARK    2  A    between atoms: N_2  and  C_16 
REMARK    3  A    between atoms: C_4  and  C_5 
REMARK    4  A    between atoms: C_16  and  C_17 
ROOT
HETATM    1  C   UNL     1      44.070 -11.791   3.730  1.00  0.00     0.270 C 
HETATM    2  N   UNL     1      42.974 -11.887   4.755  1.00  0.00    -0.064 N 
HETATM    3  H   UNL     1      43.442 -12.156   5.638  1.00  0.00     0.280 HD
ENDROOT
BRANCH   2   4
HETATM    4  C   UNL     1      42.345 -10.532   5.057  1.00  0.00     0.312 C 
BRANCH   4   5
HETATM    5  C   UNL     1      42.552 -10.132   6.513  1.00  0.00     0.133 A 
HETATM    6  N   UNL     1      43.715 -10.324   7.052  1.00  0.00    -0.233 NA
HETATM    7  C   UNL     1      43.873  -9.944   8.404  1.00  0.00     0.074 A 
HETATM    8  C   UNL     1      42.834  -9.382   9.154  1.00  0.00     0.061 A 
HETATM    9  C   UNL     1      45.110 -10.132   9.020  1.00  0.00     0.032 A 
HETATM   10  C   UNL     1      41.540  -9.193   8.482  1.00  0.00     0.259 A 
HETATM   11  C   UNL     1      43.010  -9.011  10.489  1.00  0.00     0.019 A 
HETATM   12  O   UNL     1      40.563  -8.710   9.037  1.00  0.00    -0.267 OA
HETATM   13  N   UNL     1      41.485  -9.592   7.170  1.00  0.00    -0.309 N 
HETATM   14  H   UNL     1      40.576  -9.460   6.743  1.00  0.00     0.170 HD
HETATM   15  C   UNL     1      44.253  -9.205  11.090  1.00  0.00     0.001 A 
HETATM   16  C   UNL     1      45.301  -9.764  10.357  1.00  0.00     0.002 A 
ENDBRANCH   4   5
ENDBRANCH   2   4
BRANCH   2  17
HETATM   17  C   UNL     1      41.929 -12.924   4.440  1.00  0.00     0.273 C 
BRANCH  17  18
HETATM   18  C   UNL     1      42.400 -14.346   4.576  1.00  0.00    -0.028 A 
HETATM   19  C   UNL     1      43.087 -14.763   5.726  1.00  0.00     0.035 A 
HETATM   20  C   UNL     1      43.488 -16.095   5.874  1.00  0.00     0.070 A 
HETATM   21 CL   UNL     1      44.291 -16.543   7.334  1.00  0.00    -0.081 Cl
HETATM   22  C   UNL     1      43.237 -17.027   4.863  1.00  0.00     0.123 A 
HETATM   23  C   UNL     1      42.571 -16.612   3.708  1.00  0.00     0.104 A 
HETATM   24  O   UNL     1      43.535 -18.343   5.090  1.00  0.00    -0.346 OA
HETATM   25  O   UNL     1      42.203 -17.468   2.705  1.00  0.00    -0.348 OA
HETATM   26  C   UNL     1      42.137 -15.289   3.572  1.00  0.00     0.048 A 
HETATM   27  C   UNL     1      43.326 -18.096   2.078  1.00  0.00     0.178 C 
HETATM   28  C   UNL     1      43.836 -19.292   2.866  1.00  0.00     0.053 C 
HETATM   29  C   UNL     1      44.495 -18.854   4.164  1.00  0.00     0.178 C 
ENDBRANCH  17  18
ENDBRANCH   2  17
TORSDOF 4
ENDMDL
MODEL 8
REMARK VINA RESULT:      -8.0      1.787      2.562
REMARK  4 active torsions:
REMARK  status: ('A' for Active; 'I' for Inactive)
REMARK    1  A    between atoms: N_2  and  C_4 
REMARK    2  A    between atoms: N_2  and  C_16 
REMARK    3  A    between atoms: C_4  and  C_5 
REMARK    4  A    between atoms: C_16  and  C_17 
ROOT
HETATM    1  C   UNL     1      40.436 -14.818   1.894  1.00  0.00     0.270 C 
HETATM    2  N   UNL     1      41.692 -14.208   2.453  1.00  0.00    -0.064 N 
HETATM    3  H   UNL     1      41.672 -14.411   3.467  1.00  0.00     0.280 HD
ENDROOT
BRANCH   2   4
HETATM    4  C   UNL     1      42.948 -14.911   1.950  1.00  0.00     0.312 C 
BRANCH   4   5
HETATM    5  C   UNL     1      43.249 -16.164   2.763  1.00  0.00     0.133 A 
HETATM    6  N   UNL     1      43.214 -17.315   2.170  1.00  0.00    -0.233 NA
HETATM    7  C   UNL     1      43.496 -18.457   2.953  1.00  0.00     0.074 A 
HETATM    8  C   UNL     1      43.805 -18.378   4.315  1.00  0.00     0.061 A 
HETATM    9  C   UNL     1      43.470 -19.715   2.350  1.00  0.00     0.032 A 
HETATM   10  C   UNL     1      43.828 -17.041   4.927  1.00  0.00     0.259 A 
HETATM   11  C   UNL     1      44.085 -19.518   5.072  1.00  0.00     0.019 A 
HETATM   12  O   UNL     1      44.087 -16.850   6.107  1.00  0.00    -0.267 OA
HETATM   13  N   UNL     1      43.540 -15.995   4.086  1.00  0.00    -0.309 N 
HETATM   14  H   UNL     1      43.552 -15.091   4.544  1.00  0.00     0.170 HD
HETATM   15  C   UNL     1      44.055 -20.767   4.455  1.00  0.00     0.001 A 
HETATM   16  C   UNL     1      43.748 -20.865   3.097  1.00  0.00     0.002 A 
ENDBRANCH   4   5
ENDBRANCH   2   4
BRANCH   2  17
HETATM   17  C   UNL     1      41.782 -12.716   2.271  1.00  0.00     0.273 C 
BRANCH  17  18
HETATM   18  C   UNL     1      42.071 -11.951   3.533  1.00  0.00    -0.028 A 
HETATM   19  C   UNL     1      43.085 -12.372   4.407  1.00  0.00     0.035 A 
HETATM   20  C   UNL     1      43.385 -11.636   5.559  1.00  0.00     0.070 A 
HETATM   21 CL   UNL     1      44.674 -12.192   6.563  1.00  0.00    -0.081 Cl
HETATM   22  C   UNL     1      42.657 -10.486   5.875  1.00  0.00     0.123 A 
HETATM   23  C   UNL     1      41.633 -10.074   5.019  1.00  0.00     0.104 A 
HETATM   24  O   UNL     1      43.052  -9.727   6.942  1.00  0.00    -0.346 OA
HETATM   25  O   UNL     1      40.926  -8.916   5.196  1.00  0.00    -0.348 OA
HETATM   26  C   UNL     1      41.354 -10.787   3.847  1.00  0.00     0.048 A 
HETATM   27  C   UNL     1      40.184  -8.908   6.420  1.00  0.00     0.178 C 
HETATM   28  C   UNL     1      41.042  -8.528   7.616  1.00  0.00     0.053 C 
HETATM   29  C   UNL     1      42.041  -9.625   7.946  1.00  0.00     0.178 C 
ENDBRANCH  17  18
ENDBRANCH   2  17
TORSDOF 4
ENDMDL
MODEL 9
REMARK VINA RESULT:      -8.0      3.246      5.442
REMARK  4 active torsions:
REMARK  status: ('A' for Active; 'I' for Inactive)
REMARK    1  A    between atoms: N_2  and  C_4 
REMARK    2  A    between atoms: N_2  and  C_16 
REMARK    3  A    between atoms: C_4  and  C_5 
REMARK    4  A    between atoms: C_16  and  C_17 
ROOT
HETATM    1  C   UNL     1      43.603 -13.022   7.028  1.00  0.00     0.270 C 
HETATM    2  N   UNL     1      43.035 -14.186   6.263  1.00  0.00    -0.064 N 
HETATM    3  H   UNL     1      43.592 -14.245   5.393  1.00  0.00     0.280 HD
ENDROOT
BRANCH   2   4
HETATM    4  C   UNL     1      43.286 -15.515   6.965  1.00  0.00     0.312 C 
BRANCH   4   5
HETATM    5  C   UNL     1      43.446 -16.653   5.964  1.00  0.00     0.133 A 
HETATM    6  N   UNL     1      43.500 -17.870   6.407  1.00  0.00    -0.233 NA
HETATM    7  C   UNL     1      43.651 -18.901   5.453  1.00  0.00     0.074 A 
HETATM    8  C   UNL     1      43.741 -18.649   4.080  1.00  0.00     0.061 A 
HETATM    9  C   UNL     1      43.711 -20.225   5.890  1.00  0.00     0.032 A 
HETATM   10  C   UNL     1      43.675 -17.246   3.644  1.00  0.00     0.259 A 
HETATM   11  C   UNL     1      43.888 -19.682   3.152  1.00  0.00     0.019 A 
HETATM   12  O   UNL     1      43.740 -16.906   2.471  1.00  0.00    -0.267 OA
HETATM   13  N   UNL     1      43.527 -16.317   4.644  1.00  0.00    -0.309 N 
HETATM   14  H   UNL     1      43.498 -15.362   4.308  1.00  0.00     0.170 HD
HETATM   15  C   UNL     1      43.946 -20.999   3.604  1.00  0.00     0.001 A 
HETATM   16  C   UNL     1      43.857 -21.270   4.971  1.00  0.00     0.002 A 
ENDBRANCH   4   5
ENDBRANCH   2   4
BRANCH   2  17
HETATM   17  C   UNL     1      41.586 -14.024   5.886  1.00  0.00     0.273 C 
BRANCH  17  18
HETATM   18  C   UNL     1      41.358 -13.519   4.488  1.00  0.00    -0.028 A 
HETATM   19  C   UNL     1      41.215 -12.145   4.240  1.00  0.00     0.035 A 
HETATM   20  C   UNL     1      41.047 -11.669   2.935  1.00  0.00     0.070 A 
HETATM   21 CL   UNL     1      40.921  -9.964   2.704  1.00  0.00    -0.081 Cl
HETATM   22  C   UNL     1      40.988 -12.559   1.858  1.00  0.00     0.123 A 
HETATM   23  C   UNL     1      41.109 -13.929   2.103  1.00  0.00     0.104 A 
HETATM   24  O   UNL     1      40.942 -12.055   0.587  1.00  0.00    -0.346 OA
HETATM   25  O   UNL     1      41.152 -14.868   1.108  1.00  0.00    -0.348 OA
HETATM   26  C   UNL     1      41.313 -14.405   3.403  1.00  0.00     0.048 A 
HETATM   27  C   UNL     1      39.949 -14.904   0.334  1.00  0.00     0.178 C 
HETATM   28  C   UNL     1      39.912 -13.823  -0.733  1.00  0.00     0.053 C 
HETATM   29  C   UNL     1      39.760 -12.444  -0.113  1.00  0.00     0.178 C 
ENDBRANCH  17  18
ENDBRANCH   2  17
TORSDOF 4
ENDMDL
MODEL 10
REMARK VINA RESULT:      -7.9      4.775      6.971
REMARK  4 active torsions:
REMARK  status: ('A' for Active; 'I' for Inactive)
REMARK    1  A    between atoms: N_2  and  C_4 
REMARK    2  A    between atoms: N_2  and  C_16 
REMARK    3  A    between atoms: C_4  and  C_5 
REMARK    4  A    between atoms: C_16  and  C_17 
ROOT
HETATM    1  C   UNL     1      42.405 -11.627   2.698  1.00  0.00     0.270 C 
HETATM    2  N   UNL     1      41.624 -12.811   3.200  1.00  0.00    -0.064 N 
HETATM    3  H   UNL     1      41.861 -13.591   2.562  1.00  0.00     0.280 HD
ENDROOT
BRANCH   2   4
HETATM    4  C   UNL     1      42.104 -13.281   4.568  1.00  0.00     0.312 C 
BRANCH   4   5
HETATM    5  C   UNL     1      42.656 -14.700   4.509  1.00  0.00     0.133 A 
HETATM    6  N   UNL     1      42.412 -15.421   3.459  1.00  0.00    -0.233 NA
HETATM    7  C   UNL     1      42.936 -16.732   3.437  1.00  0.00     0.074 A 
HETATM    8  C   UNL     1      43.691 -17.259   4.490  1.00  0.00     0.061 A 
HETATM    9  C   UNL     1      42.697 -17.539   2.324  1.00  0.00     0.032 A 
HETATM   10  C   UNL     1      43.930 -16.389   5.652  1.00  0.00     0.259 A 
HETATM   11  C   UNL     1      44.204 -18.558   4.449  1.00  0.00     0.019 A 
HETATM   12  O   UNL     1      44.578 -16.741   6.629  1.00  0.00    -0.267 OA
HETATM   13  N   UNL     1      43.381 -15.133   5.580  1.00  0.00    -0.309 N 
HETATM   14  H   UNL     1      43.555 -14.567   6.402  1.00  0.00     0.170 HD
HETATM   15  C   UNL     1      43.956 -19.350   3.330  1.00  0.00     0.001 A 
HETATM   16  C   UNL     1      43.204 -18.841   2.269  1.00  0.00     0.002 A 
ENDBRANCH   4   5
ENDBRANCH   2   4
BRANCH   2  17
HETATM   17  C   UNL     1      40.131 -12.617   3.174  1.00  0.00     0.273 C 
BRANCH  17  18
HETATM   18  C   UNL     1      39.540 -12.516   1.795  1.00  0.00    -0.028 A 
HETATM   19  C   UNL     1      40.004 -13.339   0.757  1.00  0.00     0.035 A 
HETATM   20  C   UNL     1      39.425 -13.279  -0.515  1.00  0.00     0.070 A 
HETATM   21 CL   UNL     1      40.021 -14.352  -1.728  1.00  0.00    -0.081 Cl
HETATM   22  C   UNL     1      38.394 -12.375  -0.782  1.00  0.00     0.123 A 
HETATM   23  C   UNL     1      37.941 -11.539   0.242  1.00  0.00     0.104 A 
HETATM   24  O   UNL     1      37.771 -12.423  -1.999  1.00  0.00    -0.346 OA
HETATM   25  O   UNL     1      36.881 -10.686   0.102  1.00  0.00    -0.348 OA
HETATM   26  C   UNL     1      38.494 -11.622   1.525  1.00  0.00     0.048 A 
HETATM   27  C   UNL     1      37.109  -9.683  -0.893  1.00  0.00     0.178 C 
HETATM   28  C   UNL     1      36.844 -10.191  -2.301  1.00  0.00     0.053 C 
HETATM   29  C   UNL     1      37.896 -11.201  -2.728  1.00  0.00     0.178 C 
ENDBRANCH  17  18
ENDBRANCH   2  17
TORSDOF 4
ENDMDL
