MODEL 1
REMARK VINA RESULT:      -8.5      0.000      0.000
REMARK  8 active torsions:
REMARK  status: ('A' for Active; 'I' for Inactive)
REMARK    1  A    between atoms: C_3  and  S_4 
REMARK    2  A    between atoms: S_4  and  C_5 
REMARK    3  A    between atoms: C_5  and  C_6 
REMARK       I    between atoms: C_6  and  N_7 
REMARK    4  A    between atoms: N_7  and  C_8 
REMARK    5  A    between atoms: C_8  and  C_9 
REMARK    6  A    between atoms: C_17  and  C_18 
REMARK    7  A    between atoms: C_18  and  O_19 
REMARK    8  A    between atoms: O_19  and  C_20 
ROOT
HETATM    1  C   UNL     1      40.820 -13.889   5.603  1.00  0.00     0.160 C 
HETATM    2  N   UNL     1      41.928 -13.181   6.191  1.00  0.00    -0.314 N 
HETATM    3  C   UNL     1      42.176 -11.837   6.199  1.00  0.00     0.191 A 
HETATM    4  N   UNL     1      43.295 -11.598   6.841  1.00  0.00    -0.123 NA
HETATM    5  N   UNL     1      43.787 -12.794   7.292  1.00  0.00    -0.132 NA
HETATM    6  C   UNL     1      42.968 -13.749   6.896  1.00  0.00     0.154 A 
ENDROOT
BRANCH   3   7
HETATM    7  S   UNL     1      41.145 -10.644   5.495  1.00  0.00    -0.081 SA
BRANCH   7   8
HETATM    8  C   UNL     1      42.181 -10.031   4.134  1.00  0.00     0.185 C 
BRANCH   8   9
HETATM    9  C   UNL     1      42.841 -11.185   3.397  1.00  0.00     0.227 C 
HETATM   10  N   UNL     1      41.966 -12.015   2.733  1.00  0.00    -0.354 N 
HETATM   11  H   UNL     1      40.992 -11.998   3.038  1.00  0.00     0.162 HD
HETATM   12  O   UNL     1      44.057 -11.357   3.397  1.00  0.00    -0.273 OA
BRANCH  10  13
HETATM   13  C   UNL     1      42.447 -13.218   2.095  1.00  0.00     0.187 C 
BRANCH  13  14
HETATM   14  C   UNL     1      41.411 -13.739   1.170  1.00  0.00     0.070 A 
HETATM   15  O   UNL     1      40.883 -12.856   0.273  1.00  0.00    -0.325 OA
HETATM   16  C   UNL     1      39.973 -13.540  -0.468  1.00  0.00     0.142 A 
HETATM   17  C   UNL     1      39.909 -14.853  -0.064  1.00  0.00     0.027 A 
HETATM   18  C   UNL     1      40.841 -14.985   0.991  1.00  0.00     0.036 A 
ENDBRANCH  13  14
ENDBRANCH  10  13
ENDBRANCH   8   9
ENDBRANCH   7   8
ENDBRANCH   3   7
BRANCH   6  19
HETATM   19  C   UNL     1      43.115 -15.203   7.180  1.00  0.00     0.256 C 
BRANCH  19  20
HETATM   20  O   UNL     1      44.254 -15.651   6.448  1.00  0.00    -0.344 OA
BRANCH  20  21
HETATM   21  C   UNL     1      44.012 -16.547   5.443  1.00  0.00     0.070 A 
HETATM   22  C   UNL     1      44.212 -17.927   5.519  1.00  0.00     0.049 A 
HETATM   23  C   UNL     1      43.931 -18.756   4.417  1.00  0.00    -0.023 A 
HETATM   24  C   UNL     1      43.433 -18.184   3.225  1.00  0.00    -0.026 A 
HETATM   25  C   UNL     1      44.133 -20.145   4.475  1.00  0.00     0.012 A 
HETATM   26  C   UNL     1      43.221 -16.799   3.167  1.00  0.00     0.015 A 
HETATM   27  C   UNL     1      43.160 -19.010   2.124  1.00  0.00     0.012 A 
HETATM   28  C   UNL     1      43.503 -15.991   4.270  1.00  0.00     0.037 A 
HETATM   29  C   UNL     1      43.371 -20.388   2.197  1.00  0.00     0.001 A 
HETATM   30  C   UNL     1      43.857 -20.955   3.371  1.00  0.00     0.001 A 
ENDBRANCH  20  21
ENDBRANCH  19  20
ENDBRANCH   6  19
TORSDOF 8
ENDMDL
MODEL 2
REMARK VINA RESULT:      -8.4      3.809      6.666
REMARK  8 active torsions:
REMARK  status: ('A' for Active; 'I' for Inactive)
REMARK    1  A    between atoms: C_3  and  S_4 
REMARK    2  A    between atoms: S_4  and  C_5 
REMARK    3  A    between atoms: C_5  and  C_6 
REMARK       I    between atoms: C_6  and  N_7 
REMARK    4  A    between atoms: N_7  and  C_8 
REMARK    5  A    between atoms: C_8  and  C_9 
REMARK    6  A    between atoms: C_17  and  C_18 
REMARK    7  A    between atoms: C_18  and  O_19 
REMARK    8  A    between atoms: O_19  and  C_20 
ROOT
HETATM    1  C   UNL     1      40.554 -12.918   5.812  1.00  0.00     0.160 C 
HETATM    2  N   UNL     1      41.662 -12.296   5.132  1.00  0.00    -0.314 N 
HETATM    3  C   UNL     1      42.385 -11.198   5.502  1.00  0.00     0.191 A 
HETATM    4  N   UNL     1      43.311 -10.956   4.605  1.00  0.00    -0.123 NA
HETATM    5  N   UNL     1      43.224 -11.921   3.637  1.00  0.00    -0.132 NA
HETATM    6  C   UNL     1      42.227 -12.726   3.950  1.00  0.00     0.154 A 
ENDROOT
BRANCH   3   7
HETATM    7  S   UNL     1      42.127 -10.295   6.952  1.00  0.00    -0.081 SA
BRANCH   7   8
HETATM    8  C   UNL     1      43.830  -9.849   7.404  1.00  0.00     0.185 C 
BRANCH   8   9
HETATM    9  C   UNL     1      44.221 -10.485   8.727  1.00  0.00     0.227 C 
HETATM   10  N   UNL     1      43.285 -10.347   9.728  1.00  0.00    -0.354 N 
HETATM   11  H   UNL     1      42.602  -9.597   9.620  1.00  0.00     0.162 HD
HETATM   12  O   UNL     1      45.288 -11.073   8.886  1.00  0.00    -0.273 OA
BRANCH  10  13
HETATM   13  C   UNL     1      43.581 -10.797  11.067  1.00  0.00     0.187 C 
BRANCH  13  14
HETATM   14  C   UNL     1      43.213  -9.739  12.040  1.00  0.00     0.070 A 
HETATM   15  O   UNL     1      42.349 -10.090  13.038  1.00  0.00    -0.325 OA
HETATM   16  C   UNL     1      42.161  -8.985  13.805  1.00  0.00     0.142 A 
HETATM   17  C   UNL     1      42.894  -7.928  13.321  1.00  0.00     0.027 A 
HETATM   18  C   UNL     1      43.579  -8.414  12.182  1.00  0.00     0.036 A 
ENDBRANCH  13  14
ENDBRANCH  10  13
ENDBRANCH   8   9
ENDBRANCH   7   8
ENDBRANCH   3   7
BRANCH   6  19
HETATM   19  C   UNL     1      41.791 -13.921   3.177  1.00  0.00     0.256 C 
BRANCH  19  20
HETATM   20  O   UNL     1      42.975 -14.545   2.683  1.00  0.00    -0.344 OA
BRANCH  20  21
HETATM   21  C   UNL     1      43.227 -15.810   3.139  1.00  0.00     0.070 A 
HETATM   22  C   UNL     1      43.174 -16.976   2.373  1.00  0.00     0.049 A 
HETATM   23  C   UNL     1      43.451 -18.230   2.950  1.00  0.00    -0.023 A 
HETATM   24  C   UNL     1      43.794 -18.304   4.319  1.00  0.00    -0.026 A 
HETATM   25  C   UNL     1      43.394 -19.413   2.195  1.00  0.00     0.012 A 
HETATM   26  C   UNL     1      43.861 -17.124   5.073  1.00  0.00     0.015 A 
HETATM   27  C   UNL     1      44.064 -19.555   4.896  1.00  0.00     0.012 A 
HETATM   28  C   UNL     1      43.585 -15.889   4.484  1.00  0.00     0.037 A 
HETATM   29  C   UNL     1      43.998 -20.721   4.131  1.00  0.00     0.001 A 
HETATM   30  C   UNL     1      43.664 -20.650   2.782  1.00  0.00     0.001 A 
ENDBRANCH  20  21
ENDBRANCH  19  20
ENDBRANCH   6  19
TORSDOF 8
ENDMDL
MODEL 3
REMARK VINA RESULT:      -8.3      3.933      6.399
REMARK  8 active torsions:
REMARK  status: ('A' for Active; 'I' for Inactive)
REMARK    1  A    between atoms: C_3  and  S_4 
REMARK    2  A    between atoms: S_4  and  C_5 
REMARK    3  A    between atoms: C_5  and  C_6 
REMARK       I    between atoms: C_6  and  N_7 
REMARK    4  A    between atoms: N_7  and  C_8 
REMARK    5  A    between atoms: C_8  and  C_9 
REMARK    6  A    between atoms: C_17  and  C_18 
REMARK    7  A    between atoms: C_18  and  O_19 
REMARK    8  A    between atoms: O_19  and  C_20 
ROOT
HETATM    1  C   UNL     1      41.193 -11.619   5.925  1.00  0.00     0.160 C 
HETATM    2  N   UNL     1      42.490 -12.036   6.393  1.00  0.00    -0.314 N 
HETATM    3  C   UNL     1      43.428 -11.312   7.073  1.00  0.00     0.191 A 
HETATM    4  N   UNL     1      44.478 -12.063   7.313  1.00  0.00    -0.123 NA
HETATM    5  N   UNL     1      44.226 -13.312   6.812  1.00  0.00    -0.132 NA
HETATM    6  C   UNL     1      43.032 -13.297   6.252  1.00  0.00     0.154 A 
ENDROOT
BRANCH   3   7
HETATM    7  S   UNL     1      43.233  -9.667   7.564  1.00  0.00    -0.081 SA
BRANCH   7   8
HETATM    8  C   UNL     1      44.761  -9.390   8.507  1.00  0.00     0.185 C 
BRANCH   8   9
HETATM    9  C   UNL     1      44.542  -9.672   9.984  1.00  0.00     0.227 C 
HETATM   10  N   UNL     1      43.650  -8.825  10.602  1.00  0.00    -0.354 N 
HETATM   11  H   UNL     1      43.471  -7.930  10.146  1.00  0.00     0.162 HD
HETATM   12  O   UNL     1      45.118 -10.583  10.573  1.00  0.00    -0.273 OA
BRANCH  10  13
HETATM   13  C   UNL     1      43.442  -8.903  12.028  1.00  0.00     0.187 C 
BRANCH  13  14
HETATM   14  C   UNL     1      42.050  -9.336  12.306  1.00  0.00     0.070 A 
HETATM   15  O   UNL     1      41.254  -9.586  11.226  1.00  0.00    -0.325 OA
HETATM   16  C   UNL     1      40.043  -9.970  11.706  1.00  0.00     0.142 A 
HETATM   17  C   UNL     1      40.048  -9.976  13.081  1.00  0.00     0.027 A 
HETATM   18  C   UNL     1      41.345  -9.570  13.471  1.00  0.00     0.036 A 
ENDBRANCH  13  14
ENDBRANCH  10  13
ENDBRANCH   8   9
ENDBRANCH   7   8
ENDBRANCH   3   7
BRANCH   6  19
HETATM   19  C   UNL     1      42.357 -14.450   5.597  1.00  0.00     0.256 C 
BRANCH  19  20
HETATM   20  O   UNL     1      43.014 -14.655   4.347  1.00  0.00    -0.344 OA
BRANCH  20  21
HETATM   21  C   UNL     1      43.182 -15.955   3.959  1.00  0.00     0.070 A 
HETATM   22  C   UNL     1      43.489 -17.023   4.805  1.00  0.00     0.049 A 
HETATM   23  C   UNL     1      43.643 -18.325   4.293  1.00  0.00    -0.023 A 
HETATM   24  C   UNL     1      43.477 -18.552   2.908  1.00  0.00    -0.026 A 
HETATM   25  C   UNL     1      43.959 -19.408   5.130  1.00  0.00     0.012 A 
HETATM   26  C   UNL     1      43.152 -17.474   2.072  1.00  0.00     0.015 A 
HETATM   27  C   UNL     1      43.638 -19.850   2.397  1.00  0.00     0.012 A 
HETATM   28  C   UNL     1      43.001 -16.189   2.597  1.00  0.00     0.037 A 
HETATM   29  C   UNL     1      43.956 -20.914   3.243  1.00  0.00     0.001 A 
HETATM   30  C   UNL     1      44.116 -20.694   4.607  1.00  0.00     0.001 A 
ENDBRANCH  20  21
ENDBRANCH  19  20
ENDBRANCH   6  19
TORSDOF 8
ENDMDL
MODEL 4
REMARK VINA RESULT:      -8.2      2.970      5.227
REMARK  8 active torsions:
REMARK  status: ('A' for Active; 'I' for Inactive)
REMARK    1  A    between atoms: C_3  and  S_4 
REMARK    2  A    between atoms: S_4  and  C_5 
REMARK    3  A    between atoms: C_5  and  C_6 
REMARK       I    between atoms: C_6  and  N_7 
REMARK    4  A    between atoms: N_7  and  C_8 
REMARK    5  A    between atoms: C_8  and  C_9 
REMARK    6  A    between atoms: C_17  and  C_18 
REMARK    7  A    between atoms: C_18  and  O_19 
REMARK    8  A    between atoms: O_19  and  C_20 
ROOT
HETATM    1  C   UNL     1      41.954  -9.929   5.651  1.00  0.00     0.160 C 
HETATM    2  N   UNL     1      40.827 -10.673   6.149  1.00  0.00    -0.314 N 
HETATM    3  C   UNL     1      39.852 -10.271   7.018  1.00  0.00     0.191 A 
HETATM    4  N   UNL     1      39.004 -11.252   7.217  1.00  0.00    -0.123 NA
HETATM    5  N   UNL     1      39.401 -12.314   6.449  1.00  0.00    -0.132 NA
HETATM    6  C   UNL     1      40.502 -11.970   5.809  1.00  0.00     0.154 A 
ENDROOT
BRANCH   3   7
HETATM    7  S   UNL     1      39.749  -8.694   7.715  1.00  0.00    -0.081 SA
BRANCH   7   8
HETATM    8  C   UNL     1      40.510  -8.970   9.342  1.00  0.00     0.185 C 
BRANCH   8   9
HETATM    9  C   UNL     1      42.025  -9.008   9.229  1.00  0.00     0.227 C 
HETATM   10  N   UNL     1      42.593 -10.221   9.552  1.00  0.00    -0.354 N 
HETATM   11  H   UNL     1      42.034 -10.854  10.125  1.00  0.00     0.162 HD
HETATM   12  O   UNL     1      42.684  -8.033   8.878  1.00  0.00    -0.273 OA
BRANCH  10  13
HETATM   13  C   UNL     1      44.029 -10.360   9.605  1.00  0.00     0.187 C 
BRANCH  13  14
HETATM   14  C   UNL     1      44.524 -10.907   8.318  1.00  0.00     0.070 A 
HETATM   15  O   UNL     1      43.985 -12.089   7.901  1.00  0.00    -0.325 OA
HETATM   16  C   UNL     1      44.570 -12.394   6.714  1.00  0.00     0.142 A 
HETATM   17  C   UNL     1      45.476 -11.423   6.357  1.00  0.00     0.027 A 
HETATM   18  C   UNL     1      45.445 -10.459   7.391  1.00  0.00     0.036 A 
ENDBRANCH  13  14
ENDBRANCH  10  13
ENDBRANCH   8   9
ENDBRANCH   7   8
ENDBRANCH   3   7
BRANCH   6  19
HETATM   19  C   UNL     1      41.262 -12.821   4.855  1.00  0.00     0.256 C 
BRANCH  19  20
HETATM   20  O   UNL     1      40.519 -14.028   4.697  1.00  0.00    -0.344 OA
BRANCH  20  21
HETATM   21  C   UNL     1      41.202 -15.097   4.186  1.00  0.00     0.070 A 
HETATM   22  C   UNL     1      42.210 -15.807   4.843  1.00  0.00     0.049 A 
HETATM   23  C   UNL     1      42.849 -16.893   4.216  1.00  0.00    -0.023 A 
HETATM   24  C   UNL     1      42.460 -17.272   2.912  1.00  0.00    -0.026 A 
HETATM   25  C   UNL     1      43.870 -17.612   4.860  1.00  0.00     0.012 A 
HETATM   26  C   UNL     1      41.435 -16.562   2.271  1.00  0.00     0.015 A 
HETATM   27  C   UNL     1      43.103 -18.351   2.285  1.00  0.00     0.012 A 
HETATM   28  C   UNL     1      40.809 -15.488   2.907  1.00  0.00     0.037 A 
HETATM   29  C   UNL     1      44.118 -19.052   2.938  1.00  0.00     0.001 A 
HETATM   30  C   UNL     1      44.501 -18.684   4.225  1.00  0.00     0.001 A 
ENDBRANCH  20  21
ENDBRANCH  19  20
ENDBRANCH   6  19
TORSDOF 8
ENDMDL
MODEL 5
REMARK VINA RESULT:      -8.2      4.734      7.495
REMARK  8 active torsions:
REMARK  status: ('A' for Active; 'I' for Inactive)
REMARK    1  A    between atoms: C_3  and  S_4 
REMARK    2  A    between atoms: S_4  and  C_5 
REMARK    3  A    between atoms: C_5  and  C_6 
REMARK       I    between atoms: C_6  and  N_7 
REMARK    4  A    between atoms: N_7  and  C_8 
REMARK    5  A    between atoms: C_8  and  C_9 
REMARK    6  A    between atoms: C_17  and  C_18 
REMARK    7  A    between atoms: C_18  and  O_19 
REMARK    8  A    between atoms: O_19  and  C_20 
ROOT
HETATM    1  C   UNL     1      42.313  -9.975   7.132  1.00  0.00     0.160 C 
HETATM    2  N   UNL     1      43.605 -10.603   7.029  1.00  0.00    -0.314 N 
HETATM    3  C   UNL     1      44.795 -10.207   7.573  1.00  0.00     0.191 A 
HETATM    4  N   UNL     1      45.738 -11.057   7.240  1.00  0.00    -0.123 NA
HETATM    5  N   UNL     1      45.166 -12.047   6.487  1.00  0.00    -0.132 NA
HETATM    6  C   UNL     1      43.883 -11.773   6.353  1.00  0.00     0.154 A 
ENDROOT
BRANCH   3   7
HETATM    7  S   UNL     1      45.001  -8.815   8.575  1.00  0.00    -0.081 SA
BRANCH   7   8
HETATM    8  C   UNL     1      45.471  -9.578  10.156  1.00  0.00     0.185 C 
BRANCH   8   9
HETATM    9  C   UNL     1      44.250 -10.134  10.870  1.00  0.00     0.227 C 
HETATM   10  N   UNL     1      43.179  -9.270  10.931  1.00  0.00    -0.354 N 
HETATM   11  H   UNL     1      43.379  -8.278  10.804  1.00  0.00     0.162 HD
HETATM   12  O   UNL     1      44.227 -11.263  11.352  1.00  0.00    -0.273 OA
BRANCH  10  13
HETATM   13  C   UNL     1      42.001  -9.625  11.686  1.00  0.00     0.187 C 
BRANCH  13  14
HETATM   14  C   UNL     1      41.973  -8.859  12.955  1.00  0.00     0.070 A 
HETATM   15  O   UNL     1      40.817  -8.903  13.679  1.00  0.00    -0.325 OA
HETATM   16  C   UNL     1      41.015  -8.148  14.790  1.00  0.00     0.142 A 
HETATM   17  C   UNL     1      42.285  -7.620  14.796  1.00  0.00     0.027 A 
HETATM   18  C   UNL     1      42.907  -8.082  13.613  1.00  0.00     0.036 A 
ENDBRANCH  13  14
ENDBRANCH  10  13
ENDBRANCH   8   9
ENDBRANCH   7   8
ENDBRANCH   3   7
BRANCH   6  19
HETATM   19  C   UNL     1      42.883 -12.595   5.620  1.00  0.00     0.256 C 
BRANCH  19  20
HETATM   20  O   UNL     1      42.702 -13.792   6.375  1.00  0.00    -0.344 OA
BRANCH  20  21
HETATM   21  C   UNL     1      43.077 -14.956   5.762  1.00  0.00     0.070 A 
HETATM   22  C   UNL     1      42.568 -15.441   4.556  1.00  0.00     0.049 A 
HETATM   23  C   UNL     1      43.028 -16.657   4.018  1.00  0.00    -0.023 A 
HETATM   24  C   UNL     1      44.022 -17.390   4.705  1.00  0.00    -0.026 A 
HETATM   25  C   UNL     1      42.520 -17.162   2.809  1.00  0.00     0.012 A 
HETATM   26  C   UNL     1      44.537 -16.884   5.907  1.00  0.00     0.015 A 
HETATM   27  C   UNL     1      44.475 -18.606   4.171  1.00  0.00     0.012 A 
HETATM   28  C   UNL     1      44.071 -15.674   6.425  1.00  0.00     0.037 A 
HETATM   29  C   UNL     1      43.957 -19.095   2.971  1.00  0.00     0.001 A 
HETATM   30  C   UNL     1      42.981 -18.374   2.291  1.00  0.00     0.001 A 
ENDBRANCH  20  21
ENDBRANCH  19  20
ENDBRANCH   6  19
TORSDOF 8
ENDMDL
MODEL 6
REMARK VINA RESULT:      -8.2      3.263      5.747
REMARK  8 active torsions:
REMARK  status: ('A' for Active; 'I' for Inactive)
REMARK    1  A    between atoms: C_3  and  S_4 
REMARK    2  A    between atoms: S_4  and  C_5 
REMARK    3  A    between atoms: C_5  and  C_6 
REMARK       I    between atoms: C_6  and  N_7 
REMARK    4  A    between atoms: N_7  and  C_8 
REMARK    5  A    between atoms: C_8  and  C_9 
REMARK    6  A    between atoms: C_17  and  C_18 
REMARK    7  A    between atoms: C_18  and  O_19 
REMARK    8  A    between atoms: O_19  and  C_20 
ROOT
HETATM    1  C   UNL     1      42.974 -11.267   5.582  1.00  0.00     0.160 C 
HETATM    2  N   UNL     1      41.882 -12.171   5.834  1.00  0.00    -0.314 N 
HETATM    3  C   UNL     1      40.576 -11.879   6.111  1.00  0.00     0.191 A 
HETATM    4  N   UNL     1      39.900 -12.992   6.277  1.00  0.00    -0.123 NA
HETATM    5  N   UNL     1      40.758 -14.040   6.081  1.00  0.00    -0.132 NA
HETATM    6  C   UNL     1      41.954 -13.548   5.819  1.00  0.00     0.154 A 
ENDROOT
BRANCH   3   7
HETATM    7  S   UNL     1      39.924 -10.282   6.194  1.00  0.00    -0.081 SA
BRANCH   7   8
HETATM    8  C   UNL     1      38.864 -10.403   7.665  1.00  0.00     0.185 C 
BRANCH   8   9
HETATM    9  C   UNL     1      39.442  -9.595   8.814  1.00  0.00     0.227 C 
HETATM   10  N   UNL     1      40.812  -9.669   8.934  1.00  0.00    -0.354 N 
HETATM   11  H   UNL     1      41.271 -10.465   8.492  1.00  0.00     0.162 HD
HETATM   12  O   UNL     1      38.739  -8.931   9.572  1.00  0.00    -0.273 OA
BRANCH  10  13
HETATM   13  C   UNL     1      41.478  -9.048  10.055  1.00  0.00     0.187 C 
BRANCH  13  14
HETATM   14  C   UNL     1      42.920  -9.396  10.031  1.00  0.00     0.070 A 
HETATM   15  O   UNL     1      43.364 -10.120   8.962  1.00  0.00    -0.325 OA
HETATM   16  C   UNL     1      44.696 -10.315   9.142  1.00  0.00     0.142 A 
HETATM   17  C   UNL     1      45.119  -9.725  10.310  1.00  0.00     0.027 A 
HETATM   18  C   UNL     1      43.973  -9.127  10.884  1.00  0.00     0.036 A 
ENDBRANCH  13  14
ENDBRANCH  10  13
ENDBRANCH   8   9
ENDBRANCH   7   8
ENDBRANCH   3   7
BRANCH   6  19
HETATM   19  C   UNL     1      43.181 -14.338   5.528  1.00  0.00     0.256 C 
BRANCH  19  20
HETATM   20  O   UNL     1      43.135 -14.675   4.143  1.00  0.00    -0.344 OA
BRANCH  20  21
HETATM   21  C   UNL     1      43.276 -16.001   3.838  1.00  0.00     0.070 A 
HETATM   22  C   UNL     1      43.564 -17.018   4.750  1.00  0.00     0.049 A 
HETATM   23  C   UNL     1      43.690 -18.353   4.321  1.00  0.00    -0.023 A 
HETATM   24  C   UNL     1      43.514 -18.665   2.954  1.00  0.00    -0.026 A 
HETATM   25  C   UNL     1      43.987 -19.387   5.224  1.00  0.00     0.012 A 
HETATM   26  C   UNL     1      43.207 -17.636   2.052  1.00  0.00     0.015 A 
HETATM   27  C   UNL     1      43.646 -19.995   2.527  1.00  0.00     0.012 A 
HETATM   28  C   UNL     1      43.084 -16.317   2.494  1.00  0.00     0.037 A 
HETATM   29  C   UNL     1      43.946 -21.010   3.437  1.00  0.00     0.001 A 
HETATM   30  C   UNL     1      44.116 -20.706   4.785  1.00  0.00     0.001 A 
ENDBRANCH  20  21
ENDBRANCH  19  20
ENDBRANCH   6  19
TORSDOF 8
ENDMDL
MODEL 7
REMARK VINA RESULT:      -8.1      3.318      5.786
REMARK  8 active torsions:
REMARK  status: ('A' for Active; 'I' for Inactive)
REMARK    1  A    between atoms: C_3  and  S_4 
REMARK    2  A    between atoms: S_4  and  C_5 
REMARK    3  A    between atoms: C_5  and  C_6 
REMARK       I    between atoms: C_6  and  N_7 
REMARK    4  A    between atoms: N_7  and  C_8 
REMARK    5  A    between atoms: C_8  and  C_9 
REMARK    6  A    between atoms: C_17  and  C_18 
REMARK    7  A    between atoms: C_18  and  O_19 
REMARK    8  A    between atoms: O_19  and  C_20 
ROOT
HETATM    1  C   UNL     1      39.324 -11.528   6.282  1.00  0.00     0.160 C 
HETATM    2  N   UNL     1      40.656 -10.980   6.292  1.00  0.00    -0.314 N 
HETATM    3  C   UNL     1      41.080  -9.770   6.763  1.00  0.00     0.191 A 
HETATM    4  N   UNL     1      42.375  -9.654   6.584  1.00  0.00    -0.123 NA
HETATM    5  N   UNL     1      42.826 -10.812   6.010  1.00  0.00    -0.132 NA
HETATM    6  C   UNL     1      41.792 -11.610   5.828  1.00  0.00     0.154 A 
ENDROOT
BRANCH   3   7
HETATM    7  S   UNL     1      40.058  -8.595   7.511  1.00  0.00    -0.081 SA
BRANCH   7   8
HETATM    8  C   UNL     1      40.075  -9.154   9.241  1.00  0.00     0.185 C 
BRANCH   8   9
HETATM    9  C   UNL     1      41.447  -8.948   9.860  1.00  0.00     0.227 C 
HETATM   10  N   UNL     1      42.274 -10.047   9.797  1.00  0.00    -0.354 N 
HETATM   11  H   UNL     1      41.827 -10.953   9.657  1.00  0.00     0.162 HD
HETATM   12  O   UNL     1      41.785  -7.885  10.374  1.00  0.00    -0.273 OA
BRANCH  10  13
HETATM   13  C   UNL     1      43.559 -10.029  10.455  1.00  0.00     0.187 C 
BRANCH  13  14
HETATM   14  C   UNL     1      44.633  -9.869   9.445  1.00  0.00     0.070 A 
HETATM   15  O   UNL     1      45.065 -11.001   8.816  1.00  0.00    -0.325 OA
HETATM   16  C   UNL     1      46.032 -10.624   7.940  1.00  0.00     0.142 A 
HETATM   17  C   UNL     1      46.227  -9.264   7.990  1.00  0.00     0.027 A 
HETATM   18  C   UNL     1      45.321  -8.773   8.959  1.00  0.00     0.036 A 
ENDBRANCH  13  14
ENDBRANCH  10  13
ENDBRANCH   8   9
ENDBRANCH   7   8
ENDBRANCH   3   7
BRANCH   6  19
HETATM   19  C   UNL     1      41.833 -12.978   5.245  1.00  0.00     0.256 C 
BRANCH  19  20
HETATM   20  O   UNL     1      42.916 -13.662   5.875  1.00  0.00    -0.344 OA
BRANCH  20  21
HETATM   21  C   UNL     1      43.203 -14.910   5.396  1.00  0.00     0.070 A 
HETATM   22  C   UNL     1      42.764 -15.435   4.178  1.00  0.00     0.049 A 
HETATM   23  C   UNL     1      43.122 -16.739   3.786  1.00  0.00    -0.023 A 
HETATM   24  C   UNL     1      43.940 -17.520   4.633  1.00  0.00    -0.026 A 
HETATM   25  C   UNL     1      42.681 -17.284   2.569  1.00  0.00     0.012 A 
HETATM   26  C   UNL     1      44.388 -16.975   5.844  1.00  0.00     0.015 A 
HETATM   27  C   UNL     1      44.290 -18.823   4.244  1.00  0.00     0.012 A 
HETATM   28  C   UNL     1      44.027 -15.679   6.217  1.00  0.00     0.037 A 
HETATM   29  C   UNL     1      43.840 -19.350   3.033  1.00  0.00     0.001 A 
HETATM   30  C   UNL     1      43.037 -18.581   2.195  1.00  0.00     0.001 A 
ENDBRANCH  20  21
ENDBRANCH  19  20
ENDBRANCH   6  19
TORSDOF 8
ENDMDL
MODEL 8
REMARK VINA RESULT:      -8.0      3.602      6.247
REMARK  8 active torsions:
REMARK  status: ('A' for Active; 'I' for Inactive)
REMARK    1  A    between atoms: C_3  and  S_4 
REMARK    2  A    between atoms: S_4  and  C_5 
REMARK    3  A    between atoms: C_5  and  C_6 
REMARK       I    between atoms: C_6  and  N_7 
REMARK    4  A    between atoms: N_7  and  C_8 
REMARK    5  A    between atoms: C_8  and  C_9 
REMARK    6  A    between atoms: C_17  and  C_18 
REMARK    7  A    between atoms: C_18  and  O_19 
REMARK    8  A    between atoms: O_19  and  C_20 
ROOT
HETATM    1  C   UNL     1      42.502 -10.866   5.522  1.00  0.00     0.160 C 
HETATM    2  N   UNL     1      41.518 -11.882   5.793  1.00  0.00    -0.314 N 
HETATM    3  C   UNL     1      40.196 -11.731   6.106  1.00  0.00     0.191 A 
HETATM    4  N   UNL     1      39.645 -12.909   6.279  1.00  0.00    -0.123 NA
HETATM    5  N   UNL     1      40.603 -13.860   6.052  1.00  0.00    -0.132 NA
HETATM    6  C   UNL     1      41.734 -13.244   5.764  1.00  0.00     0.154 A 
ENDROOT
BRANCH   3   7
HETATM    7  S   UNL     1      39.382 -10.212   6.220  1.00  0.00    -0.081 SA
BRANCH   7   8
HETATM    8  C   UNL     1      39.466  -9.892   8.007  1.00  0.00     0.185 C 
BRANCH   8   9
HETATM    9  C   UNL     1      40.728  -9.123   8.358  1.00  0.00     0.227 C 
HETATM   10  N   UNL     1      41.763  -9.903   8.823  1.00  0.00    -0.354 N 
HETATM   11  H   UNL     1      41.519 -10.822   9.192  1.00  0.00     0.162 HD
HETATM   12  O   UNL     1      40.813  -7.904   8.235  1.00  0.00    -0.273 OA
BRANCH  10  13
HETATM   13  C   UNL     1      42.976  -9.288   9.308  1.00  0.00     0.187 C 
BRANCH  13  14
HETATM   14  C   UNL     1      42.889  -9.105  10.778  1.00  0.00     0.070 A 
HETATM   15  O   UNL     1      42.432 -10.164  11.507  1.00  0.00    -0.325 OA
HETATM   16  C   UNL     1      42.441  -9.782  12.810  1.00  0.00     0.142 A 
HETATM   17  C   UNL     1      42.902  -8.492  12.933  1.00  0.00     0.027 A 
HETATM   18  C   UNL     1      43.196  -8.054  11.621  1.00  0.00     0.036 A 
ENDBRANCH  13  14
ENDBRANCH  10  13
ENDBRANCH   8   9
ENDBRANCH   7   8
ENDBRANCH   3   7
BRANCH   6  19
HETATM   19  C   UNL     1      43.029 -13.898   5.435  1.00  0.00     0.256 C 
BRANCH  19  20
HETATM   20  O   UNL     1      42.980 -14.233   4.050  1.00  0.00    -0.344 OA
BRANCH  20  21
HETATM   21  C   UNL     1      43.124 -15.559   3.742  1.00  0.00     0.070 A 
HETATM   22  C   UNL     1      43.456 -16.571   4.646  1.00  0.00     0.049 A 
HETATM   23  C   UNL     1      43.580 -17.905   4.216  1.00  0.00    -0.023 A 
HETATM   24  C   UNL     1      43.357 -18.222   2.857  1.00  0.00    -0.026 A 
HETATM   25  C   UNL     1      43.921 -18.934   5.110  1.00  0.00     0.012 A 
HETATM   26  C   UNL     1      43.007 -17.199   1.964  1.00  0.00     0.015 A 
HETATM   27  C   UNL     1      43.488 -19.552   2.428  1.00  0.00     0.012 A 
HETATM   28  C   UNL     1      42.886 -15.881   2.407  1.00  0.00     0.037 A 
HETATM   29  C   UNL     1      43.831 -20.561   3.329  1.00  0.00     0.001 A 
HETATM   30  C   UNL     1      44.048 -20.253   4.669  1.00  0.00     0.001 A 
ENDBRANCH  20  21
ENDBRANCH  19  20
ENDBRANCH   6  19
TORSDOF 8
ENDMDL
MODEL 9
REMARK VINA RESULT:      -8.0      4.688      7.452
REMARK  8 active torsions:
REMARK  status: ('A' for Active; 'I' for Inactive)
REMARK    1  A    between atoms: C_3  and  S_4 
REMARK    2  A    between atoms: S_4  and  C_5 
REMARK    3  A    between atoms: C_5  and  C_6 
REMARK       I    between atoms: C_6  and  N_7 
REMARK    4  A    between atoms: N_7  and  C_8 
REMARK    5  A    between atoms: C_8  and  C_9 
REMARK    6  A    between atoms: C_17  and  C_18 
REMARK    7  A    between atoms: C_18  and  O_19 
REMARK    8  A    between atoms: O_19  and  C_20 
ROOT
HETATM    1  C   UNL     1      42.134 -10.173   6.065  1.00  0.00     0.160 C 
HETATM    2  N   UNL     1      40.895 -10.855   6.335  1.00  0.00    -0.314 N 
HETATM    3  C   UNL     1      39.827 -10.429   7.073  1.00  0.00     0.191 A 
HETATM    4  N   UNL     1      38.893 -11.352   7.072  1.00  0.00    -0.123 NA
HETATM    5  N   UNL     1      39.331 -12.394   6.301  1.00  0.00    -0.132 NA
HETATM    6  C   UNL     1      40.539 -12.100   5.860  1.00  0.00     0.154 A 
ENDROOT
BRANCH   3   7
HETATM    7  S   UNL     1      39.724  -8.893   7.856  1.00  0.00    -0.081 SA
BRANCH   7   8
HETATM    8  C   UNL     1      39.750  -9.379   9.606  1.00  0.00     0.185 C 
BRANCH   8   9
HETATM    9  C   UNL     1      41.165  -9.339  10.157  1.00  0.00     0.227 C 
HETATM   10  N   UNL     1      41.363 -10.103  11.285  1.00  0.00    -0.354 N 
HETATM   11  H   UNL     1      40.534 -10.350  11.825  1.00  0.00     0.162 HD
HETATM   12  O   UNL     1      42.057  -8.677   9.632  1.00  0.00    -0.273 OA
BRANCH  10  13
HETATM   13  C   UNL     1      42.627 -10.059  11.981  1.00  0.00     0.187 C 
BRANCH  13  14
HETATM   14  C   UNL     1      42.563  -9.052  13.068  1.00  0.00     0.070 A 
HETATM   15  O   UNL     1      43.382  -7.965  12.953  1.00  0.00    -0.325 OA
HETATM   16  C   UNL     1      43.156  -7.182  14.039  1.00  0.00     0.142 A 
HETATM   17  C   UNL     1      42.199  -7.744  14.851  1.00  0.00     0.027 A 
HETATM   18  C   UNL     1      41.812  -8.951  14.223  1.00  0.00     0.036 A 
ENDBRANCH  13  14
ENDBRANCH  10  13
ENDBRANCH   8   9
ENDBRANCH   7   8
ENDBRANCH   3   7
BRANCH   6  19
HETATM   19  C   UNL     1      41.379 -12.950   4.974  1.00  0.00     0.256 C 
BRANCH  19  20
HETATM   20  O   UNL     1      42.316 -13.621   5.815  1.00  0.00    -0.344 OA
BRANCH  20  21
HETATM   21  C   UNL     1      42.777 -14.827   5.365  1.00  0.00     0.070 A 
HETATM   22  C   UNL     1      42.397 -15.449   4.173  1.00  0.00     0.049 A 
HETATM   23  C   UNL     1      42.937 -16.698   3.811  1.00  0.00    -0.023 A 
HETATM   24  C   UNL     1      43.879 -17.322   4.659  1.00  0.00    -0.026 A 
HETATM   25  C   UNL     1      42.559 -17.340   2.620  1.00  0.00     0.012 A 
HETATM   26  C   UNL     1      44.264 -16.679   5.844  1.00  0.00     0.015 A 
HETATM   27  C   UNL     1      44.411 -18.570   4.300  1.00  0.00     0.012 A 
HETATM   28  C   UNL     1      43.721 -15.439   6.188  1.00  0.00     0.037 A 
HETATM   29  C   UNL     1      44.021 -19.197   3.115  1.00  0.00     0.001 A 
HETATM   30  C   UNL     1      43.097 -18.582   2.275  1.00  0.00     0.001 A 
ENDBRANCH  20  21
ENDBRANCH  19  20
ENDBRANCH   6  19
TORSDOF 8
ENDMDL
MODEL 10
REMARK VINA RESULT:      -7.8      5.253      9.332
REMARK  8 active torsions:
REMARK  status: ('A' for Active; 'I' for Inactive)
REMARK    1  A    between atoms: C_3  and  S_4 
REMARK    2  A    between atoms: S_4  and  C_5 
REMARK    3  A    between atoms: C_5  and  C_6 
REMARK       I    between atoms: C_6  and  N_7 
REMARK    4  A    between atoms: N_7  and  C_8 
REMARK    5  A    between atoms: C_8  and  C_9 
REMARK    6  A    between atoms: C_17  and  C_18 
REMARK    7  A    between atoms: C_18  and  O_19 
REMARK    8  A    between atoms: O_19  and  C_20 
ROOT
HETATM    1  C   UNL     1      41.833 -10.157   6.163  1.00  0.00     0.160 C 
HETATM    2  N   UNL     1      42.872 -10.936   6.785  1.00  0.00    -0.314 N 
HETATM    3  C   UNL     1      43.433 -12.108   6.362  1.00  0.00     0.191 A 
HETATM    4  N   UNL     1      44.350 -12.494   7.218  1.00  0.00    -0.123 NA
HETATM    5  N   UNL     1      44.422 -11.554   8.211  1.00  0.00    -0.132 NA
HETATM    6  C   UNL     1      43.529 -10.617   7.955  1.00  0.00     0.154 A 
ENDROOT
BRANCH   3   7
HETATM    7  S   UNL     1      43.010 -12.927   4.901  1.00  0.00    -0.081 SA
BRANCH   7   8
HETATM    8  C   UNL     1      42.637 -14.595   5.520  1.00  0.00     0.185 C 
BRANCH   8   9
HETATM    9  C   UNL     1      42.304 -15.534   4.373  1.00  0.00     0.227 C 
HETATM   10  N   UNL     1      43.396 -15.992   3.672  1.00  0.00    -0.354 N 
HETATM   11  H   UNL     1      44.255 -15.447   3.749  1.00  0.00     0.162 HD
HETATM   12  O   UNL     1      41.150 -15.854   4.099  1.00  0.00    -0.273 OA
BRANCH  10  13
HETATM   13  C   UNL     1      43.215 -16.792   2.484  1.00  0.00     0.187 C 
BRANCH  13  14
HETATM   14  C   UNL     1      43.467 -18.219   2.801  1.00  0.00     0.070 A 
HETATM   15  O   UNL     1      44.067 -18.489   3.998  1.00  0.00    -0.325 OA
HETATM   16  C   UNL     1      44.192 -19.839   4.082  1.00  0.00     0.142 A 
HETATM   17  C   UNL     1      43.678 -20.444   2.959  1.00  0.00     0.027 A 
HETATM   18  C   UNL     1      43.205 -19.399   2.132  1.00  0.00     0.036 A 
ENDBRANCH  13  14
ENDBRANCH  10  13
ENDBRANCH   8   9
ENDBRANCH   7   8
ENDBRANCH   3   7
BRANCH   6  19
HETATM   19  C   UNL     1      43.280  -9.399   8.772  1.00  0.00     0.256 C 
BRANCH  19  20
HETATM   20  O   UNL     1      44.063  -9.531   9.957  1.00  0.00    -0.344 OA
BRANCH  20  21
HETATM   21  C   UNL     1      43.419  -9.281  11.138  1.00  0.00     0.070 A 
HETATM   22  C   UNL     1      43.744  -8.266  12.041  1.00  0.00     0.049 A 
HETATM   23  C   UNL     1      43.011  -8.103  13.232  1.00  0.00    -0.023 A 
HETATM   24  C   UNL     1      41.932  -8.971  13.510  1.00  0.00    -0.026 A 
HETATM   25  C   UNL     1      43.330  -7.092  14.155  1.00  0.00     0.012 A 
HETATM   26  C   UNL     1      41.606  -9.975  12.586  1.00  0.00     0.015 A 
HETATM   27  C   UNL     1      41.206  -8.812  14.701  1.00  0.00     0.012 A 
HETATM   28  C   UNL     1      42.341 -10.122  11.409  1.00  0.00     0.037 A 
HETATM   29  C   UNL     1      41.539  -7.805  15.609  1.00  0.00     0.001 A 
HETATM   30  C   UNL     1      42.599  -6.946  15.336  1.00  0.00     0.001 A 
ENDBRANCH  20  21
ENDBRANCH  19  20
ENDBRANCH   6  19
TORSDOF 8
ENDMDL
