MODEL 1
REMARK VINA RESULT:      -8.4      0.000      0.000
REMARK  7 active torsions:
REMARK  status: ('A' for Active; 'I' for Inactive)
REMARK    1  A    between atoms: C_2  and  N_3 
REMARK    2  A    between atoms: C_2  and  C_17 
REMARK       I    between atoms: N_3  and  C_4 
REMARK    3  A    between atoms: C_4  and  C_5 
REMARK    4  A    between atoms: C_6  and  N_7 
REMARK    5  A    between atoms: C_17  and  O_18 
REMARK    6  A    between atoms: C_17  and  C_19 
REMARK    7  A    between atoms: C_22  and  O_23 
ROOT
HETATM    1  N   UNL     1      41.761 -16.251   3.153  1.00  0.00    -0.350 N 
HETATM    2  C   UNL     1      42.833 -16.857   2.552  1.00  0.00     0.255 C 
HETATM    3  O   UNL     1      43.402 -16.360   1.583  1.00  0.00    -0.268 OA
HETATM    4  H   UNL     1      41.592 -16.534   4.113  1.00  0.00     0.163 HD
ENDROOT
BRANCH   1   5
HETATM    5  C   UNL     1      41.314 -14.900   2.777  1.00  0.00     0.114 C 
HETATM    6  C   UNL     1      41.069 -14.055   4.033  1.00  0.00     0.035 C 
BRANCH   5   7
HETATM    7  C   UNL     1      40.052 -14.997   1.870  1.00  0.00     0.173 C 
BRANCH   7   8
HETATM    8  O   UNL     1      38.878 -14.573   2.577  1.00  0.00    -0.389 OA
HETATM    9  H   UNL     1      38.544 -15.354   3.049  1.00  0.00     0.210 HD
ENDBRANCH   7   8
BRANCH   7  10
HETATM   10  C   UNL     1      40.196 -14.234   0.567  1.00  0.00    -0.028 A 
HETATM   11  C   UNL     1      39.691 -14.788  -0.619  1.00  0.00     0.012 A 
HETATM   12  C   UNL     1      39.819 -14.110  -1.834  1.00  0.00     0.037 A 
HETATM   13  C   UNL     1      40.450 -12.866  -1.893  1.00  0.00     0.068 A 
HETATM   14  C   UNL     1      40.954 -12.305  -0.721  1.00  0.00     0.037 A 
HETATM   15  C   UNL     1      40.828 -12.984   0.498  1.00  0.00     0.012 A 
BRANCH  13  16
HETATM   16  O   UNL     1      40.506 -12.313  -3.143  1.00  0.00    -0.356 OA
HETATM   17  C   UNL     1      40.729 -10.911  -3.213  1.00  0.00     0.210 C 
ENDBRANCH  13  16
ENDBRANCH   7  10
ENDBRANCH   5   7
ENDBRANCH   1   5
BRANCH   2  18
HETATM   18  C   UNL     1      43.254 -18.214   3.021  1.00  0.00     0.079 A 
HETATM   19  C   UNL     1      43.689 -18.662   4.277  1.00  0.00     0.165 A 
HETATM   20  N   UNL     1      44.037 -19.977   4.494  1.00  0.00    -0.241 NA
HETATM   21  C   UNL     1      43.964 -20.858   3.477  1.00  0.00     0.119 A 
HETATM   22  C   UNL     1      43.557 -20.508   2.212  1.00  0.00     0.020 A 
HETATM   23  C   UNL     1      43.204 -19.181   1.992  1.00  0.00     0.022 A 
BRANCH  19  24
HETATM   24  N   UNL     1      43.856 -17.833   5.439  1.00  0.00    -0.226 N 
HETATM   25  N   UNL     1      43.252 -18.041   6.643  1.00  0.00    -0.179 NA
HETATM   26  C   UNL     1      43.648 -17.020   7.409  1.00  0.00     0.141 A 
HETATM   27  C   UNL     1      44.556 -16.177   6.760  1.00  0.00     0.040 A 
HETATM   28  C   UNL     1      44.687 -16.724   5.509  1.00  0.00     0.122 A 
ENDBRANCH  19  24
ENDBRANCH   2  18
TORSDOF 7
ENDMDL
MODEL 2
REMARK VINA RESULT:      -7.6      2.588      4.461
REMARK  7 active torsions:
REMARK  status: ('A' for Active; 'I' for Inactive)
REMARK    1  A    between atoms: C_2  and  N_3 
REMARK    2  A    between atoms: C_2  and  C_17 
REMARK       I    between atoms: N_3  and  C_4 
REMARK    3  A    between atoms: C_4  and  C_5 
REMARK    4  A    between atoms: C_6  and  N_7 
REMARK    5  A    between atoms: C_17  and  O_18 
REMARK    6  A    between atoms: C_17  and  C_19 
REMARK    7  A    between atoms: C_22  and  O_23 
ROOT
HETATM    1  N   UNL     1      41.736 -15.228   1.947  1.00  0.00    -0.350 N 
HETATM    2  C   UNL     1      41.465 -16.048   3.011  1.00  0.00     0.255 C 
HETATM    3  O   UNL     1      40.448 -15.921   3.688  1.00  0.00    -0.268 OA
HETATM    4  H   UNL     1      42.380 -15.614   1.263  1.00  0.00     0.163 HD
ENDROOT
BRANCH   1   5
HETATM    5  C   UNL     1      40.761 -14.244   1.451  1.00  0.00     0.114 C 
HETATM    6  C   UNL     1      40.197 -14.694   0.097  1.00  0.00     0.035 C 
BRANCH   5   7
HETATM    7  C   UNL     1      41.424 -12.837   1.381  1.00  0.00     0.173 C 
BRANCH   7   8
HETATM    8  O   UNL     1      40.576 -11.903   0.698  1.00  0.00    -0.389 OA
HETATM    9  H   UNL     1      40.303 -11.244   1.358  1.00  0.00     0.210 HD
ENDBRANCH   7   8
BRANCH   7  10
HETATM   10  C   UNL     1      41.825 -12.298   2.741  1.00  0.00    -0.028 A 
HETATM   11  C   UNL     1      40.867 -12.220   3.763  1.00  0.00     0.012 A 
HETATM   12  C   UNL     1      41.207 -11.719   5.022  1.00  0.00     0.037 A 
HETATM   13  C   UNL     1      42.507 -11.287   5.290  1.00  0.00     0.068 A 
HETATM   14  C   UNL     1      43.467 -11.362   4.283  1.00  0.00     0.037 A 
HETATM   15  C   UNL     1      43.128 -11.863   3.019  1.00  0.00     0.012 A 
BRANCH  13  16
HETATM   16  O   UNL     1      42.703 -10.822   6.561  1.00  0.00    -0.356 OA
HETATM   17  C   UNL     1      44.033 -10.870   7.062  1.00  0.00     0.210 C 
ENDBRANCH  13  16
ENDBRANCH   7  10
ENDBRANCH   5   7
ENDBRANCH   1   5
BRANCH   2  18
HETATM   18  C   UNL     1      42.490 -17.055   3.428  1.00  0.00     0.079 A 
HETATM   19  C   UNL     1      43.224 -17.189   4.615  1.00  0.00     0.165 A 
HETATM   20  N   UNL     1      44.136 -18.207   4.791  1.00  0.00    -0.241 NA
HETATM   21  C   UNL     1      44.335 -19.096   3.798  1.00  0.00     0.119 A 
HETATM   22  C   UNL     1      43.668 -19.039   2.599  1.00  0.00     0.020 A 
HETATM   23  C   UNL     1      42.747 -18.013   2.420  1.00  0.00     0.022 A 
BRANCH  19  24
HETATM   24  N   UNL     1      43.148 -16.297   5.739  1.00  0.00    -0.226 N 
HETATM   25  N   UNL     1      43.298 -14.943   5.676  1.00  0.00    -0.179 NA
HETATM   26  C   UNL     1      43.199 -14.526   6.942  1.00  0.00     0.141 A 
HETATM   27  C   UNL     1      42.918 -15.566   7.834  1.00  0.00     0.040 A 
HETATM   28  C   UNL     1      42.874 -16.685   7.042  1.00  0.00     0.122 A 
ENDBRANCH  19  24
ENDBRANCH   2  18
TORSDOF 7
ENDMDL
MODEL 3
REMARK VINA RESULT:      -7.6      4.321      7.191
REMARK  7 active torsions:
REMARK  status: ('A' for Active; 'I' for Inactive)
REMARK    1  A    between atoms: C_2  and  N_3 
REMARK    2  A    between atoms: C_2  and  C_17 
REMARK       I    between atoms: N_3  and  C_4 
REMARK    3  A    between atoms: C_4  and  C_5 
REMARK    4  A    between atoms: C_6  and  N_7 
REMARK    5  A    between atoms: C_17  and  O_18 
REMARK    6  A    between atoms: C_17  and  C_19 
REMARK    7  A    between atoms: C_22  and  O_23 
ROOT
HETATM    1  N   UNL     1      42.768 -14.109   4.506  1.00  0.00    -0.350 N 
HETATM    2  C   UNL     1      43.227 -15.235   5.137  1.00  0.00     0.255 C 
HETATM    3  O   UNL     1      43.618 -15.216   6.302  1.00  0.00    -0.268 OA
HETATM    4  H   UNL     1      42.161 -14.282   3.710  1.00  0.00     0.163 HD
ENDROOT
BRANCH   1   5
HETATM    5  C   UNL     1      42.570 -12.838   5.221  1.00  0.00     0.114 C 
HETATM    6  C   UNL     1      41.244 -12.193   4.798  1.00  0.00     0.035 C 
BRANCH   5   7
HETATM    7  C   UNL     1      43.791 -11.903   4.978  1.00  0.00     0.173 C 
BRANCH   7   8
HETATM    8  O   UNL     1      43.483 -10.902   3.997  1.00  0.00    -0.389 OA
HETATM    9  H   UNL     1      42.539 -11.000   3.790  1.00  0.00     0.210 HD
ENDBRANCH   7   8
BRANCH   7  10
HETATM   10  C   UNL     1      44.312 -11.261   6.250  1.00  0.00    -0.028 A 
HETATM   11  C   UNL     1      43.419 -10.605   7.110  1.00  0.00     0.012 A 
HETATM   12  C   UNL     1      43.875  -9.997   8.282  1.00  0.00     0.037 A 
HETATM   13  C   UNL     1      45.228 -10.032   8.624  1.00  0.00     0.068 A 
HETATM   14  C   UNL     1      46.124 -10.683   7.778  1.00  0.00     0.037 A 
HETATM   15  C   UNL     1      45.669 -11.292   6.601  1.00  0.00     0.012 A 
BRANCH  13  16
HETATM   16  O   UNL     1      45.537  -9.400   9.797  1.00  0.00    -0.356 OA
HETATM   17  C   UNL     1      44.564  -9.460  10.832  1.00  0.00     0.210 C 
ENDBRANCH  13  16
ENDBRANCH   7  10
ENDBRANCH   5   7
ENDBRANCH   1   5
BRANCH   2  18
HETATM   18  C   UNL     1      43.358 -16.502   4.351  1.00  0.00     0.079 A 
HETATM   19  C   UNL     1      42.723 -16.929   3.177  1.00  0.00     0.165 A 
HETATM   20  N   UNL     1      42.994 -18.158   2.613  1.00  0.00    -0.241 NA
HETATM   21  C   UNL     1      43.887 -18.974   3.206  1.00  0.00     0.119 A 
HETATM   22  C   UNL     1      44.552 -18.643   4.361  1.00  0.00     0.020 A 
HETATM   23  C   UNL     1      44.280 -17.404   4.930  1.00  0.00     0.022 A 
BRANCH  19  24
HETATM   24  N   UNL     1      41.722 -16.187   2.461  1.00  0.00    -0.226 N 
HETATM   25  N   UNL     1      40.451 -15.961   2.899  1.00  0.00    -0.179 NA
HETATM   26  C   UNL     1      39.862 -15.278   1.912  1.00  0.00     0.141 A 
HETATM   27  C   UNL     1      40.736 -14.988   0.859  1.00  0.00     0.040 A 
HETATM   28  C   UNL     1      41.922 -15.563   1.238  1.00  0.00     0.122 A 
ENDBRANCH  19  24
ENDBRANCH   2  18
TORSDOF 7
ENDMDL
MODEL 4
REMARK VINA RESULT:      -7.6      3.436      5.644
REMARK  7 active torsions:
REMARK  status: ('A' for Active; 'I' for Inactive)
REMARK    1  A    between atoms: C_2  and  N_3 
REMARK    2  A    between atoms: C_2  and  C_17 
REMARK       I    between atoms: N_3  and  C_4 
REMARK    3  A    between atoms: C_4  and  C_5 
REMARK    4  A    between atoms: C_6  and  N_7 
REMARK    5  A    between atoms: C_17  and  O_18 
REMARK    6  A    between atoms: C_17  and  C_19 
REMARK    7  A    between atoms: C_22  and  O_23 
ROOT
HETATM    1  N   UNL     1      42.583 -14.018   2.939  1.00  0.00    -0.350 N 
HETATM    2  C   UNL     1      41.871 -15.179   3.092  1.00  0.00     0.255 C 
HETATM    3  O   UNL     1      40.642 -15.196   3.069  1.00  0.00    -0.268 OA
HETATM    4  H   UNL     1      43.541 -14.142   2.626  1.00  0.00     0.163 HD
ENDROOT
BRANCH   1   5
HETATM    5  C   UNL     1      41.936 -12.744   2.589  1.00  0.00     0.114 C 
HETATM    6  C   UNL     1      41.479 -12.767   1.125  1.00  0.00     0.035 C 
BRANCH   5   7
HETATM    7  C   UNL     1      42.904 -11.562   2.891  1.00  0.00     0.173 C 
BRANCH   7   8
HETATM    8  O   UNL     1      42.376 -10.326   2.390  1.00  0.00    -0.389 OA
HETATM    9  H   UNL     1      41.499 -10.216   2.794  1.00  0.00     0.210 HD
ENDBRANCH   7   8
BRANCH   7  10
HETATM   10  C   UNL     1      43.250 -11.437   4.362  1.00  0.00    -0.028 A 
HETATM   11  C   UNL     1      44.581 -11.602   4.776  1.00  0.00     0.012 A 
HETATM   12  C   UNL     1      44.924 -11.503   6.127  1.00  0.00     0.037 A 
HETATM   13  C   UNL     1      43.952 -11.235   7.092  1.00  0.00     0.068 A 
HETATM   14  C   UNL     1      42.628 -11.067   6.692  1.00  0.00     0.037 A 
HETATM   15  C   UNL     1      42.281 -11.168   5.339  1.00  0.00     0.012 A 
BRANCH  13  16
HETATM   16  O   UNL     1      44.425 -11.162   8.374  1.00  0.00    -0.356 OA
HETATM   17  C   UNL     1      43.809 -10.209   9.230  1.00  0.00     0.210 C 
ENDBRANCH  13  16
ENDBRANCH   7  10
ENDBRANCH   5   7
ENDBRANCH   1   5
BRANCH   2  18
HETATM   18  C   UNL     1      42.607 -16.444   3.403  1.00  0.00     0.079 A 
HETATM   19  C   UNL     1      43.162 -16.917   4.600  1.00  0.00     0.165 A 
HETATM   20  N   UNL     1      43.812 -18.131   4.666  1.00  0.00    -0.241 NA
HETATM   21  C   UNL     1      43.923 -18.883   3.553  1.00  0.00     0.119 A 
HETATM   22  C   UNL     1      43.418 -18.497   2.336  1.00  0.00     0.020 A 
HETATM   23  C   UNL     1      42.761 -17.273   2.268  1.00  0.00     0.022 A 
BRANCH  19  24
HETATM   24  N   UNL     1      43.158 -16.210   5.851  1.00  0.00    -0.226 N 
HETATM   25  N   UNL     1      43.305 -14.861   5.990  1.00  0.00    -0.179 NA
HETATM   26  C   UNL     1      43.285 -14.646   7.308  1.00  0.00     0.141 A 
HETATM   27  C   UNL     1      43.058 -15.814   8.044  1.00  0.00     0.040 A 
HETATM   28  C   UNL     1      42.964 -16.797   7.093  1.00  0.00     0.122 A 
ENDBRANCH  19  24
ENDBRANCH   2  18
TORSDOF 7
ENDMDL
MODEL 5
REMARK VINA RESULT:      -7.6      3.036      7.655
REMARK  7 active torsions:
REMARK  status: ('A' for Active; 'I' for Inactive)
REMARK    1  A    between atoms: C_2  and  N_3 
REMARK    2  A    between atoms: C_2  and  C_17 
REMARK       I    between atoms: N_3  and  C_4 
REMARK    3  A    between atoms: C_4  and  C_5 
REMARK    4  A    between atoms: C_6  and  N_7 
REMARK    5  A    between atoms: C_17  and  O_18 
REMARK    6  A    between atoms: C_17  and  C_19 
REMARK    7  A    between atoms: C_22  and  O_23 
ROOT
HETATM    1  N   UNL     1      40.739 -13.745   1.853  1.00  0.00    -0.350 N 
HETATM    2  C   UNL     1      40.063 -14.481   0.915  1.00  0.00     0.255 C 
HETATM    3  O   UNL     1      39.765 -15.658   1.102  1.00  0.00    -0.268 OA
HETATM    4  H   UNL     1      40.629 -12.739   1.769  1.00  0.00     0.163 HD
ENDROOT
BRANCH   1   5
HETATM    5  C   UNL     1      41.021 -14.267   3.200  1.00  0.00     0.114 C 
HETATM    6  C   UNL     1      40.411 -13.344   4.263  1.00  0.00     0.035 C 
BRANCH   5   7
HETATM    7  C   UNL     1      42.557 -14.450   3.382  1.00  0.00     0.173 C 
BRANCH   7   8
HETATM    8  O   UNL     1      43.021 -13.759   4.550  1.00  0.00    -0.389 OA
HETATM    9  H   UNL     1      42.236 -13.581   5.096  1.00  0.00     0.210 HD
ENDBRANCH   7   8
BRANCH   7  10
HETATM   10  C   UNL     1      42.983 -15.905   3.418  1.00  0.00    -0.028 A 
HETATM   11  C   UNL     1      42.795 -16.709   2.284  1.00  0.00     0.012 A 
HETATM   12  C   UNL     1      43.169 -18.056   2.295  1.00  0.00     0.037 A 
HETATM   13  C   UNL     1      43.739 -18.628   3.434  1.00  0.00     0.068 A 
HETATM   14  C   UNL     1      43.932 -17.838   4.565  1.00  0.00     0.037 A 
HETATM   15  C   UNL     1      43.557 -16.489   4.557  1.00  0.00     0.012 A 
BRANCH  13  16
HETATM   16  O   UNL     1      44.059 -19.952   3.307  1.00  0.00    -0.356 OA
HETATM   17  C   UNL     1      43.787 -20.559   2.051  1.00  0.00     0.210 C 
ENDBRANCH  13  16
ENDBRANCH   7  10
ENDBRANCH   5   7
ENDBRANCH   1   5
BRANCH   2  18
HETATM   18  C   UNL     1      39.774 -13.864  -0.417  1.00  0.00     0.079 A 
HETATM   19  C   UNL     1      39.804 -12.528  -0.841  1.00  0.00     0.165 A 
HETATM   20  N   UNL     1      39.494 -12.172  -2.136  1.00  0.00    -0.241 NA
HETATM   21  C   UNL     1      39.147 -13.129  -3.019  1.00  0.00     0.119 A 
HETATM   22  C   UNL     1      39.083 -14.462  -2.692  1.00  0.00     0.020 A 
HETATM   23  C   UNL     1      39.397 -14.822  -1.386  1.00  0.00     0.022 A 
BRANCH  19  24
HETATM   24  N   UNL     1      40.114 -11.401  -0.004  1.00  0.00    -0.226 N 
HETATM   25  N   UNL     1      39.367 -10.984   1.057  1.00  0.00    -0.179 NA
HETATM   26  C   UNL     1      39.989  -9.892   1.510  1.00  0.00     0.141 A 
HETATM   27  C   UNL     1      41.171  -9.616   0.815  1.00  0.00     0.040 A 
HETATM   28  C   UNL     1      41.240 -10.601  -0.136  1.00  0.00     0.122 A 
ENDBRANCH  19  24
ENDBRANCH   2  18
TORSDOF 7
ENDMDL
MODEL 6
REMARK VINA RESULT:      -7.5     13.771     15.321
REMARK  7 active torsions:
REMARK  status: ('A' for Active; 'I' for Inactive)
REMARK    1  A    between atoms: C_2  and  N_3 
REMARK    2  A    between atoms: C_2  and  C_17 
REMARK       I    between atoms: N_3  and  C_4 
REMARK    3  A    between atoms: C_4  and  C_5 
REMARK    4  A    between atoms: C_6  and  N_7 
REMARK    5  A    between atoms: C_17  and  O_18 
REMARK    6  A    between atoms: C_17  and  C_19 
REMARK    7  A    between atoms: C_22  and  O_23 
ROOT
HETATM    1  N   UNL     1      46.972 -29.603   0.656  1.00  0.00    -0.350 N 
HETATM    2  C   UNL     1      48.023 -28.987   0.027  1.00  0.00     0.255 C 
HETATM    3  O   UNL     1      47.956 -27.823  -0.362  1.00  0.00    -0.268 OA
HETATM    4  H   UNL     1      47.226 -30.399   1.233  1.00  0.00     0.163 HD
ENDROOT
BRANCH   1   5
HETATM    5  C   UNL     1      45.755 -28.873   1.042  1.00  0.00     0.114 C 
HETATM    6  C   UNL     1      45.640 -28.804   2.569  1.00  0.00     0.035 C 
BRANCH   5   7
HETATM    7  C   UNL     1      44.511 -29.537   0.381  1.00  0.00     0.173 C 
BRANCH   7   8
HETATM    8  O   UNL     1      43.296 -28.947   0.864  1.00  0.00    -0.389 OA
HETATM    9  H   UNL     1      43.295 -29.068   1.829  1.00  0.00     0.210 HD
ENDBRANCH   7   8
BRANCH   7  10
HETATM   10  C   UNL     1      44.554 -29.506  -1.135  1.00  0.00    -0.028 A 
HETATM   11  C   UNL     1      44.285 -30.677  -1.859  1.00  0.00     0.012 A 
HETATM   12  C   UNL     1      44.328 -30.677  -3.256  1.00  0.00     0.037 A 
HETATM   13  C   UNL     1      44.637 -29.512  -3.960  1.00  0.00     0.068 A 
HETATM   14  C   UNL     1      44.904 -28.342  -3.251  1.00  0.00     0.037 A 
HETATM   15  C   UNL     1      44.863 -28.340  -1.851  1.00  0.00     0.012 A 
BRANCH  13  16
HETATM   16  O   UNL     1      44.643 -29.652  -5.321  1.00  0.00    -0.356 OA
HETATM   17  C   UNL     1      43.970 -30.786  -5.850  1.00  0.00     0.210 C 
ENDBRANCH  13  16
ENDBRANCH   7  10
ENDBRANCH   5   7
ENDBRANCH   1   5
BRANCH   2  18
HETATM   18  C   UNL     1      49.245 -29.788  -0.292  1.00  0.00     0.079 A 
HETATM   19  C   UNL     1      50.120 -30.506   0.536  1.00  0.00     0.165 A 
HETATM   20  N   UNL     1      51.207 -31.183   0.027  1.00  0.00    -0.241 NA
HETATM   21  C   UNL     1      51.442 -31.152  -1.300  1.00  0.00     0.119 A 
HETATM   22  C   UNL     1      50.645 -30.469  -2.186  1.00  0.00     0.020 A 
HETATM   23  C   UNL     1      49.548 -29.787  -1.673  1.00  0.00     0.022 A 
BRANCH  19  24
HETATM   24  N   UNL     1      50.019 -30.594   1.967  1.00  0.00    -0.226 N 
HETATM   25  N   UNL     1      48.982 -31.161   2.647  1.00  0.00    -0.179 NA
HETATM   26  C   UNL     1      49.277 -30.983   3.938  1.00  0.00     0.141 A 
HETATM   27  C   UNL     1      50.520 -30.372   4.129  1.00  0.00     0.040 A 
HETATM   28  C   UNL     1      50.984 -30.148   2.859  1.00  0.00     0.122 A 
ENDBRANCH  19  24
ENDBRANCH   2  18
TORSDOF 7
ENDMDL
MODEL 7
REMARK VINA RESULT:      -7.4      2.443      5.172
REMARK  7 active torsions:
REMARK  status: ('A' for Active; 'I' for Inactive)
REMARK    1  A    between atoms: C_2  and  N_3 
REMARK    2  A    between atoms: C_2  and  C_17 
REMARK       I    between atoms: N_3  and  C_4 
REMARK    3  A    between atoms: C_4  and  C_5 
REMARK    4  A    between atoms: C_6  and  N_7 
REMARK    5  A    between atoms: C_17  and  O_18 
REMARK    6  A    between atoms: C_17  and  C_19 
REMARK    7  A    between atoms: C_22  and  O_23 
ROOT
HETATM    1  N   UNL     1      41.438 -15.134   2.918  1.00  0.00    -0.350 N 
HETATM    2  C   UNL     1      41.388 -15.943   4.023  1.00  0.00     0.255 C 
HETATM    3  O   UNL     1      40.328 -16.387   4.458  1.00  0.00    -0.268 OA
HETATM    4  H   UNL     1      42.335 -15.113   2.443  1.00  0.00     0.163 HD
ENDROOT
BRANCH   1   5
HETATM    5  C   UNL     1      40.250 -14.864   2.093  1.00  0.00     0.114 C 
HETATM    6  C   UNL     1      40.577 -15.072   0.609  1.00  0.00     0.035 C 
BRANCH   5   7
HETATM    7  C   UNL     1      39.718 -13.431   2.390  1.00  0.00     0.173 C 
BRANCH   7   8
HETATM    8  O   UNL     1      38.306 -13.450   2.642  1.00  0.00    -0.389 OA
HETATM    9  H   UNL     1      38.060 -12.547   2.904  1.00  0.00     0.210 HD
ENDBRANCH   7   8
BRANCH   7  10
HETATM   10  C   UNL     1      40.454 -12.746   3.525  1.00  0.00    -0.028 A 
HETATM   11  C   UNL     1      39.897 -12.750   4.813  1.00  0.00     0.012 A 
HETATM   12  C   UNL     1      40.550 -12.117   5.874  1.00  0.00     0.037 A 
HETATM   13  C   UNL     1      41.770 -11.470   5.676  1.00  0.00     0.068 A 
HETATM   14  C   UNL     1      42.334 -11.461   4.401  1.00  0.00     0.037 A 
HETATM   15  C   UNL     1      41.680 -12.093   3.336  1.00  0.00     0.012 A 
BRANCH  13  16
HETATM   16  O   UNL     1      42.300 -10.894   6.798  1.00  0.00    -0.356 OA
HETATM   17  C   UNL     1      43.677 -11.136   7.052  1.00  0.00     0.210 C 
ENDBRANCH  13  16
ENDBRANCH   7  10
ENDBRANCH   5   7
ENDBRANCH   1   5
BRANCH   2  18
HETATM   18  C   UNL     1      42.649 -16.206   4.784  1.00  0.00     0.079 A 
HETATM   19  C   UNL     1      43.602 -17.228   4.666  1.00  0.00     0.165 A 
HETATM   20  N   UNL     1      44.709 -17.283   5.486  1.00  0.00    -0.241 NA
HETATM   21  C   UNL     1      44.880 -16.337   6.431  1.00  0.00     0.119 A 
HETATM   22  C   UNL     1      43.995 -15.304   6.624  1.00  0.00     0.020 A 
HETATM   23  C   UNL     1      42.880 -15.247   5.797  1.00  0.00     0.022 A 
BRANCH  19  24
HETATM   24  N   UNL     1      43.531 -18.322   3.738  1.00  0.00    -0.226 N 
HETATM   25  N   UNL     1      43.010 -18.251   2.480  1.00  0.00    -0.179 NA
HETATM   26  C   UNL     1      43.105 -19.492   1.995  1.00  0.00     0.141 A 
HETATM   27  C   UNL     1      43.741 -20.370   2.879  1.00  0.00     0.040 A 
HETATM   28  C   UNL     1      44.019 -19.599   3.978  1.00  0.00     0.122 A 
ENDBRANCH  19  24
ENDBRANCH   2  18
TORSDOF 7
ENDMDL
MODEL 8
REMARK VINA RESULT:      -7.4      4.964      8.164
REMARK  7 active torsions:
REMARK  status: ('A' for Active; 'I' for Inactive)
REMARK    1  A    between atoms: C_2  and  N_3 
REMARK    2  A    between atoms: C_2  and  C_17 
REMARK       I    between atoms: N_3  and  C_4 
REMARK    3  A    between atoms: C_4  and  C_5 
REMARK    4  A    between atoms: C_6  and  N_7 
REMARK    5  A    between atoms: C_17  and  O_18 
REMARK    6  A    between atoms: C_17  and  C_19 
REMARK    7  A    between atoms: C_22  and  O_23 
ROOT
HETATM    1  N   UNL     1      42.584 -13.076   6.735  1.00  0.00    -0.350 N 
HETATM    2  C   UNL     1      43.325 -12.111   6.104  1.00  0.00     0.255 C 
HETATM    3  O   UNL     1      43.457 -12.087   4.883  1.00  0.00    -0.268 OA
HETATM    4  H   UNL     1      42.249 -12.822   7.660  1.00  0.00     0.163 HD
ENDROOT
BRANCH   1   5
HETATM    5  C   UNL     1      41.777 -14.055   5.989  1.00  0.00     0.114 C 
HETATM    6  C   UNL     1      40.290 -13.689   6.072  1.00  0.00     0.035 C 
BRANCH   5   7
HETATM    7  C   UNL     1      42.068 -15.490   6.521  1.00  0.00     0.173 C 
BRANCH   7   8
HETATM    8  O   UNL     1      40.902 -16.054   7.138  1.00  0.00    -0.389 OA
HETATM    9  H   UNL     1      40.198 -15.387   7.059  1.00  0.00     0.210 HD
ENDBRANCH   7   8
BRANCH   7  10
HETATM   10  C   UNL     1      42.611 -16.421   5.454  1.00  0.00    -0.028 A 
HETATM   11  C   UNL     1      43.560 -17.394   5.804  1.00  0.00     0.012 A 
HETATM   12  C   UNL     1      44.084 -18.257   4.838  1.00  0.00     0.037 A 
HETATM   13  C   UNL     1      43.673 -18.173   3.507  1.00  0.00     0.068 A 
HETATM   14  C   UNL     1      42.730 -17.211   3.149  1.00  0.00     0.037 A 
HETATM   15  C   UNL     1      42.204 -16.343   4.115  1.00  0.00     0.012 A 
BRANCH  13  16
HETATM   16  O   UNL     1      44.264 -19.078   2.669  1.00  0.00    -0.356 OA
HETATM   17  C   UNL     1      43.501 -20.228   2.329  1.00  0.00     0.210 C 
ENDBRANCH  13  16
ENDBRANCH   7  10
ENDBRANCH   5   7
ENDBRANCH   1   5
BRANCH   2  18
HETATM   18  C   UNL     1      44.082 -11.123   6.934  1.00  0.00     0.079 A 
HETATM   19  C   UNL     1      43.642 -10.045   7.716  1.00  0.00     0.165 A 
HETATM   20  N   UNL     1      44.525  -9.245   8.409  1.00  0.00    -0.241 NA
HETATM   21  C   UNL     1      45.846  -9.499   8.332  1.00  0.00     0.119 A 
HETATM   22  C   UNL     1      46.369 -10.527   7.586  1.00  0.00     0.020 A 
HETATM   23  C   UNL     1      45.479 -11.335   6.887  1.00  0.00     0.022 A 
BRANCH  19  24
HETATM   24  N   UNL     1      42.273  -9.631   7.858  1.00  0.00    -0.226 N 
HETATM   25  N   UNL     1      41.358  -9.585   6.848  1.00  0.00    -0.179 NA
HETATM   26  C   UNL     1      40.246  -9.106   7.411  1.00  0.00     0.141 A 
HETATM   27  C   UNL     1      40.382  -8.898   8.788  1.00  0.00     0.040 A 
HETATM   28  C   UNL     1      41.679  -9.255   9.055  1.00  0.00     0.122 A 
ENDBRANCH  19  24
ENDBRANCH   2  18
TORSDOF 7
ENDMDL
MODEL 9
REMARK VINA RESULT:      -7.2     13.967     15.829
REMARK  7 active torsions:
REMARK  status: ('A' for Active; 'I' for Inactive)
REMARK    1  A    between atoms: C_2  and  N_3 
REMARK    2  A    between atoms: C_2  and  C_17 
REMARK       I    between atoms: N_3  and  C_4 
REMARK    3  A    between atoms: C_4  and  C_5 
REMARK    4  A    between atoms: C_6  and  N_7 
REMARK    5  A    between atoms: C_17  and  O_18 
REMARK    6  A    between atoms: C_17  and  C_19 
REMARK    7  A    between atoms: C_22  and  O_23 
ROOT
HETATM    1  N   UNL     1      47.036 -29.199   0.273  1.00  0.00    -0.350 N 
HETATM    2  C   UNL     1      47.566 -28.745   1.453  1.00  0.00     0.255 C 
HETATM    3  O   UNL     1      47.192 -27.697   1.974  1.00  0.00    -0.268 OA
HETATM    4  H   UNL     1      47.141 -30.196   0.113  1.00  0.00     0.163 HD
ENDROOT
BRANCH   1   5
HETATM    5  C   UNL     1      45.884 -28.546  -0.369  1.00  0.00     0.114 C 
HETATM    6  C   UNL     1      44.672 -29.485  -0.361  1.00  0.00     0.035 C 
BRANCH   5   7
HETATM    7  C   UNL     1      46.273 -28.087  -1.805  1.00  0.00     0.173 C 
BRANCH   7   8
HETATM    8  O   UNL     1      47.688 -27.880  -1.912  1.00  0.00    -0.389 OA
HETATM    9  H   UNL     1      48.082 -28.751  -2.087  1.00  0.00     0.210 HD
ENDBRANCH   7   8
BRANCH   7  10
HETATM   10  C   UNL     1      45.789 -29.036  -2.885  1.00  0.00    -0.028 A 
HETATM   11  C   UNL     1      46.500 -30.219  -3.135  1.00  0.00     0.012 A 
HETATM   12  C   UNL     1      46.081 -31.105  -4.131  1.00  0.00     0.037 A 
HETATM   13  C   UNL     1      44.945 -30.833  -4.896  1.00  0.00     0.068 A 
HETATM   14  C   UNL     1      44.230 -29.662  -4.655  1.00  0.00     0.037 A 
HETATM   15  C   UNL     1      44.649 -28.771  -3.658  1.00  0.00     0.012 A 
BRANCH  13  16
HETATM   16  O   UNL     1      44.648 -31.784  -5.834  1.00  0.00    -0.356 OA
HETATM   17  C   UNL     1      44.159 -31.318  -7.085  1.00  0.00     0.210 C 
ENDBRANCH  13  16
ENDBRANCH   7  10
ENDBRANCH   5   7
ENDBRANCH   1   5
BRANCH   2  18
HETATM   18  C   UNL     1      48.710 -29.490   2.066  1.00  0.00     0.079 A 
HETATM   19  C   UNL     1      49.709 -30.285   1.488  1.00  0.00     0.165 A 
HETATM   20  N   UNL     1      50.682 -30.893   2.251  1.00  0.00    -0.241 NA
HETATM   21  C   UNL     1      50.674 -30.726   3.589  1.00  0.00     0.119 A 
HETATM   22  C   UNL     1      49.730 -29.972   4.243  1.00  0.00     0.020 A 
HETATM   23  C   UNL     1      48.748 -29.358   3.473  1.00  0.00     0.022 A 
BRANCH  19  24
HETATM   24  N   UNL     1      49.821 -30.585   0.087  1.00  0.00    -0.226 N 
HETATM   25  N   UNL     1      50.131 -29.681  -0.886  1.00  0.00    -0.179 NA
HETATM   26  C   UNL     1      50.081 -30.373  -2.028  1.00  0.00     0.141 A 
HETATM   27  C   UNL     1      49.811 -31.731  -1.827  1.00  0.00     0.040 A 
HETATM   28  C   UNL     1      49.665 -31.847  -0.469  1.00  0.00     0.122 A 
ENDBRANCH  19  24
ENDBRANCH   2  18
TORSDOF 7
ENDMDL
MODEL 10
REMARK VINA RESULT:      -7.1      1.414      3.456
REMARK  7 active torsions:
REMARK  status: ('A' for Active; 'I' for Inactive)
REMARK    1  A    between atoms: C_2  and  N_3 
REMARK    2  A    between atoms: C_2  and  C_17 
REMARK       I    between atoms: N_3  and  C_4 
REMARK    3  A    between atoms: C_4  and  C_5 
REMARK    4  A    between atoms: C_6  and  N_7 
REMARK    5  A    between atoms: C_17  and  O_18 
REMARK    6  A    between atoms: C_17  and  C_19 
REMARK    7  A    between atoms: C_22  and  O_23 
ROOT
HETATM    1  N   UNL     1      41.826 -14.139   3.945  1.00  0.00    -0.350 N 
HETATM    2  C   UNL     1      41.354 -15.030   4.873  1.00  0.00     0.255 C 
HETATM    3  O   UNL     1      40.151 -15.202   5.057  1.00  0.00    -0.268 OA
HETATM    4  H   UNL     1      42.773 -14.317   3.624  1.00  0.00     0.163 HD
ENDROOT
BRANCH   1   5
HETATM    5  C   UNL     1      40.934 -13.441   3.006  1.00  0.00     0.114 C 
HETATM    6  C   UNL     1      39.873 -12.644   3.776  1.00  0.00     0.035 C 
BRANCH   5   7
HETATM    7  C   UNL     1      40.305 -14.467   2.017  1.00  0.00     0.173 C 
BRANCH   7   8
HETATM    8  O   UNL     1      38.966 -14.801   2.408  1.00  0.00    -0.389 OA
HETATM    9  H   UNL     1      38.499 -15.067   1.597  1.00  0.00     0.210 HD
ENDBRANCH   7   8
BRANCH   7  10
HETATM   10  C   UNL     1      40.340 -14.002   0.574  1.00  0.00    -0.028 A 
HETATM   11  C   UNL     1      40.985 -12.799   0.251  1.00  0.00     0.012 A 
HETATM   12  C   UNL     1      41.022 -12.343  -1.070  1.00  0.00     0.037 A 
HETATM   13  C   UNL     1      40.420 -13.075  -2.094  1.00  0.00     0.068 A 
HETATM   14  C   UNL     1      39.778 -14.272  -1.785  1.00  0.00     0.037 A 
HETATM   15  C   UNL     1      39.738 -14.731  -0.462  1.00  0.00     0.012 A 
BRANCH  13  16
HETATM   16  O   UNL     1      40.533 -12.516  -3.338  1.00  0.00    -0.356 OA
HETATM   17  C   UNL     1      40.650 -11.100  -3.394  1.00  0.00     0.210 C 
ENDBRANCH  13  16
ENDBRANCH   7  10
ENDBRANCH   5   7
ENDBRANCH   1   5
BRANCH   2  18
HETATM   18  C   UNL     1      42.330 -15.734   5.762  1.00  0.00     0.079 A 
HETATM   19  C   UNL     1      43.206 -16.799   5.509  1.00  0.00     0.165 A 
HETATM   20  N   UNL     1      44.032 -17.305   6.490  1.00  0.00    -0.241 NA
HETATM   21  C   UNL     1      43.994 -16.770   7.726  1.00  0.00     0.119 A 
HETATM   22  C   UNL     1      43.163 -15.731   8.067  1.00  0.00     0.020 A 
HETATM   23  C   UNL     1      42.331 -15.219   7.078  1.00  0.00     0.022 A 
BRANCH  19  24
HETATM   24  N   UNL     1      43.325 -17.493   4.256  1.00  0.00    -0.226 N 
HETATM   25  N   UNL     1      42.857 -17.037   3.060  1.00  0.00    -0.179 NA
HETATM   26  C   UNL     1      43.140 -18.008   2.186  1.00  0.00     0.141 A 
HETATM   27  C   UNL     1      43.846 -19.067   2.764  1.00  0.00     0.040 A 
HETATM   28  C   UNL     1      43.968 -18.711   4.083  1.00  0.00     0.122 A 
ENDBRANCH  19  24
ENDBRANCH   2  18
TORSDOF 7
ENDMDL
