MODEL 1
REMARK VINA RESULT:      -9.4      0.000      0.000
REMARK  8 active torsions:
REMARK  status: ('A' for Active; 'I' for Inactive)
REMARK    1  A    between atoms: O_2  and  C_3 
REMARK    2  A    between atoms: C_4  and  O_5 
REMARK    3  A    between atoms: C_13  and  C_14 
REMARK    4  A    between atoms: C_14  and  N_15 
REMARK    5  A    between atoms: C_19  and  C_20 
REMARK    6  A    between atoms: C_20  and  O_21 
REMARK    7  A    between atoms: C_20  and  C_22 
REMARK    8  A    between atoms: C_20  and  C_28 
ROOT
HETATM    1  N   UNL     1      42.188 -12.510   6.523  1.00  0.00    -0.064 N 
HETATM    2  H   UNL     1      41.537 -12.482   7.318  1.00  0.00     0.280 HD
HETATM    3  C   UNL     1      41.317 -12.638   5.286  1.00  0.00     0.236 C 
HETATM    4  C   UNL     1      40.582 -13.970   5.299  1.00  0.00     0.036 C 
HETATM    5  C   UNL     1      41.522 -15.195   5.401  1.00  0.00     0.033 C 
HETATM    6  C   UNL     1      42.339 -14.999   6.698  1.00  0.00     0.036 C 
HETATM    7  C   UNL     1      43.104 -13.685   6.758  1.00  0.00     0.236 C 
ENDROOT
BRANCH   1   8
HETATM    8  C   UNL     1      42.939 -11.167   6.546  1.00  0.00     0.313 C 
BRANCH   8   9
HETATM    9  C   UNL     1      42.983 -10.518   7.931  1.00  0.00     0.133 A 
HETATM   10  N   UNL     1      43.944 -10.969   8.797  1.00  0.00    -0.309 N 
HETATM   11  C   UNL     1      44.222 -10.349   9.988  1.00  0.00     0.259 A 
HETATM   12  H   UNL     1      44.561 -11.741   8.584  1.00  0.00     0.170 HD
HETATM   13  C   UNL     1      43.340  -9.230  10.353  1.00  0.00     0.064 A 
HETATM   14  O   UNL     1      45.177 -10.692  10.670  1.00  0.00    -0.267 OA
HETATM   15  C   UNL     1      42.333  -8.890   9.448  1.00  0.00     0.077 A 
HETATM   16  C   UNL     1      43.523  -8.531  11.548  1.00  0.00     0.059 A 
HETATM   17  C   UNL     1      41.480  -7.832   9.763  1.00  0.00     0.072 A 
HETATM   18  N   UNL     1      42.183  -9.540   8.208  1.00  0.00    -0.233 NA
HETATM   19  C   UNL     1      41.637  -7.122  10.960  1.00  0.00     0.103 A 
HETATM   20  C   UNL     1      42.675  -7.464  11.853  1.00  0.00     0.102 A 
BRANCH  19  21
HETATM   21  O   UNL     1      40.852  -6.058  11.331  1.00  0.00    -0.353 OA
HETATM   22  C   UNL     1      39.519  -6.333  11.742  1.00  0.00     0.210 C 
ENDBRANCH  19  21
BRANCH  20  23
HETATM   23  O   UNL     1      42.767  -6.702  12.989  1.00  0.00    -0.353 OA
HETATM   24  C   UNL     1      42.760  -7.369  14.244  1.00  0.00     0.210 C 
ENDBRANCH  20  23
ENDBRANCH   8   9
ENDBRANCH   1   8
BRANCH   5  25
HETATM   25  C   UNL     1      42.391 -15.466   4.101  1.00  0.00     0.116 C 
BRANCH  25  26
HETATM   26  O   UNL     1      43.457 -14.499   4.117  1.00  0.00    -0.380 OA
HETATM   27  H   UNL     1      44.278 -15.015   4.243  1.00  0.00     0.211 HD
ENDBRANCH  25  26
BRANCH  25  28
HETATM   28  C   UNL     1      43.038 -16.868   4.158  1.00  0.00    -0.019 A 
HETATM   29  C   UNL     1      43.257 -17.534   5.378  1.00  0.00     0.010 A 
HETATM   30  C   UNL     1      43.863 -18.795   5.423  1.00  0.00     0.001 A 
HETATM   31  C   UNL     1      44.278 -19.417   4.252  1.00  0.00     0.000 A 
HETATM   32  C   UNL     1      44.091 -18.780   3.032  1.00  0.00     0.001 A 
HETATM   33  C   UNL     1      43.482 -17.522   2.985  1.00  0.00     0.010 A 
ENDBRANCH  25  28
BRANCH  25  34
HETATM   34  C   UNL     1      41.588 -15.221   2.799  1.00  0.00    -0.019 A 
HETATM   35  C   UNL     1      40.488 -16.028   2.442  1.00  0.00     0.010 A 
HETATM   36  C   UNL     1      39.779 -15.815   1.254  1.00  0.00     0.001 A 
HETATM   37  C   UNL     1      40.143 -14.783   0.398  1.00  0.00     0.000 A 
HETATM   38  C   UNL     1      41.216 -13.964   0.726  1.00  0.00     0.001 A 
HETATM   39  C   UNL     1      41.929 -14.181   1.909  1.00  0.00     0.010 A 
ENDBRANCH  25  34
ENDBRANCH   5  25
TORSDOF 8
ENDMDL
MODEL 2
REMARK VINA RESULT:      -9.3      2.253      4.379
REMARK  8 active torsions:
REMARK  status: ('A' for Active; 'I' for Inactive)
REMARK    1  A    between atoms: O_2  and  C_3 
REMARK    2  A    between atoms: C_4  and  O_5 
REMARK    3  A    between atoms: C_13  and  C_14 
REMARK    4  A    between atoms: C_14  and  N_15 
REMARK    5  A    between atoms: C_19  and  C_20 
REMARK    6  A    between atoms: C_20  and  O_21 
REMARK    7  A    between atoms: C_20  and  C_22 
REMARK    8  A    between atoms: C_20  and  C_28 
ROOT
HETATM    1  N   UNL     1      40.711 -13.355   2.446  1.00  0.00    -0.064 N 
HETATM    2  H   UNL     1      39.787 -13.384   1.998  1.00  0.00     0.280 HD
HETATM    3  C   UNL     1      41.650 -14.072   1.493  1.00  0.00     0.236 C 
HETATM    4  C   UNL     1      41.262 -15.539   1.380  1.00  0.00     0.036 C 
HETATM    5  C   UNL     1      41.236 -16.279   2.738  1.00  0.00     0.033 C 
HETATM    6  C   UNL     1      40.235 -15.506   3.627  1.00  0.00     0.036 C 
HETATM    7  C   UNL     1      40.559 -14.028   3.788  1.00  0.00     0.236 C 
ENDROOT
BRANCH   1   8
HETATM    8  C   UNL     1      41.071 -11.864   2.576  1.00  0.00     0.313 C 
BRANCH   8   9
HETATM    9  C   UNL     1      41.704 -11.506   3.921  1.00  0.00     0.133 A 
HETATM   10  N   UNL     1      43.058 -11.679   4.036  1.00  0.00    -0.309 N 
HETATM   11  C   UNL     1      43.779 -11.218   5.108  1.00  0.00     0.259 A 
HETATM   12  H   UNL     1      43.626 -12.089   3.308  1.00  0.00     0.170 HD
HETATM   13  C   UNL     1      42.996 -10.629   6.205  1.00  0.00     0.064 A 
HETATM   14  O   UNL     1      45.000 -11.265   5.114  1.00  0.00    -0.267 OA
HETATM   15  C   UNL     1      41.612 -10.568   6.039  1.00  0.00     0.077 A 
HETATM   16  C   UNL     1      43.623 -10.136   7.352  1.00  0.00     0.059 A 
HETATM   17  C   UNL     1      40.839 -10.012   7.060  1.00  0.00     0.072 A 
HETATM   18  N   UNL     1      40.974 -10.995   4.859  1.00  0.00    -0.233 NA
HETATM   19  C   UNL     1      41.444  -9.520   8.224  1.00  0.00     0.103 A 
HETATM   20  C   UNL     1      42.848  -9.569   8.365  1.00  0.00     0.102 A 
BRANCH  19  21
HETATM   21  O   UNL     1      40.755  -8.942   9.262  1.00  0.00    -0.353 OA
HETATM   22  C   UNL     1      39.349  -9.143   9.314  1.00  0.00     0.210 C 
ENDBRANCH  19  21
BRANCH  20  23
HETATM   23  O   UNL     1      43.354  -9.046   9.527  1.00  0.00    -0.353 OA
HETATM   24  C   UNL     1      43.854  -9.948  10.504  1.00  0.00     0.210 C 
ENDBRANCH  20  23
ENDBRANCH   8   9
ENDBRANCH   1   8
BRANCH   5  25
HETATM   25  C   UNL     1      42.665 -16.507   3.389  1.00  0.00     0.116 C 
BRANCH  25  26
HETATM   26  O   UNL     1      43.588 -15.705   2.632  1.00  0.00    -0.380 OA
HETATM   27  H   UNL     1      43.041 -15.038   2.172  1.00  0.00     0.211 HD
ENDBRANCH  25  26
BRANCH  25  28
HETATM   28  C   UNL     1      42.692 -15.992   4.846  1.00  0.00    -0.019 A 
HETATM   29  C   UNL     1      43.518 -14.922   5.238  1.00  0.00     0.010 A 
HETATM   30  C   UNL     1      43.553 -14.475   6.564  1.00  0.00     0.001 A 
HETATM   31  C   UNL     1      42.775 -15.094   7.534  1.00  0.00     0.000 A 
HETATM   32  C   UNL     1      41.960 -16.162   7.184  1.00  0.00     0.001 A 
HETATM   33  C   UNL     1      41.922 -16.608   5.859  1.00  0.00     0.010 A 
ENDBRANCH  25  28
BRANCH  25  34
HETATM   34  C   UNL     1      43.140 -17.976   3.257  1.00  0.00    -0.019 A 
HETATM   35  C   UNL     1      42.830 -18.759   2.126  1.00  0.00     0.010 A 
HETATM   36  C   UNL     1      43.244 -20.091   2.021  1.00  0.00     0.001 A 
HETATM   37  C   UNL     1      43.988 -20.674   3.039  1.00  0.00     0.000 A 
HETATM   38  C   UNL     1      44.320 -19.927   4.163  1.00  0.00     0.001 A 
HETATM   39  C   UNL     1      43.900 -18.598   4.271  1.00  0.00     0.010 A 
ENDBRANCH  25  34
ENDBRANCH   5  25
TORSDOF 8
ENDMDL
MODEL 3
REMARK VINA RESULT:      -9.3      2.406      5.073
REMARK  8 active torsions:
REMARK  status: ('A' for Active; 'I' for Inactive)
REMARK    1  A    between atoms: O_2  and  C_3 
REMARK    2  A    between atoms: C_4  and  O_5 
REMARK    3  A    between atoms: C_13  and  C_14 
REMARK    4  A    between atoms: C_14  and  N_15 
REMARK    5  A    between atoms: C_19  and  C_20 
REMARK    6  A    between atoms: C_20  and  O_21 
REMARK    7  A    between atoms: C_20  and  C_22 
REMARK    8  A    between atoms: C_20  and  C_28 
ROOT
HETATM    1  N   UNL     1      40.969 -13.303   2.113  1.00  0.00    -0.064 N 
HETATM    2  H   UNL     1      40.032 -13.306   1.691  1.00  0.00     0.280 HD
HETATM    3  C   UNL     1      41.811 -14.218   1.241  1.00  0.00     0.236 C 
HETATM    4  C   UNL     1      41.294 -15.646   1.328  1.00  0.00     0.036 C 
HETATM    5  C   UNL     1      41.248 -16.201   2.772  1.00  0.00     0.033 C 
HETATM    6  C   UNL     1      40.347 -15.234   3.573  1.00  0.00     0.036 C 
HETATM    7  C   UNL     1      40.803 -13.783   3.533  1.00  0.00     0.236 C 
ENDROOT
BRANCH   1   8
HETATM    8  C   UNL     1      41.460 -11.846   2.039  1.00  0.00     0.313 C 
BRANCH   8   9
HETATM    9  C   UNL     1      41.715 -11.221   3.411  1.00  0.00     0.133 A 
HETATM   10  N   UNL     1      40.712 -10.450   3.938  1.00  0.00    -0.309 N 
HETATM   11  C   UNL     1      40.725  -9.994   5.231  1.00  0.00     0.259 A 
HETATM   12  H   UNL     1      39.863 -10.230   3.435  1.00  0.00     0.170 HD
HETATM   13  C   UNL     1      41.947 -10.273   6.000  1.00  0.00     0.064 A 
HETATM   14  O   UNL     1      39.752  -9.429   5.711  1.00  0.00    -0.267 OA
HETATM   15  C   UNL     1      42.954 -10.994   5.357  1.00  0.00     0.077 A 
HETATM   16  C   UNL     1      42.077  -9.847   7.324  1.00  0.00     0.059 A 
HETATM   17  C   UNL     1      44.127 -11.278   6.059  1.00  0.00     0.072 A 
HETATM   18  N   UNL     1      42.808 -11.491   4.048  1.00  0.00    -0.233 NA
HETATM   19  C   UNL     1      44.284 -10.853   7.384  1.00  0.00     0.103 A 
HETATM   20  C   UNL     1      43.246 -10.144   8.027  1.00  0.00     0.102 A 
BRANCH  19  21
HETATM   21  O   UNL     1      45.397 -11.110   8.147  1.00  0.00    -0.353 OA
HETATM   22  C   UNL     1      46.585 -10.391   7.843  1.00  0.00     0.210 C 
ENDBRANCH  19  21
BRANCH  20  23
HETATM   23  O   UNL     1      43.478  -9.787   9.330  1.00  0.00    -0.353 OA
HETATM   24  C   UNL     1      42.367  -9.390  10.122  1.00  0.00     0.210 C 
ENDBRANCH  20  23
ENDBRANCH   8   9
ENDBRANCH   1   8
BRANCH   5  25
HETATM   25  C   UNL     1      42.673 -16.472   3.417  1.00  0.00     0.116 C 
BRANCH  25  26
HETATM   26  O   UNL     1      43.614 -15.685   2.665  1.00  0.00    -0.380 OA
HETATM   27  H   UNL     1      44.494 -16.053   2.879  1.00  0.00     0.211 HD
ENDBRANCH  25  26
BRANCH  25  28
HETATM   28  C   UNL     1      42.716 -15.972   4.879  1.00  0.00    -0.019 A 
HETATM   29  C   UNL     1      43.624 -14.981   5.297  1.00  0.00     0.010 A 
HETATM   30  C   UNL     1      43.672 -14.549   6.627  1.00  0.00     0.001 A 
HETATM   31  C   UNL     1      42.824 -15.105   7.577  1.00  0.00     0.000 A 
HETATM   32  C   UNL     1      41.927 -16.096   7.200  1.00  0.00     0.001 A 
HETATM   33  C   UNL     1      41.875 -16.526   5.871  1.00  0.00     0.010 A 
ENDBRANCH  25  28
BRANCH  25  34
HETATM   34  C   UNL     1      43.110 -17.950   3.269  1.00  0.00    -0.019 A 
HETATM   35  C   UNL     1      43.854 -18.610   4.270  1.00  0.00     0.010 A 
HETATM   36  C   UNL     1      44.263 -19.939   4.121  1.00  0.00     0.001 A 
HETATM   37  C   UNL     1      43.932 -20.649   2.974  1.00  0.00     0.000 A 
HETATM   38  C   UNL     1      43.191 -20.032   1.973  1.00  0.00     0.001 A 
HETATM   39  C   UNL     1      42.788 -18.701   2.119  1.00  0.00     0.010 A 
ENDBRANCH  25  34
ENDBRANCH   5  25
TORSDOF 8
ENDMDL
MODEL 4
REMARK VINA RESULT:      -9.2      6.194      9.879
REMARK  8 active torsions:
REMARK  status: ('A' for Active; 'I' for Inactive)
REMARK    1  A    between atoms: O_2  and  C_3 
REMARK    2  A    between atoms: C_4  and  O_5 
REMARK    3  A    between atoms: C_13  and  C_14 
REMARK    4  A    between atoms: C_14  and  N_15 
REMARK    5  A    between atoms: C_19  and  C_20 
REMARK    6  A    between atoms: C_20  and  O_21 
REMARK    7  A    between atoms: C_20  and  C_22 
REMARK    8  A    between atoms: C_20  and  C_28 
ROOT
HETATM    1  N   UNL     1      41.310 -13.852   1.504  1.00  0.00    -0.064 N 
HETATM    2  H   UNL     1      41.922 -13.243   0.947  1.00  0.00     0.280 HD
HETATM    3  C   UNL     1      41.757 -13.672   2.944  1.00  0.00     0.236 C 
HETATM    4  C   UNL     1      43.176 -14.194   3.121  1.00  0.00     0.036 C 
HETATM    5  C   UNL     1      43.347 -15.674   2.704  1.00  0.00     0.033 C 
HETATM    6  C   UNL     1      42.905 -15.756   1.226  1.00  0.00     0.036 C 
HETATM    7  C   UNL     1      41.493 -15.251   0.970  1.00  0.00     0.236 C 
ENDROOT
BRANCH   1   8
HETATM    8  C   UNL     1      39.880 -13.324   1.288  1.00  0.00     0.313 C 
BRANCH   8   9
HETATM    9  C   UNL     1      39.693 -12.603  -0.047  1.00  0.00     0.133 A 
HETATM   10  N   UNL     1      38.558 -12.893  -0.756  1.00  0.00    -0.309 N 
HETATM   11  C   UNL     1      38.169 -12.182  -1.862  1.00  0.00     0.259 A 
HETATM   12  H   UNL     1      37.894 -13.599  -0.469  1.00  0.00     0.170 HD
HETATM   13  C   UNL     1      39.112 -11.155  -2.332  1.00  0.00     0.064 A 
HETATM   14  O   UNL     1      37.083 -12.377  -2.387  1.00  0.00    -0.267 OA
HETATM   15  C   UNL     1      40.285 -10.982  -1.596  1.00  0.00     0.077 A 
HETATM   16  C   UNL     1      38.825 -10.377  -3.456  1.00  0.00     0.059 A 
HETATM   17  C   UNL     1      41.200 -10.014  -2.013  1.00  0.00     0.072 A 
HETATM   18  N   UNL     1      40.552 -11.710  -0.421  1.00  0.00    -0.233 NA
HETATM   19  C   UNL     1      40.940  -9.228  -3.143  1.00  0.00     0.103 A 
HETATM   20  C   UNL     1      39.737  -9.401  -3.862  1.00  0.00     0.102 A 
BRANCH  19  21
HETATM   21  O   UNL     1      41.779  -8.243  -3.603  1.00  0.00    -0.353 OA
HETATM   22  C   UNL     1      41.883  -7.053  -2.834  1.00  0.00     0.210 C 
ENDBRANCH  19  21
BRANCH  20  23
HETATM   23  O   UNL     1      39.557  -8.573  -4.940  1.00  0.00    -0.353 OA
HETATM   24  C   UNL     1      38.378  -8.736  -5.717  1.00  0.00     0.210 C 
ENDBRANCH  20  23
ENDBRANCH   8   9
ENDBRANCH   1   8
BRANCH   5  25
HETATM   25  C   UNL     1      42.636 -16.715   3.670  1.00  0.00     0.116 C 
BRANCH  25  26
HETATM   26  O   UNL     1      41.233 -16.663   3.358  1.00  0.00    -0.380 OA
HETATM   27  H   UNL     1      41.092 -15.799   2.923  1.00  0.00     0.211 HD
ENDBRANCH  25  26
BRANCH  25  28
HETATM   28  C   UNL     1      43.123 -18.153   3.379  1.00  0.00    -0.019 A 
HETATM   29  C   UNL     1      42.829 -18.803   2.166  1.00  0.00     0.010 A 
HETATM   30  C   UNL     1      43.254 -20.112   1.919  1.00  0.00     0.001 A 
HETATM   31  C   UNL     1      43.972 -20.811   2.881  1.00  0.00     0.000 A 
HETATM   32  C   UNL     1      44.266 -20.204   4.094  1.00  0.00     0.001 A 
HETATM   33  C   UNL     1      43.845 -18.894   4.342  1.00  0.00     0.010 A 
ENDBRANCH  25  28
BRANCH  25  34
HETATM   34  C   UNL     1      42.776 -16.318   5.161  1.00  0.00    -0.019 A 
HETATM   35  C   UNL     1      44.035 -16.215   5.788  1.00  0.00     0.010 A 
HETATM   36  C   UNL     1      44.153 -15.876   7.141  1.00  0.00     0.001 A 
HETATM   37  C   UNL     1      43.018 -15.620   7.900  1.00  0.00     0.000 A 
HETATM   38  C   UNL     1      41.763 -15.702   7.309  1.00  0.00     0.001 A 
HETATM   39  C   UNL     1      41.644 -16.048   5.959  1.00  0.00     0.010 A 
ENDBRANCH  25  34
ENDBRANCH   5  25
TORSDOF 8
ENDMDL
MODEL 5
REMARK VINA RESULT:      -9.1      1.459      2.147
REMARK  8 active torsions:
REMARK  status: ('A' for Active; 'I' for Inactive)
REMARK    1  A    between atoms: O_2  and  C_3 
REMARK    2  A    between atoms: C_4  and  O_5 
REMARK    3  A    between atoms: C_13  and  C_14 
REMARK    4  A    between atoms: C_14  and  N_15 
REMARK    5  A    between atoms: C_19  and  C_20 
REMARK    6  A    between atoms: C_20  and  O_21 
REMARK    7  A    between atoms: C_20  and  C_22 
REMARK    8  A    between atoms: C_20  and  C_28 
ROOT
HETATM    1  N   UNL     1      43.397 -13.723   6.682  1.00  0.00    -0.064 N 
HETATM    2  H   UNL     1      42.832 -13.682   7.539  1.00  0.00     0.280 HD
HETATM    3  C   UNL     1      42.439 -13.414   5.546  1.00  0.00     0.236 C 
HETATM    4  C   UNL     1      41.389 -14.509   5.433  1.00  0.00     0.036 C 
HETATM    5  C   UNL     1      41.988 -15.923   5.238  1.00  0.00     0.033 C 
HETATM    6  C   UNL     1      42.917 -16.165   6.449  1.00  0.00     0.036 C 
HETATM    7  C   UNL     1      43.995 -15.107   6.627  1.00  0.00     0.236 C 
ENDROOT
BRANCH   1   8
HETATM    8  C   UNL     1      44.467 -12.626   6.830  1.00  0.00     0.313 C 
BRANCH   8   9
HETATM    9  C   UNL     1      43.950 -11.360   7.514  1.00  0.00     0.133 A 
HETATM   10  N   UNL     1      43.261 -10.471   6.734  1.00  0.00    -0.309 N 
HETATM   11  C   UNL     1      42.578  -9.400   7.252  1.00  0.00     0.259 A 
HETATM   12  H   UNL     1      43.146 -10.584   5.736  1.00  0.00     0.170 HD
HETATM   13  C   UNL     1      42.728  -9.179   8.698  1.00  0.00     0.064 A 
HETATM   14  O   UNL     1      41.860  -8.708   6.544  1.00  0.00    -0.267 OA
HETATM   15  C   UNL     1      43.518 -10.088   9.403  1.00  0.00     0.077 A 
HETATM   16  C   UNL     1      42.087  -8.112   9.333  1.00  0.00     0.059 A 
HETATM   17  C   UNL     1      43.679  -9.909  10.778  1.00  0.00     0.072 A 
HETATM   18  N   UNL     1      44.111 -11.207   8.789  1.00  0.00    -0.233 NA
HETATM   19  C   UNL     1      43.055  -8.841  11.435  1.00  0.00     0.103 A 
HETATM   20  C   UNL     1      42.241  -7.944  10.710  1.00  0.00     0.102 A 
BRANCH  19  21
HETATM   21  O   UNL     1      43.148  -8.610  12.786  1.00  0.00    -0.353 OA
HETATM   22  C   UNL     1      42.267  -9.327  13.640  1.00  0.00     0.210 C 
ENDBRANCH  19  21
BRANCH  20  23
HETATM   23  O   UNL     1      41.652  -6.943  11.438  1.00  0.00    -0.353 OA
HETATM   24  C   UNL     1      40.232  -6.873  11.453  1.00  0.00     0.210 C 
ENDBRANCH  20  23
ENDBRANCH   8   9
ENDBRANCH   1   8
BRANCH   5  25
HETATM   25  C   UNL     1      42.667 -16.158   3.822  1.00  0.00     0.116 C 
BRANCH  25  26
HETATM   26  O   UNL     1      43.864 -15.360   3.809  1.00  0.00    -0.380 OA
HETATM   27  H   UNL     1      43.786 -14.757   4.574  1.00  0.00     0.211 HD
ENDBRANCH  25  26
BRANCH  25  28
HETATM   28  C   UNL     1      43.093 -17.635   3.658  1.00  0.00    -0.019 A 
HETATM   29  C   UNL     1      43.742 -18.337   4.690  1.00  0.00     0.010 A 
HETATM   30  C   UNL     1      44.144 -19.667   4.527  1.00  0.00     0.001 A 
HETATM   31  C   UNL     1      43.922 -20.326   3.324  1.00  0.00     0.000 A 
HETATM   32  C   UNL     1      43.298 -19.656   2.280  1.00  0.00     0.001 A 
HETATM   33  C   UNL     1      42.892 -18.328   2.442  1.00  0.00     0.010 A 
ENDBRANCH  25  28
BRANCH  25  34
HETATM   34  C   UNL     1      41.780 -15.651   2.658  1.00  0.00    -0.019 A 
HETATM   35  C   UNL     1      40.501 -16.190   2.407  1.00  0.00     0.010 A 
HETATM   36  C   UNL     1      39.714 -15.741   1.341  1.00  0.00     0.001 A 
HETATM   37  C   UNL     1      40.177 -14.735   0.503  1.00  0.00     0.000 A 
HETATM   38  C   UNL     1      41.430 -14.175   0.729  1.00  0.00     0.001 A 
HETATM   39  C   UNL     1      42.219 -14.628   1.790  1.00  0.00     0.010 A 
ENDBRANCH  25  34
ENDBRANCH   5  25
TORSDOF 8
ENDMDL
MODEL 6
REMARK VINA RESULT:      -9.0      3.554      5.391
REMARK  8 active torsions:
REMARK  status: ('A' for Active; 'I' for Inactive)
REMARK    1  A    between atoms: O_2  and  C_3 
REMARK    2  A    between atoms: C_4  and  O_5 
REMARK    3  A    between atoms: C_13  and  C_14 
REMARK    4  A    between atoms: C_14  and  N_15 
REMARK    5  A    between atoms: C_19  and  C_20 
REMARK    6  A    between atoms: C_20  and  O_21 
REMARK    7  A    between atoms: C_20  and  C_22 
REMARK    8  A    between atoms: C_20  and  C_28 
ROOT
HETATM    1  N   UNL     1      41.362 -13.704   1.750  1.00  0.00    -0.064 N 
HETATM    2  H   UNL     1      41.956 -13.129   1.140  1.00  0.00     0.280 HD
HETATM    3  C   UNL     1      42.010 -13.650   3.121  1.00  0.00     0.236 C 
HETATM    4  C   UNL     1      43.376 -14.319   3.081  1.00  0.00     0.036 C 
HETATM    5  C   UNL     1      43.334 -15.783   2.584  1.00  0.00     0.033 C 
HETATM    6  C   UNL     1      42.696 -15.739   1.177  1.00  0.00     0.036 C 
HETATM    7  C   UNL     1      41.324 -15.083   1.137  1.00  0.00     0.236 C 
ENDROOT
BRANCH   1   8
HETATM    8  C   UNL     1      39.979 -13.026   1.753  1.00  0.00     0.313 C 
BRANCH   8   9
HETATM    9  C   UNL     1      39.633 -12.359   3.085  1.00  0.00     0.133 A 
HETATM   10  N   UNL     1      39.489 -13.180   4.171  1.00  0.00    -0.309 N 
HETATM   11  C   UNL     1      39.374 -12.706   5.453  1.00  0.00     0.259 A 
HETATM   12  H   UNL     1      39.533 -14.189   4.111  1.00  0.00     0.170 HD
HETATM   13  C   UNL     1      39.287 -11.245   5.593  1.00  0.00     0.064 A 
HETATM   14  O   UNL     1      39.388 -13.467   6.411  1.00  0.00    -0.267 OA
HETATM   15  C   UNL     1      39.359 -10.487   4.424  1.00  0.00     0.077 A 
HETATM   16  C   UNL     1      39.157 -10.650   6.851  1.00  0.00     0.059 A 
HETATM   17  C   UNL     1      39.282  -9.096   4.522  1.00  0.00     0.072 A 
HETATM   18  N   UNL     1      39.562 -11.070   3.159  1.00  0.00    -0.233 NA
HETATM   19  C   UNL     1      39.142  -8.477   5.771  1.00  0.00     0.103 A 
HETATM   20  C   UNL     1      39.093  -9.259   6.946  1.00  0.00     0.102 A 
BRANCH  19  21
HETATM   21  O   UNL     1      39.079  -7.117   5.951  1.00  0.00    -0.353 OA
HETATM   22  C   UNL     1      37.950  -6.433   5.424  1.00  0.00     0.210 C 
ENDBRANCH  19  21
BRANCH  20  23
HETATM   23  O   UNL     1      38.977  -8.567   8.124  1.00  0.00    -0.353 OA
HETATM   24  C   UNL     1      39.253  -9.258   9.334  1.00  0.00     0.210 C 
ENDBRANCH  20  23
ENDBRANCH   8   9
ENDBRANCH   1   8
BRANCH   5  25
HETATM   25  C   UNL     1      42.650 -16.800   3.593  1.00  0.00     0.116 C 
BRANCH  25  26
HETATM   26  O   UNL     1      41.240 -16.769   3.307  1.00  0.00    -0.380 OA
HETATM   27  H   UNL     1      40.917 -17.675   3.478  1.00  0.00     0.211 HD
ENDBRANCH  25  26
BRANCH  25  28
HETATM   28  C   UNL     1      43.142 -18.243   3.334  1.00  0.00    -0.019 A 
HETATM   29  C   UNL     1      42.905 -18.898   2.112  1.00  0.00     0.010 A 
HETATM   30  C   UNL     1      43.335 -20.212   1.893  1.00  0.00     0.001 A 
HETATM   31  C   UNL     1      44.000 -20.909   2.893  1.00  0.00     0.000 A 
HETATM   32  C   UNL     1      44.237 -20.296   4.116  1.00  0.00     0.001 A 
HETATM   33  C   UNL     1      43.811 -18.983   4.336  1.00  0.00     0.010 A 
ENDBRANCH  25  28
BRANCH  25  34
HETATM   34  C   UNL     1      42.815 -16.360   5.068  1.00  0.00    -0.019 A 
HETATM   35  C   UNL     1      44.085 -16.165   5.649  1.00  0.00     0.010 A 
HETATM   36  C   UNL     1      44.228 -15.787   6.988  1.00  0.00     0.001 A 
HETATM   37  C   UNL     1      43.106 -15.581   7.781  1.00  0.00     0.000 A 
HETATM   38  C   UNL     1      41.839 -15.755   7.236  1.00  0.00     0.001 A 
HETATM   39  C   UNL     1      41.696 -16.139   5.900  1.00  0.00     0.010 A 
ENDBRANCH  25  34
ENDBRANCH   5  25
TORSDOF 8
ENDMDL
MODEL 7
REMARK VINA RESULT:      -8.8      1.527      1.788
REMARK  8 active torsions:
REMARK  status: ('A' for Active; 'I' for Inactive)
REMARK    1  A    between atoms: O_2  and  C_3 
REMARK    2  A    between atoms: C_4  and  O_5 
REMARK    3  A    between atoms: C_13  and  C_14 
REMARK    4  A    between atoms: C_14  and  N_15 
REMARK    5  A    between atoms: C_19  and  C_20 
REMARK    6  A    between atoms: C_20  and  O_21 
REMARK    7  A    between atoms: C_20  and  C_22 
REMARK    8  A    between atoms: C_20  and  C_28 
ROOT
HETATM    1  N   UNL     1      41.499 -11.639   5.845  1.00  0.00    -0.064 N 
HETATM    2  H   UNL     1      40.809 -11.643   6.606  1.00  0.00     0.280 HD
HETATM    3  C   UNL     1      40.714 -11.934   4.579  1.00  0.00     0.236 C 
HETATM    4  C   UNL     1      40.133 -13.339   4.639  1.00  0.00     0.036 C 
HETATM    5  C   UNL     1      41.198 -14.440   4.858  1.00  0.00     0.033 C 
HETATM    6  C   UNL     1      41.919 -14.080   6.177  1.00  0.00     0.036 C 
HETATM    7  C   UNL     1      42.528 -12.686   6.192  1.00  0.00     0.236 C 
ENDROOT
BRANCH   1   8
HETATM    8  C   UNL     1      42.093 -10.219   5.821  1.00  0.00     0.313 C 
BRANCH   8   9
HETATM    9  C   UNL     1      42.402  -9.666   7.213  1.00  0.00     0.133 A 
HETATM   10  N   UNL     1      43.559  -8.946   7.351  1.00  0.00    -0.309 N 
HETATM   11  C   UNL     1      43.861  -8.233   8.483  1.00  0.00     0.259 A 
HETATM   12  H   UNL     1      44.230  -8.830   6.605  1.00  0.00     0.170 HD
HETATM   13  C   UNL     1      42.924  -8.382   9.607  1.00  0.00     0.064 A 
HETATM   14  O   UNL     1      44.831  -7.490   8.521  1.00  0.00    -0.267 OA
HETATM   15  C   UNL     1      41.813  -9.203   9.407  1.00  0.00     0.077 A 
HETATM   16  C   UNL     1      43.136  -7.711  10.814  1.00  0.00     0.059 A 
HETATM   17  C   UNL     1      40.903  -9.365  10.452  1.00  0.00     0.072 A 
HETATM   18  N   UNL     1      41.550  -9.827   8.172  1.00  0.00    -0.233 NA
HETATM   19  C   UNL     1      41.099  -8.710  11.675  1.00  0.00     0.103 A 
HETATM   20  C   UNL     1      42.217  -7.866  11.853  1.00  0.00     0.102 A 
BRANCH  19  21
HETATM   21  O   UNL     1      40.240  -8.803  12.743  1.00  0.00    -0.353 OA
HETATM   22  C   UNL     1      39.968 -10.098  13.260  1.00  0.00     0.210 C 
ENDBRANCH  19  21
BRANCH  20  23
HETATM   23  O   UNL     1      42.317  -7.249  13.074  1.00  0.00    -0.353 OA
HETATM   24  C   UNL     1      42.283  -5.829  13.110  1.00  0.00     0.210 C 
ENDBRANCH  20  23
ENDBRANCH   8   9
ENDBRANCH   1   8
BRANCH   5  25
HETATM   25  C   UNL     1      42.159 -14.680   3.618  1.00  0.00     0.116 C 
BRANCH  25  26
HETATM   26  O   UNL     1      43.130 -13.619   3.646  1.00  0.00    -0.380 OA
HETATM   27  H   UNL     1      42.718 -12.873   3.168  1.00  0.00     0.211 HD
ENDBRANCH  25  26
BRANCH  25  28
HETATM   28  C   UNL     1      42.926 -16.013   3.769  1.00  0.00    -0.019 A 
HETATM   29  C   UNL     1      43.043 -16.926   2.705  1.00  0.00     0.010 A 
HETATM   30  C   UNL     1      43.721 -18.141   2.856  1.00  0.00     0.001 A 
HETATM   31  C   UNL     1      44.288 -18.481   4.078  1.00  0.00     0.000 A 
HETATM   32  C   UNL     1      44.177 -17.610   5.153  1.00  0.00     0.001 A 
HETATM   33  C   UNL     1      43.503 -16.394   5.003  1.00  0.00     0.010 A 
ENDBRANCH  25  28
BRANCH  25  34
HETATM   34  C   UNL     1      41.410 -14.563   2.267  1.00  0.00    -0.019 A 
HETATM   35  C   UNL     1      40.463 -15.523   1.856  1.00  0.00     0.010 A 
HETATM   36  C   UNL     1      39.804 -15.422   0.625  1.00  0.00     0.001 A 
HETATM   37  C   UNL     1      40.067 -14.353  -0.223  1.00  0.00     0.000 A 
HETATM   38  C   UNL     1      40.988 -13.384   0.157  1.00  0.00     0.001 A 
HETATM   39  C   UNL     1      41.650 -13.489   1.384  1.00  0.00     0.010 A 
ENDBRANCH  25  34
ENDBRANCH   5  25
TORSDOF 8
ENDMDL
MODEL 8
REMARK VINA RESULT:      -8.8      5.892      9.317
REMARK  8 active torsions:
REMARK  status: ('A' for Active; 'I' for Inactive)
REMARK    1  A    between atoms: O_2  and  C_3 
REMARK    2  A    between atoms: C_4  and  O_5 
REMARK    3  A    between atoms: C_13  and  C_14 
REMARK    4  A    between atoms: C_14  and  N_15 
REMARK    5  A    between atoms: C_19  and  C_20 
REMARK    6  A    between atoms: C_20  and  O_21 
REMARK    7  A    between atoms: C_20  and  C_22 
REMARK    8  A    between atoms: C_20  and  C_28 
ROOT
HETATM    1  N   UNL     1      40.786 -13.442   2.104  1.00  0.00    -0.064 N 
HETATM    2  H   UNL     1      39.854 -13.487   1.673  1.00  0.00     0.280 HD
HETATM    3  C   UNL     1      41.684 -14.293   1.225  1.00  0.00     0.236 C 
HETATM    4  C   UNL     1      41.244 -15.749   1.280  1.00  0.00     0.036 C 
HETATM    5  C   UNL     1      41.215 -16.332   2.713  1.00  0.00     0.033 C 
HETATM    6  C   UNL     1      40.256 -15.430   3.522  1.00  0.00     0.036 C 
HETATM    7  C   UNL     1      40.633 -13.957   3.514  1.00  0.00     0.236 C 
ENDROOT
BRANCH   1   8
HETATM    8  C   UNL     1      41.199 -11.959   2.062  1.00  0.00     0.313 C 
BRANCH   8   9
HETATM    9  C   UNL     1      41.193 -11.366   0.653  1.00  0.00     0.133 A 
HETATM   10  N   UNL     1      40.382 -11.969  -0.271  1.00  0.00    -0.309 N 
HETATM   11  C   UNL     1      40.131 -11.429  -1.507  1.00  0.00     0.259 A 
HETATM   12  H   UNL     1      39.856 -12.811  -0.079  1.00  0.00     0.170 HD
HETATM   13  C   UNL     1      40.886 -10.213  -1.843  1.00  0.00     0.064 A 
HETATM   14  O   UNL     1      39.295 -11.920  -2.252  1.00  0.00    -0.267 OA
HETATM   15  C   UNL     1      41.755  -9.712  -0.872  1.00  0.00     0.077 A 
HETATM   16  C   UNL     1      40.720  -9.582  -3.079  1.00  0.00     0.059 A 
HETATM   17  C   UNL     1      42.485  -8.558  -1.159  1.00  0.00     0.072 A 
HETATM   18  N   UNL     1      41.878 -10.298   0.402  1.00  0.00    -0.233 NA
HETATM   19  C   UNL     1      42.343  -7.913  -2.393  1.00  0.00     0.103 A 
HETATM   20  C   UNL     1      41.443  -8.421  -3.356  1.00  0.00     0.102 A 
BRANCH  19  21
HETATM   21  O   UNL     1      43.010  -6.764  -2.742  1.00  0.00    -0.353 OA
HETATM   22  C   UNL     1      43.930  -6.226  -1.802  1.00  0.00     0.210 C 
ENDBRANCH  19  21
BRANCH  20  23
HETATM   23  O   UNL     1      41.352  -7.713  -4.527  1.00  0.00    -0.353 OA
HETATM   24  C   UNL     1      40.203  -7.911  -5.340  1.00  0.00     0.210 C 
ENDBRANCH  20  23
ENDBRANCH   8   9
ENDBRANCH   1   8
BRANCH   5  25
HETATM   25  C   UNL     1      42.647 -16.538   3.368  1.00  0.00     0.116 C 
BRANCH  25  26
HETATM   26  O   UNL     1      43.566 -15.754   2.586  1.00  0.00    -0.380 OA
HETATM   27  H   UNL     1      44.362 -16.311   2.479  1.00  0.00     0.211 HD
ENDBRANCH  25  26
BRANCH  25  28
HETATM   28  C   UNL     1      42.675 -15.983   4.810  1.00  0.00    -0.019 A 
HETATM   29  C   UNL     1      43.486 -14.891   5.167  1.00  0.00     0.010 A 
HETATM   30  C   UNL     1      43.523 -14.407   6.480  1.00  0.00     0.001 A 
HETATM   31  C   UNL     1      42.759 -15.010   7.472  1.00  0.00     0.000 A 
HETATM   32  C   UNL     1      41.958 -16.099   7.155  1.00  0.00     0.001 A 
HETATM   33  C   UNL     1      41.919 -16.582   5.844  1.00  0.00     0.010 A 
ENDBRANCH  25  28
BRANCH  25  34
HETATM   34  C   UNL     1      43.126 -18.008   3.275  1.00  0.00    -0.019 A 
HETATM   35  C   UNL     1      42.826 -18.819   2.161  1.00  0.00     0.010 A 
HETATM   36  C   UNL     1      43.245 -20.153   2.092  1.00  0.00     0.001 A 
HETATM   37  C   UNL     1      43.982 -20.709   3.130  1.00  0.00     0.000 A 
HETATM   38  C   UNL     1      44.303 -19.933   4.238  1.00  0.00     0.001 A 
HETATM   39  C   UNL     1      43.880 -18.603   4.309  1.00  0.00     0.010 A 
ENDBRANCH  25  34
ENDBRANCH   5  25
TORSDOF 8
ENDMDL
MODEL 9
REMARK VINA RESULT:      -8.8      1.813      2.643
REMARK  8 active torsions:
REMARK  status: ('A' for Active; 'I' for Inactive)
REMARK    1  A    between atoms: O_2  and  C_3 
REMARK    2  A    between atoms: C_4  and  O_5 
REMARK    3  A    between atoms: C_13  and  C_14 
REMARK    4  A    between atoms: C_14  and  N_15 
REMARK    5  A    between atoms: C_19  and  C_20 
REMARK    6  A    between atoms: C_20  and  O_21 
REMARK    7  A    between atoms: C_20  and  C_22 
REMARK    8  A    between atoms: C_20  and  C_28 
ROOT
HETATM    1  N   UNL     1      42.107 -11.152   6.730  1.00  0.00    -0.064 N 
HETATM    2  H   UNL     1      41.454 -11.300   7.509  1.00  0.00     0.280 HD
HETATM    3  C   UNL     1      41.253 -10.695   5.561  1.00  0.00     0.236 C 
HETATM    4  C   UNL     1      40.308 -11.809   5.136  1.00  0.00     0.036 C 
HETATM    5  C   UNL     1      41.030 -13.127   4.768  1.00  0.00     0.033 C 
HETATM    6  C   UNL     1      41.842 -13.534   6.019  1.00  0.00     0.036 C 
HETATM    7  C   UNL     1      42.812 -12.467   6.504  1.00  0.00     0.236 C 
ENDROOT
BRANCH   1   8
HETATM    8  C   UNL     1      43.070 -10.043   7.192  1.00  0.00     0.313 C 
BRANCH   8   9
HETATM    9  C   UNL     1      42.967  -9.732   8.685  1.00  0.00     0.133 A 
HETATM   10  N   UNL     1      43.442 -10.680   9.551  1.00  0.00    -0.309 N 
HETATM   11  C   UNL     1      43.592 -10.453  10.895  1.00  0.00     0.259 A 
HETATM   12  H   UNL     1      43.785 -11.582   9.249  1.00  0.00     0.170 HD
HETATM   13  C   UNL     1      43.092  -9.161  11.389  1.00  0.00     0.064 A 
HETATM   14  O   UNL     1      44.149 -11.270  11.615  1.00  0.00    -0.267 OA
HETATM   15  C   UNL     1      42.546  -8.287  10.449  1.00  0.00     0.077 A 
HETATM   16  C   UNL     1      43.182  -8.825  12.743  1.00  0.00     0.059 A 
HETATM   17  C   UNL     1      42.064  -7.051  10.884  1.00  0.00     0.072 A 
HETATM   18  N   UNL     1      42.515  -8.583   9.073  1.00  0.00    -0.233 NA
HETATM   19  C   UNL     1      42.134  -6.696  12.237  1.00  0.00     0.103 A 
HETATM   20  C   UNL     1      42.711  -7.583  13.172  1.00  0.00     0.102 A 
BRANCH  19  21
HETATM   21  O   UNL     1      41.701  -5.493  12.739  1.00  0.00    -0.353 OA
HETATM   22  C   UNL     1      42.342  -4.314  12.271  1.00  0.00     0.210 C 
ENDBRANCH  19  21
BRANCH  20  23
HETATM   23  O   UNL     1      42.757  -7.144  14.469  1.00  0.00    -0.353 OA
HETATM   24  C   UNL     1      41.834  -7.699  15.396  1.00  0.00     0.210 C 
ENDBRANCH  20  23
ENDBRANCH   8   9
ENDBRANCH   1   8
BRANCH   5  25
HETATM   25  C   UNL     1      41.870 -13.062   3.422  1.00  0.00     0.116 C 
BRANCH  25  26
HETATM   26  O   UNL     1      43.101 -12.391   3.745  1.00  0.00    -0.380 OA
HETATM   27  H   UNL     1      43.307 -12.649   4.665  1.00  0.00     0.211 HD
ENDBRANCH  25  26
BRANCH  25  28
HETATM   28  C   UNL     1      42.232 -14.483   2.933  1.00  0.00    -0.019 A 
HETATM   29  C   UNL     1      43.242 -14.702   1.979  1.00  0.00     0.010 A 
HETATM   30  C   UNL     1      43.550 -15.990   1.525  1.00  0.00     0.001 A 
HETATM   31  C   UNL     1      42.848 -17.089   2.003  1.00  0.00     0.000 A 
HETATM   32  C   UNL     1      41.835 -16.906   2.935  1.00  0.00     0.001 A 
HETATM   33  C   UNL     1      41.529 -15.620   3.391  1.00  0.00     0.010 A 
ENDBRANCH  25  28
BRANCH  25  34
HETATM   34  C   UNL     1      41.169 -12.208   2.337  1.00  0.00    -0.019 A 
HETATM   35  C   UNL     1      41.724 -11.000   1.868  1.00  0.00     0.010 A 
HETATM   36  C   UNL     1      41.075 -10.222   0.901  1.00  0.00     0.001 A 
HETATM   37  C   UNL     1      39.861 -10.637   0.369  1.00  0.00     0.000 A 
HETATM   38  C   UNL     1      39.292 -11.829   0.803  1.00  0.00     0.001 A 
HETATM   39  C   UNL     1      39.936 -12.602   1.773  1.00  0.00     0.010 A 
ENDBRANCH  25  34
ENDBRANCH   5  25
TORSDOF 8
ENDMDL
MODEL 10
REMARK VINA RESULT:      -8.7      5.860     10.739
REMARK  8 active torsions:
REMARK  status: ('A' for Active; 'I' for Inactive)
REMARK    1  A    between atoms: O_2  and  C_3 
REMARK    2  A    between atoms: C_4  and  O_5 
REMARK    3  A    between atoms: C_13  and  C_14 
REMARK    4  A    between atoms: C_14  and  N_15 
REMARK    5  A    between atoms: C_19  and  C_20 
REMARK    6  A    between atoms: C_20  and  O_21 
REMARK    7  A    between atoms: C_20  and  C_22 
REMARK    8  A    between atoms: C_20  and  C_28 
ROOT
HETATM    1  N   UNL     1      39.438 -14.617   0.351  1.00  0.00    -0.064 N 
HETATM    2  H   UNL     1      38.442 -14.624   0.601  1.00  0.00     0.280 HD
HETATM    3  C   UNL     1      40.007 -15.912   0.902  1.00  0.00     0.236 C 
HETATM    4  C   UNL     1      39.935 -15.910   2.422  1.00  0.00     0.036 C 
HETATM    5  C   UNL     1      40.657 -14.706   3.074  1.00  0.00     0.033 C 
HETATM    6  C   UNL     1      39.994 -13.440   2.485  1.00  0.00     0.036 C 
HETATM    7  C   UNL     1      40.028 -13.371   0.965  1.00  0.00     0.236 C 
ENDROOT
BRANCH   1   8
HETATM    8  C   UNL     1      39.486 -14.591  -1.188  1.00  0.00     0.313 C 
BRANCH   8   9
HETATM    9  C   UNL     1      39.156 -13.221  -1.783  1.00  0.00     0.133 A 
HETATM   10  N   UNL     1      40.209 -12.473  -2.240  1.00  0.00    -0.309 N 
HETATM   11  C   UNL     1      40.044 -11.323  -2.969  1.00  0.00     0.259 A 
HETATM   12  H   UNL     1      41.174 -12.756  -2.135  1.00  0.00     0.170 HD
HETATM   13  C   UNL     1      38.658 -10.859  -3.133  1.00  0.00     0.064 A 
HETATM   14  O   UNL     1      41.000 -10.757  -3.478  1.00  0.00    -0.267 OA
HETATM   15  C   UNL     1      37.652 -11.640  -2.564  1.00  0.00     0.077 A 
HETATM   16  C   UNL     1      38.371  -9.693  -3.848  1.00  0.00     0.059 A 
HETATM   17  C   UNL     1      36.325 -11.228  -2.704  1.00  0.00     0.072 A 
HETATM   18  N   UNL     1      37.922 -12.853  -1.903  1.00  0.00    -0.233 NA
HETATM   19  C   UNL     1      36.013 -10.059  -3.407  1.00  0.00     0.103 A 
HETATM   20  C   UNL     1      37.042  -9.292  -3.997  1.00  0.00     0.102 A 
BRANCH  19  21
HETATM   21  O   UNL     1      34.734  -9.599  -3.605  1.00  0.00    -0.353 OA
HETATM   22  C   UNL     1      33.749 -10.543  -4.006  1.00  0.00     0.210 C 
ENDBRANCH  19  21
BRANCH  20  23
HETATM   23  O   UNL     1      36.642  -8.176  -4.684  1.00  0.00    -0.353 OA
HETATM   24  C   UNL     1      36.873  -8.136  -6.086  1.00  0.00     0.210 C 
ENDBRANCH  20  23
ENDBRANCH   8   9
ENDBRANCH   1   8
BRANCH   5  25
HETATM   25  C   UNL     1      42.239 -14.746   2.955  1.00  0.00     0.116 C 
BRANCH  25  26
HETATM   26  O   UNL     1      42.547 -14.523   1.567  1.00  0.00    -0.380 OA
HETATM   27  H   UNL     1      42.788 -15.399   1.207  1.00  0.00     0.211 HD
ENDBRANCH  25  26
BRANCH  25  28
HETATM   28  C   UNL     1      42.879 -13.593   3.761  1.00  0.00    -0.019 A 
HETATM   29  C   UNL     1      43.594 -12.557   3.133  1.00  0.00     0.010 A 
HETATM   30  C   UNL     1      44.188 -11.528   3.871  1.00  0.00     0.001 A 
HETATM   31  C   UNL     1      44.095 -11.514   5.257  1.00  0.00     0.000 A 
HETATM   32  C   UNL     1      43.409 -12.529   5.910  1.00  0.00     0.001 A 
HETATM   33  C   UNL     1      42.812 -13.557   5.173  1.00  0.00     0.010 A 
ENDBRANCH  25  28
BRANCH  25  34
HETATM   34  C   UNL     1      42.818 -16.135   3.321  1.00  0.00    -0.019 A 
HETATM   35  C   UNL     1      42.979 -16.544   4.661  1.00  0.00     0.010 A 
HETATM   36  C   UNL     1      43.522 -17.792   4.986  1.00  0.00     0.001 A 
HETATM   37  C   UNL     1      43.908 -18.670   3.981  1.00  0.00     0.000 A 
HETATM   38  C   UNL     1      43.753 -18.302   2.650  1.00  0.00     0.001 A 
HETATM   39  C   UNL     1      43.217 -17.052   2.325  1.00  0.00     0.010 A 
ENDBRANCH  25  34
ENDBRANCH   5  25
TORSDOF 8
ENDMDL
