MODEL 1
REMARK VINA RESULT:      -8.9      0.000      0.000
REMARK  11 active torsions:
REMARK  status: ('A' for Active; 'I' for Inactive)
REMARK    1  A    between atoms: C_2  and  O_3 
REMARK    2  A    between atoms: C_2  and  C_4 
REMARK    3  A    between atoms: C_8  and  C_9 
REMARK    4  A    between atoms: C_12  and  C_13 
REMARK    5  A    between atoms: C_13  and  C_14 
REMARK    6  A    between atoms: C_14  and  N_15 
REMARK    7  A    between atoms: C_14  and  C_29 
REMARK       I    between atoms: N_15  and  C_16 
REMARK    8  A    between atoms: C_16  and  C_17 
REMARK    9  A    between atoms: C_21  and  O_22 
REMARK   10  A    between atoms: O_22  and  C_23 
REMARK   11  A    between atoms: C_29  and  N_30 
ROOT
HETATM    1  C   UNL     1      44.481 -18.375   4.428  1.00  0.00     0.114 C 
ENDROOT
BRANCH   1   2
HETATM    2  C   UNL     1      43.828 -18.450   3.022  1.00  0.00     0.065 C 
BRANCH   2   3
HETATM    3  C   UNL     1      43.028 -17.270   2.499  1.00  0.00    -0.056 A 
HETATM    4  C   UNL     1      43.566 -16.174   1.814  1.00  0.00     0.008 A 
HETATM    5  C   UNL     1      42.736 -15.182   1.271  1.00  0.00     0.014 A 
HETATM    6  C   UNL     1      41.348 -15.249   1.417  1.00  0.00    -0.006 A 
HETATM    7  C   UNL     1      40.809 -16.305   2.159  1.00  0.00     0.014 A 
HETATM    8  C   UNL     1      41.637 -17.301   2.690  1.00  0.00     0.008 A 
BRANCH   6   9
HETATM    9  C   UNL     1      40.460 -14.277   0.803  1.00  0.00     0.085 A 
HETATM   10  C   UNL     1      39.836 -13.226   1.442  1.00  0.00     0.130 A 
HETATM   11  N   UNL     1      39.163 -12.543   0.460  1.00  0.00    -0.315 N 
HETATM   12  C   UNL     1      39.399 -13.215  -0.731  1.00  0.00     0.143 A 
HETATM   13  C   UNL     1      38.388 -11.395   0.556  1.00  0.00     0.098 A 
HETATM   14  C   UNL     1      38.785 -12.716  -1.938  1.00  0.00     0.017 A 
HETATM   15  N   UNL     1      40.179 -14.262  -0.544  1.00  0.00    -0.228 NA
HETATM   16  C   UNL     1      38.029 -11.594  -1.821  1.00  0.00     0.015 A 
HETATM   17  C   UNL     1      37.820 -10.903  -0.556  1.00  0.00     0.018 A 
BRANCH  14  18
HETATM   18  C   UNL     1      39.007 -13.439  -3.265  1.00  0.00     0.150 C 
HETATM   19  C   UNL     1      38.247 -14.741  -3.487  1.00  0.00     0.044 C 
BRANCH  18  20
HETATM   20  O   UNL     1      40.401 -13.739  -3.400  1.00  0.00    -0.391 OA
HETATM   21  H   UNL     1      40.690 -13.300  -4.225  1.00  0.00     0.210 HD
ENDBRANCH  18  20
ENDBRANCH  14  18
ENDBRANCH   6   9
ENDBRANCH   2   3
ENDBRANCH   1   2
BRANCH   1  22
HETATM   22  N   UNL     1      44.346 -17.009   4.968  1.00  0.00    -0.350 N 
HETATM   23  C   UNL     1      43.282 -16.507   5.675  1.00  0.00     0.252 C 
HETATM   24  O   UNL     1      42.337 -17.218   6.004  1.00  0.00    -0.268 OA
HETATM   25  H   UNL     1      45.191 -16.445   4.946  1.00  0.00     0.163 HD
BRANCH  23  26
HETATM   26  C   UNL     1      43.276 -15.040   5.958  1.00  0.00     0.033 A 
HETATM   27  C   UNL     1      43.185 -14.158   4.878  1.00  0.00     0.043 A 
HETATM   28  C   UNL     1      43.300 -12.779   5.084  1.00  0.00     0.068 A 
HETATM   29 CL   UNL     1      43.210 -11.749   3.699  1.00  0.00    -0.081 Cl
HETATM   30  C   UNL     1      43.521 -12.260   6.369  1.00  0.00     0.091 A 
HETATM   31  C   UNL     1      43.571 -13.141   7.450  1.00  0.00     0.039 A 
HETATM   32  C   UNL     1      43.462 -14.524   7.247  1.00  0.00     0.020 A 
BRANCH  30  33
HETATM   33  O   UNL     1      43.663 -10.903   6.476  1.00  0.00    -0.345 OA
BRANCH  33  34
HETATM   34  C   UNL     1      44.022 -10.327   7.738  1.00  0.00     0.121 C 
HETATM   35  C   UNL     1      45.517 -10.015   7.796  1.00  0.00     0.040 C 
HETATM   36  C   UNL     1      43.223  -9.031   7.866  1.00  0.00     0.040 C 
ENDBRANCH  33  34
ENDBRANCH  30  33
ENDBRANCH  23  26
ENDBRANCH   1  22
BRANCH   1  37
HETATM   37  C   UNL     1      43.942 -19.523   5.328  1.00  0.00     0.254 C 
BRANCH  37  38
HETATM   38  N   UNL     1      44.485 -20.843   4.908  1.00  0.00    -0.077 N 
HETATM   39  H   UNL     1      45.119 -21.267   5.592  1.00  0.00     0.274 HD
HETATM   40  H   UNL     1      43.693 -21.514   4.804  1.00  0.00     0.274 HD
HETATM   41  H   UNL     1      44.953 -20.811   3.995  1.00  0.00     0.274 HD
ENDBRANCH  37  38
ENDBRANCH   1  37
TORSDOF 11
ENDMDL
MODEL 2
REMARK VINA RESULT:      -8.8      3.015      9.194
REMARK  11 active torsions:
REMARK  status: ('A' for Active; 'I' for Inactive)
REMARK    1  A    between atoms: C_2  and  O_3 
REMARK    2  A    between atoms: C_2  and  C_4 
REMARK    3  A    between atoms: C_8  and  C_9 
REMARK    4  A    between atoms: C_12  and  C_13 
REMARK    5  A    between atoms: C_13  and  C_14 
REMARK    6  A    between atoms: C_14  and  N_15 
REMARK    7  A    between atoms: C_14  and  C_29 
REMARK       I    between atoms: N_15  and  C_16 
REMARK    8  A    between atoms: C_16  and  C_17 
REMARK    9  A    between atoms: C_21  and  O_22 
REMARK   10  A    between atoms: O_22  and  C_23 
REMARK   11  A    between atoms: C_29  and  N_30 
ROOT
HETATM    1  C   UNL     1      42.052 -17.085   2.546  1.00  0.00     0.114 C 
ENDROOT
BRANCH   1   2
HETATM    2  C   UNL     1      41.725 -16.713   4.017  1.00  0.00     0.065 C 
BRANCH   2   3
HETATM    3  C   UNL     1      42.419 -15.529   4.666  1.00  0.00    -0.056 A 
HETATM    4  C   UNL     1      42.215 -14.188   4.319  1.00  0.00     0.008 A 
HETATM    5  C   UNL     1      42.819 -13.152   5.048  1.00  0.00     0.014 A 
HETATM    6  C   UNL     1      43.658 -13.431   6.129  1.00  0.00    -0.006 A 
HETATM    7  C   UNL     1      43.921 -14.769   6.437  1.00  0.00     0.014 A 
HETATM    8  C   UNL     1      43.309 -15.803   5.718  1.00  0.00     0.008 A 
BRANCH   6   9
HETATM    9  C   UNL     1      44.237 -12.379   6.947  1.00  0.00     0.085 A 
HETATM   10  C   UNL     1      45.265 -11.534   6.580  1.00  0.00     0.130 A 
HETATM   11  N   UNL     1      45.424 -10.668   7.633  1.00  0.00    -0.315 N 
HETATM   12  C   UNL     1      44.494 -11.030   8.597  1.00  0.00     0.143 A 
HETATM   13  C   UNL     1      46.309  -9.608   7.776  1.00  0.00     0.098 A 
HETATM   14  C   UNL     1      44.456 -10.287   9.833  1.00  0.00     0.017 A 
HETATM   15  N   UNL     1      43.770 -12.059   8.201  1.00  0.00    -0.228 NA
HETATM   16  C   UNL     1      45.332  -9.257   9.954  1.00  0.00     0.015 A 
HETATM   17  C   UNL     1      46.282  -8.892   8.911  1.00  0.00     0.018 A 
BRANCH  14  18
HETATM   18  C   UNL     1      43.458 -10.667  10.924  1.00  0.00     0.150 C 
HETATM   19  C   UNL     1      43.181  -9.633  12.009  1.00  0.00     0.044 C 
BRANCH  18  20
HETATM   20  O   UNL     1      43.922 -11.851  11.583  1.00  0.00    -0.391 OA
HETATM   21  H   UNL     1      44.596 -11.554  12.225  1.00  0.00     0.210 HD
ENDBRANCH  18  20
ENDBRANCH  14  18
ENDBRANCH   6   9
ENDBRANCH   2   3
ENDBRANCH   1   2
BRANCH   1  22
HETATM   22  N   UNL     1      41.709 -15.958   1.659  1.00  0.00    -0.350 N 
HETATM   23  C   UNL     1      40.451 -15.485   1.380  1.00  0.00     0.252 C 
HETATM   24  O   UNL     1      39.457 -15.938   1.941  1.00  0.00    -0.268 OA
HETATM   25  H   UNL     1      42.492 -15.386   1.356  1.00  0.00     0.163 HD
BRANCH  23  26
HETATM   26  C   UNL     1      40.326 -14.457   0.304  1.00  0.00     0.033 A 
HETATM   27  C   UNL     1      39.604 -14.787  -0.846  1.00  0.00     0.043 A 
HETATM   28  C   UNL     1      39.565 -13.903  -1.930  1.00  0.00     0.068 A 
HETATM   29 CL   UNL     1      38.681 -14.390  -3.333  1.00  0.00    -0.081 Cl
HETATM   30  C   UNL     1      40.256 -12.682  -1.888  1.00  0.00     0.091 A 
HETATM   31  C   UNL     1      40.942 -12.339  -0.722  1.00  0.00     0.039 A 
HETATM   32  C   UNL     1      40.989 -13.225   0.364  1.00  0.00     0.020 A 
BRANCH  30  33
HETATM   33  O   UNL     1      40.199 -11.896  -3.006  1.00  0.00    -0.345 OA
BRANCH  33  34
HETATM   34  C   UNL     1      39.818 -10.519  -2.885  1.00  0.00     0.121 C 
HETATM   35  C   UNL     1      40.609  -9.642  -3.854  1.00  0.00     0.040 C 
HETATM   36  C   UNL     1      38.331 -10.449  -3.227  1.00  0.00     0.040 C 
ENDBRANCH  33  34
ENDBRANCH  30  33
ENDBRANCH  23  26
ENDBRANCH   1  22
BRANCH   1  37
HETATM   37  C   UNL     1      43.509 -17.620   2.442  1.00  0.00     0.254 C 
BRANCH  37  38
HETATM   38  N   UNL     1      43.731 -18.772   3.357  1.00  0.00    -0.077 N 
HETATM   39  H   UNL     1      42.987 -19.476   3.325  1.00  0.00     0.274 HD
HETATM   40  H   UNL     1      44.601 -19.269   3.065  1.00  0.00     0.274 HD
HETATM   41  H   UNL     1      43.878 -18.487   4.331  1.00  0.00     0.274 HD
ENDBRANCH  37  38
ENDBRANCH   1  37
TORSDOF 11
ENDMDL
MODEL 3
REMARK VINA RESULT:      -8.8      7.688     13.940
REMARK  11 active torsions:
REMARK  status: ('A' for Active; 'I' for Inactive)
REMARK    1  A    between atoms: C_2  and  O_3 
REMARK    2  A    between atoms: C_2  and  C_4 
REMARK    3  A    between atoms: C_8  and  C_9 
REMARK    4  A    between atoms: C_12  and  C_13 
REMARK    5  A    between atoms: C_13  and  C_14 
REMARK    6  A    between atoms: C_14  and  N_15 
REMARK    7  A    between atoms: C_14  and  C_29 
REMARK       I    between atoms: N_15  and  C_16 
REMARK    8  A    between atoms: C_16  and  C_17 
REMARK    9  A    between atoms: C_21  and  O_22 
REMARK   10  A    between atoms: O_22  and  C_23 
REMARK   11  A    between atoms: C_29  and  N_30 
ROOT
HETATM    1  C   UNL     1      43.345  -9.873   9.341  1.00  0.00     0.114 C 
ENDROOT
BRANCH   1   2
HETATM    2  C   UNL     1      43.526 -10.409  10.786  1.00  0.00     0.065 C 
BRANCH   2   3
HETATM    3  C   UNL     1      42.959  -9.626  11.956  1.00  0.00    -0.056 A 
HETATM    4  C   UNL     1      41.852 -10.013  12.722  1.00  0.00     0.008 A 
HETATM    5  C   UNL     1      41.465  -9.281  13.855  1.00  0.00     0.014 A 
HETATM    6  C   UNL     1      42.162  -8.133  14.239  1.00  0.00    -0.006 A 
HETATM    7  C   UNL     1      43.225  -7.703  13.440  1.00  0.00     0.014 A 
HETATM    8  C   UNL     1      43.619  -8.440  12.316  1.00  0.00     0.008 A 
BRANCH   6   9
HETATM    9  C   UNL     1      41.830  -7.399  15.448  1.00  0.00     0.085 A 
HETATM   10  C   UNL     1      41.993  -6.043  15.648  1.00  0.00     0.130 A 
HETATM   11  N   UNL     1      41.482  -5.790  16.897  1.00  0.00    -0.315 N 
HETATM   12  C   UNL     1      41.041  -7.004  17.405  1.00  0.00     0.143 A 
HETATM   13  C   UNL     1      41.382  -4.586  17.581  1.00  0.00     0.098 A 
HETATM   14  C   UNL     1      40.469  -7.030  18.730  1.00  0.00     0.017 A 
HETATM   15  N   UNL     1      41.242  -7.984  16.545  1.00  0.00    -0.228 NA
HETATM   16  C   UNL     1      40.383  -5.843  19.382  1.00  0.00     0.015 A 
HETATM   17  C   UNL     1      40.838  -4.584  18.809  1.00  0.00     0.018 A 
BRANCH  14  18
HETATM   18  C   UNL     1      39.988  -8.350  19.329  1.00  0.00     0.150 C 
HETATM   19  C   UNL     1      39.335  -8.295  20.706  1.00  0.00     0.044 C 
BRANCH  18  20
HETATM   20  O   UNL     1      41.101  -9.245  19.428  1.00  0.00    -0.391 OA
HETATM   21  H   UNL     1      41.751  -8.939  18.766  1.00  0.00     0.210 HD
ENDBRANCH  18  20
ENDBRANCH  14  18
ENDBRANCH   6   9
ENDBRANCH   2   3
ENDBRANCH   1   2
BRANCH   1  22
HETATM   22  N   UNL     1      43.245 -11.004   8.398  1.00  0.00    -0.350 N 
HETATM   23  C   UNL     1      44.248 -11.501   7.604  1.00  0.00     0.252 C 
HETATM   24  O   UNL     1      45.396 -11.071   7.675  1.00  0.00    -0.268 OA
HETATM   25  H   UNL     1      42.397 -11.558   8.469  1.00  0.00     0.163 HD
BRANCH  23  26
HETATM   26  C   UNL     1      43.873 -12.527   6.586  1.00  0.00     0.033 A 
HETATM   27  C   UNL     1      43.647 -12.105   5.273  1.00  0.00     0.043 A 
HETATM   28  C   UNL     1      43.174 -13.009   4.315  1.00  0.00     0.068 A 
HETATM   29 CL   UNL     1      42.885 -12.411   2.719  1.00  0.00    -0.081 Cl
HETATM   30  C   UNL     1      42.907 -14.344   4.655  1.00  0.00     0.091 A 
HETATM   31  C   UNL     1      43.173 -14.771   5.957  1.00  0.00     0.039 A 
HETATM   32  C   UNL     1      43.640 -13.867   6.922  1.00  0.00     0.020 A 
BRANCH  30  33
HETATM   33  O   UNL     1      42.407 -15.150   3.669  1.00  0.00    -0.345 OA
BRANCH  33  34
HETATM   34  C   UNL     1      43.292 -16.019   2.950  1.00  0.00     0.121 C 
HETATM   35  C   UNL     1      43.086 -17.476   3.361  1.00  0.00     0.040 C 
HETATM   36  C   UNL     1      42.956 -15.852   1.469  1.00  0.00     0.040 C 
ENDBRANCH  33  34
ENDBRANCH  30  33
ENDBRANCH  23  26
ENDBRANCH   1  22
BRANCH   1  37
HETATM   37  C   UNL     1      42.182  -8.841   9.297  1.00  0.00     0.254 C 
BRANCH  37  38
HETATM   38  N   UNL     1      40.876  -9.504   9.034  1.00  0.00    -0.077 N 
HETATM   39  H   UNL     1      40.677  -9.646   8.039  1.00  0.00     0.274 HD
HETATM   40  H   UNL     1      40.894 -10.458   9.457  1.00  0.00     0.274 HD
HETATM   41  H   UNL     1      40.085  -9.015   9.467  1.00  0.00     0.274 HD
ENDBRANCH  37  38
ENDBRANCH   1  37
TORSDOF 11
ENDMDL
MODEL 4
REMARK VINA RESULT:      -8.7      2.973      8.773
REMARK  11 active torsions:
REMARK  status: ('A' for Active; 'I' for Inactive)
REMARK    1  A    between atoms: C_2  and  O_3 
REMARK    2  A    between atoms: C_2  and  C_4 
REMARK    3  A    between atoms: C_8  and  C_9 
REMARK    4  A    between atoms: C_12  and  C_13 
REMARK    5  A    between atoms: C_13  and  C_14 
REMARK    6  A    between atoms: C_14  and  N_15 
REMARK    7  A    between atoms: C_14  and  C_29 
REMARK       I    between atoms: N_15  and  C_16 
REMARK    8  A    between atoms: C_16  and  C_17 
REMARK    9  A    between atoms: C_21  and  O_22 
REMARK   10  A    between atoms: O_22  and  C_23 
REMARK   11  A    between atoms: C_29  and  N_30 
ROOT
HETATM    1  C   UNL     1      40.703 -13.347  -0.094  1.00  0.00     0.114 C 
ENDROOT
BRANCH   1   2
HETATM    2  C   UNL     1      39.950 -12.397   0.874  1.00  0.00     0.065 C 
BRANCH   2   3
HETATM    3  C   UNL     1      40.597 -11.992   2.186  1.00  0.00    -0.056 A 
HETATM    4  C   UNL     1      40.186 -12.424   3.453  1.00  0.00     0.008 A 
HETATM    5  C   UNL     1      40.911 -12.084   4.604  1.00  0.00     0.014 A 
HETATM    6  C   UNL     1      42.056 -11.288   4.521  1.00  0.00    -0.006 A 
HETATM    7  C   UNL     1      42.433 -10.797   3.268  1.00  0.00     0.014 A 
HETATM    8  C   UNL     1      41.715 -11.145   2.117  1.00  0.00     0.008 A 
BRANCH   6   9
HETATM    9  C   UNL     1      42.869 -10.982   5.686  1.00  0.00     0.085 A 
HETATM   10  C   UNL     1      44.198 -11.307   5.859  1.00  0.00     0.130 A 
HETATM   11  N   UNL     1      44.559 -10.759   7.065  1.00  0.00    -0.315 N 
HETATM   12  C   UNL     1      43.430 -10.135   7.577  1.00  0.00     0.143 A 
HETATM   13  C   UNL     1      45.789 -10.775   7.709  1.00  0.00     0.098 A 
HETATM   14  C   UNL     1      43.524  -9.486   8.862  1.00  0.00     0.017 A 
HETATM   15  N   UNL     1      42.402 -10.258   6.759  1.00  0.00    -0.228 NA
HETATM   16  C   UNL     1      44.735  -9.515   9.475  1.00  0.00     0.015 A 
HETATM   17  C   UNL     1      45.904 -10.164   8.898  1.00  0.00     0.018 A 
BRANCH  14  18
HETATM   18  C   UNL     1      42.298  -8.803   9.466  1.00  0.00     0.150 C 
HETATM   19  C   UNL     1      42.490  -8.057  10.781  1.00  0.00     0.044 C 
BRANCH  18  20
HETATM   20  O   UNL     1      41.282  -9.787   9.686  1.00  0.00    -0.391 OA
HETATM   21  H   UNL     1      41.505 -10.538   9.102  1.00  0.00     0.210 HD
ENDBRANCH  18  20
ENDBRANCH  14  18
ENDBRANCH   6   9
ENDBRANCH   2   3
ENDBRANCH   1   2
BRANCH   1  22
HETATM   22  N   UNL     1      41.483 -14.332   0.680  1.00  0.00    -0.350 N 
HETATM   23  C   UNL     1      40.986 -15.386   1.405  1.00  0.00     0.252 C 
HETATM   24  O   UNL     1      39.789 -15.657   1.404  1.00  0.00    -0.268 OA
HETATM   25  H   UNL     1      42.487 -14.313   0.525  1.00  0.00     0.163 HD
BRANCH  23  26
HETATM   26  C   UNL     1      41.946 -16.140   2.267  1.00  0.00     0.033 A 
HETATM   27  C   UNL     1      42.351 -17.410   1.850  1.00  0.00     0.043 A 
HETATM   28  C   UNL     1      43.150 -18.201   2.683  1.00  0.00     0.068 A 
HETATM   29 CL   UNL     1      43.586 -19.776   2.119  1.00  0.00    -0.081 Cl
HETATM   30  C   UNL     1      43.545 -17.743   3.949  1.00  0.00     0.091 A 
HETATM   31  C   UNL     1      43.172 -16.457   4.344  1.00  0.00     0.039 A 
HETATM   32  C   UNL     1      42.367 -15.663   3.515  1.00  0.00     0.020 A 
BRANCH  30  33
HETATM   33  O   UNL     1      44.290 -18.596   4.716  1.00  0.00    -0.345 OA
BRANCH  33  34
HETATM   34  C   UNL     1      43.636 -19.635   5.456  1.00  0.00     0.121 C 
HETATM   35  C   UNL     1      44.453 -20.926   5.433  1.00  0.00     0.040 C 
HETATM   36  C   UNL     1      43.515 -19.132   6.894  1.00  0.00     0.040 C 
ENDBRANCH  33  34
ENDBRANCH  30  33
ENDBRANCH  23  26
ENDBRANCH   1  22
BRANCH   1  37
HETATM   37  C   UNL     1      39.715 -13.930  -1.145  1.00  0.00     0.254 C 
BRANCH  37  38
HETATM   38  N   UNL     1      38.389 -13.259  -1.074  1.00  0.00    -0.077 N 
HETATM   39  H   UNL     1      38.344 -12.502  -0.386  1.00  0.00     0.274 HD
HETATM   40  H   UNL     1      38.189 -12.814  -1.997  1.00  0.00     0.274 HD
HETATM   41  H   UNL     1      37.619 -13.914  -0.901  1.00  0.00     0.274 HD
ENDBRANCH  37  38
ENDBRANCH   1  37
TORSDOF 11
ENDMDL
MODEL 5
REMARK VINA RESULT:      -8.7      7.410     13.673
REMARK  11 active torsions:
REMARK  status: ('A' for Active; 'I' for Inactive)
REMARK    1  A    between atoms: C_2  and  O_3 
REMARK    2  A    between atoms: C_2  and  C_4 
REMARK    3  A    between atoms: C_8  and  C_9 
REMARK    4  A    between atoms: C_12  and  C_13 
REMARK    5  A    between atoms: C_13  and  C_14 
REMARK    6  A    between atoms: C_14  and  N_15 
REMARK    7  A    between atoms: C_14  and  C_29 
REMARK       I    between atoms: N_15  and  C_16 
REMARK    8  A    between atoms: C_16  and  C_17 
REMARK    9  A    between atoms: C_21  and  O_22 
REMARK   10  A    between atoms: O_22  and  C_23 
REMARK   11  A    between atoms: C_29  and  N_30 
ROOT
HETATM    1  C   UNL     1      43.758 -10.308   9.096  1.00  0.00     0.114 C 
ENDROOT
BRANCH   1   2
HETATM    2  C   UNL     1      43.989 -10.678  10.586  1.00  0.00     0.065 C 
BRANCH   2   3
HETATM    3  C   UNL     1      43.316  -9.864  11.677  1.00  0.00    -0.056 A 
HETATM    4  C   UNL     1      42.228 -10.294  12.446  1.00  0.00     0.008 A 
HETATM    5  C   UNL     1      41.740  -9.518  13.507  1.00  0.00     0.014 A 
HETATM    6  C   UNL     1      42.314  -8.282  13.814  1.00  0.00    -0.006 A 
HETATM    7  C   UNL     1      43.357  -7.816  13.008  1.00  0.00     0.014 A 
HETATM    8  C   UNL     1      43.852  -8.596  11.956  1.00  0.00     0.008 A 
BRANCH   6   9
HETATM    9  C   UNL     1      41.879  -7.491  14.953  1.00  0.00     0.085 A 
HETATM   10  C   UNL     1      41.855  -6.114  15.026  1.00  0.00     0.130 A 
HETATM   11  N   UNL     1      41.307  -5.819  16.250  1.00  0.00    -0.315 N 
HETATM   12  C   UNL     1      41.033  -7.029  16.871  1.00  0.00     0.143 A 
HETATM   13  C   UNL     1      41.040  -4.582  16.821  1.00  0.00     0.098 A 
HETATM   14  C   UNL     1      40.463  -7.011  18.197  1.00  0.00     0.017 A 
HETATM   15  N   UNL     1      41.371  -8.048  16.104  1.00  0.00    -0.228 NA
HETATM   16  C   UNL     1      40.213  -5.791  18.738  1.00  0.00     0.015 A 
HETATM   17  C   UNL     1      40.495  -4.540  18.047  1.00  0.00     0.018 A 
BRANCH  14  18
HETATM   18  C   UNL     1      40.164  -8.323  18.919  1.00  0.00     0.150 C 
HETATM   19  C   UNL     1      39.454  -8.233  20.265  1.00  0.00     0.044 C 
BRANCH  18  20
HETATM   20  O   UNL     1      41.394  -9.021  19.139  1.00  0.00    -0.391 OA
HETATM   21  H   UNL     1      42.052  -8.593  18.556  1.00  0.00     0.210 HD
ENDBRANCH  18  20
ENDBRANCH  14  18
ENDBRANCH   6   9
ENDBRANCH   2   3
ENDBRANCH   1   2
BRANCH   1  22
HETATM   22  N   UNL     1      43.507 -11.531   8.312  1.00  0.00    -0.350 N 
HETATM   23  C   UNL     1      44.170 -11.932   7.179  1.00  0.00     0.252 C 
HETATM   24  O   UNL     1      45.135 -11.308   6.747  1.00  0.00    -0.268 OA
HETATM   25  H   UNL     1      42.891 -12.211   8.748  1.00  0.00     0.163 HD
BRANCH  23  26
HETATM   26  C   UNL     1      43.621 -13.108   6.440  1.00  0.00     0.033 A 
HETATM   27  C   UNL     1      43.575 -14.340   7.098  1.00  0.00     0.043 A 
HETATM   28  C   UNL     1      43.184 -15.492   6.407  1.00  0.00     0.068 A 
HETATM   29 CL   UNL     1      43.183 -16.987   7.274  1.00  0.00    -0.081 Cl
HETATM   30  C   UNL     1      42.846 -15.435   5.046  1.00  0.00     0.091 A 
HETATM   31  C   UNL     1      42.855 -14.196   4.404  1.00  0.00     0.039 A 
HETATM   32  C   UNL     1      43.251 -13.040   5.091  1.00  0.00     0.020 A 
BRANCH  30  33
HETATM   33  O   UNL     1      42.517 -16.615   4.437  1.00  0.00    -0.345 OA
BRANCH  33  34
HETATM   34  C   UNL     1      43.441 -17.222   3.524  1.00  0.00     0.121 C 
HETATM   35  C   UNL     1      44.185 -18.381   4.185  1.00  0.00     0.040 C 
HETATM   36  C   UNL     1      42.612 -17.746   2.353  1.00  0.00     0.040 C 
ENDBRANCH  33  34
ENDBRANCH  30  33
ENDBRANCH  23  26
ENDBRANCH   1  22
BRANCH   1  37
HETATM   37  C   UNL     1      42.683  -9.189   8.985  1.00  0.00     0.254 C 
BRANCH  37  38
HETATM   38  N   UNL     1      41.391  -9.727   8.480  1.00  0.00    -0.077 N 
HETATM   39  H   UNL     1      40.682  -9.854   9.208  1.00  0.00     0.274 HD
HETATM   40  H   UNL     1      40.983  -9.041   7.807  1.00  0.00     0.274 HD
HETATM   41  H   UNL     1      41.499 -10.605   7.962  1.00  0.00     0.274 HD
ENDBRANCH  37  38
ENDBRANCH   1  37
TORSDOF 11
ENDMDL
MODEL 6
REMARK VINA RESULT:      -8.3      2.656      5.821
REMARK  11 active torsions:
REMARK  status: ('A' for Active; 'I' for Inactive)
REMARK    1  A    between atoms: C_2  and  O_3 
REMARK    2  A    between atoms: C_2  and  C_4 
REMARK    3  A    between atoms: C_8  and  C_9 
REMARK    4  A    between atoms: C_12  and  C_13 
REMARK    5  A    between atoms: C_13  and  C_14 
REMARK    6  A    between atoms: C_14  and  N_15 
REMARK    7  A    between atoms: C_14  and  C_29 
REMARK       I    between atoms: N_15  and  C_16 
REMARK    8  A    between atoms: C_16  and  C_17 
REMARK    9  A    between atoms: C_21  and  O_22 
REMARK   10  A    between atoms: O_22  and  C_23 
REMARK   11  A    between atoms: C_29  and  N_30 
ROOT
HETATM    1  C   UNL     1      42.540 -11.308   6.413  1.00  0.00     0.114 C 
ENDROOT
BRANCH   1   2
HETATM    2  C   UNL     1      41.990 -10.443   5.248  1.00  0.00     0.065 C 
BRANCH   2   3
HETATM    3  C   UNL     1      41.325 -11.113   4.060  1.00  0.00    -0.056 A 
HETATM    4  C   UNL     1      39.973 -11.471   3.990  1.00  0.00     0.008 A 
HETATM    5  C   UNL     1      39.421 -11.989   2.809  1.00  0.00     0.014 A 
HETATM    6  C   UNL     1      40.211 -12.180   1.673  1.00  0.00    -0.006 A 
HETATM    7  C   UNL     1      41.575 -11.889   1.756  1.00  0.00     0.014 A 
HETATM    8  C   UNL     1      42.124 -11.361   2.932  1.00  0.00     0.008 A 
BRANCH   6   9
HETATM    9  C   UNL     1      39.651 -12.643   0.414  1.00  0.00     0.085 A 
HETATM   10  C   UNL     1      39.952 -13.829  -0.223  1.00  0.00     0.130 A 
HETATM   11  N   UNL     1      39.139 -13.871  -1.328  1.00  0.00    -0.315 N 
HETATM   12  C   UNL     1      38.387 -12.704  -1.320  1.00  0.00     0.143 A 
HETATM   13  C   UNL     1      39.024 -14.854  -2.303  1.00  0.00     0.098 A 
HETATM   14  C   UNL     1      37.451 -12.478  -2.395  1.00  0.00     0.017 A 
HETATM   15  N   UNL     1      38.682 -11.952  -0.276  1.00  0.00    -0.228 NA
HETATM   16  C   UNL     1      37.358 -13.450  -3.338  1.00  0.00     0.015 A 
HETATM   17  C   UNL     1      38.149 -14.673  -3.303  1.00  0.00     0.018 A 
BRANCH  14  18
HETATM   18  C   UNL     1      36.619 -11.198  -2.428  1.00  0.00     0.150 C 
HETATM   19  C   UNL     1      35.558 -11.083  -3.516  1.00  0.00     0.044 C 
BRANCH  18  20
HETATM   20  O   UNL     1      37.499 -10.079  -2.580  1.00  0.00    -0.391 OA
HETATM   21  H   UNL     1      37.010  -9.426  -3.120  1.00  0.00     0.210 HD
ENDBRANCH  18  20
ENDBRANCH  14  18
ENDBRANCH   6   9
ENDBRANCH   2   3
ENDBRANCH   1   2
BRANCH   1  22
HETATM   22  N   UNL     1      42.988 -12.615   5.894  1.00  0.00    -0.350 N 
HETATM   23  C   UNL     1      42.299 -13.801   5.951  1.00  0.00     0.252 C 
HETATM   24  O   UNL     1      41.155 -13.858   6.392  1.00  0.00    -0.268 OA
HETATM   25  H   UNL     1      43.813 -12.590   5.303  1.00  0.00     0.163 HD
BRANCH  23  26
HETATM   26  C   UNL     1      43.026 -15.038   5.535  1.00  0.00     0.033 A 
HETATM   27  C   UNL     1      42.940 -15.438   4.199  1.00  0.00     0.043 A 
HETATM   28  C   UNL     1      43.501 -16.653   3.792  1.00  0.00     0.068 A 
HETATM   29 CL   UNL     1      43.328 -17.102   2.131  1.00  0.00    -0.081 Cl
HETATM   30  C   UNL     1      44.144 -17.494   4.713  1.00  0.00     0.091 A 
HETATM   31  C   UNL     1      44.263 -17.071   6.038  1.00  0.00     0.039 A 
HETATM   32  C   UNL     1      43.697 -15.857   6.452  1.00  0.00     0.020 A 
BRANCH  30  33
HETATM   33  O   UNL     1      44.628 -18.683   4.239  1.00  0.00    -0.345 OA
BRANCH  33  34
HETATM   34  C   UNL     1      43.791 -19.847   4.265  1.00  0.00     0.121 C 
HETATM   35  C   UNL     1      43.807 -20.566   2.917  1.00  0.00     0.040 C 
HETATM   36  C   UNL     1      44.362 -20.767   5.343  1.00  0.00     0.040 C 
ENDBRANCH  33  34
ENDBRANCH  30  33
ENDBRANCH  23  26
ENDBRANCH   1  22
BRANCH   1  37
HETATM   37  C   UNL     1      43.587 -10.500   7.230  1.00  0.00     0.254 C 
BRANCH  37  38
HETATM   38  N   UNL     1      43.839 -11.122   8.557  1.00  0.00    -0.077 N 
HETATM   39  H   UNL     1      43.456 -12.068   8.651  1.00  0.00     0.274 HD
HETATM   40  H   UNL     1      44.869 -11.220   8.692  1.00  0.00     0.274 HD
HETATM   41  H   UNL     1      43.503 -10.547   9.338  1.00  0.00     0.274 HD
ENDBRANCH  37  38
ENDBRANCH   1  37
TORSDOF 11
ENDMDL
MODEL 7
REMARK VINA RESULT:      -8.3      7.647     13.684
REMARK  11 active torsions:
REMARK  status: ('A' for Active; 'I' for Inactive)
REMARK    1  A    between atoms: C_2  and  O_3 
REMARK    2  A    between atoms: C_2  and  C_4 
REMARK    3  A    between atoms: C_8  and  C_9 
REMARK    4  A    between atoms: C_12  and  C_13 
REMARK    5  A    between atoms: C_13  and  C_14 
REMARK    6  A    between atoms: C_14  and  N_15 
REMARK    7  A    between atoms: C_14  and  C_29 
REMARK       I    between atoms: N_15  and  C_16 
REMARK    8  A    between atoms: C_16  and  C_17 
REMARK    9  A    between atoms: C_21  and  O_22 
REMARK   10  A    between atoms: O_22  and  C_23 
REMARK   11  A    between atoms: C_29  and  N_30 
ROOT
HETATM    1  C   UNL     1      43.373  -9.749   9.603  1.00  0.00     0.114 C 
ENDROOT
BRANCH   1   2
HETATM    2  C   UNL     1      43.330 -10.343  11.036  1.00  0.00     0.065 C 
BRANCH   2   3
HETATM    3  C   UNL     1      43.022  -9.439  12.216  1.00  0.00    -0.056 A 
HETATM    4  C   UNL     1      43.674  -8.231  12.496  1.00  0.00     0.008 A 
HETATM    5  C   UNL     1      43.249  -7.407  13.548  1.00  0.00     0.014 A 
HETATM    6  C   UNL     1      42.175  -7.777  14.361  1.00  0.00    -0.006 A 
HETATM    7  C   UNL     1      41.564  -9.013  14.130  1.00  0.00     0.014 A 
HETATM    8  C   UNL     1      41.980  -9.831  13.072  1.00  0.00     0.008 A 
BRANCH   6   9
HETATM    9  C   UNL     1      41.666  -6.910  15.409  1.00  0.00     0.085 A 
HETATM   10  C   UNL     1      42.230  -6.720  16.654  1.00  0.00     0.130 A 
HETATM   11  N   UNL     1      41.453  -5.770  17.270  1.00  0.00    -0.315 N 
HETATM   12  C   UNL     1      40.446  -5.433  16.378  1.00  0.00     0.143 A 
HETATM   13  C   UNL     1      41.589  -5.201  18.530  1.00  0.00     0.098 A 
HETATM   14  C   UNL     1      39.462  -4.458  16.783  1.00  0.00     0.017 A 
HETATM   15  N   UNL     1      40.558  -6.110  15.250  1.00  0.00    -0.228 NA
HETATM   16  C   UNL     1      39.612  -3.916  18.019  1.00  0.00     0.015 A 
HETATM   17  C   UNL     1      40.695  -4.280  18.922  1.00  0.00     0.018 A 
BRANCH  14  18
HETATM   18  C   UNL     1      38.329  -4.074  15.834  1.00  0.00     0.150 C 
HETATM   19  C   UNL     1      37.285  -3.092  16.354  1.00  0.00     0.044 C 
BRANCH  18  20
HETATM   20  O   UNL     1      37.631  -5.261  15.444  1.00  0.00    -0.391 OA
HETATM   21  H   UNL     1      37.424  -5.150  14.495  1.00  0.00     0.210 HD
ENDBRANCH  18  20
ENDBRANCH  14  18
ENDBRANCH   6   9
ENDBRANCH   2   3
ENDBRANCH   1   2
BRANCH   1  22
HETATM   22  N   UNL     1      43.233 -10.832   8.611  1.00  0.00    -0.350 N 
HETATM   23  C   UNL     1      44.248 -11.470   7.942  1.00  0.00     0.252 C 
HETATM   24  O   UNL     1      45.427 -11.233   8.189  1.00  0.00    -0.268 OA
HETATM   25  H   UNL     1      42.307 -11.243   8.541  1.00  0.00     0.163 HD
BRANCH  23  26
HETATM   26  C   UNL     1      43.865 -12.404   6.841  1.00  0.00     0.033 A 
HETATM   27  C   UNL     1      43.737 -11.886   5.549  1.00  0.00     0.043 A 
HETATM   28  C   UNL     1      43.262 -12.695   4.512  1.00  0.00     0.068 A 
HETATM   29 CL   UNL     1      43.097 -11.981   2.946  1.00  0.00    -0.081 Cl
HETATM   30  C   UNL     1      42.893 -14.029   4.749  1.00  0.00     0.091 A 
HETATM   31  C   UNL     1      43.061 -14.553   6.032  1.00  0.00     0.039 A 
HETATM   32  C   UNL     1      43.531 -13.744   7.076  1.00  0.00     0.020 A 
BRANCH  30  33
HETATM   33  O   UNL     1      42.399 -14.736   3.688  1.00  0.00    -0.345 OA
BRANCH  33  34
HETATM   34  C   UNL     1      43.258 -15.635   2.975  1.00  0.00     0.121 C 
HETATM   35  C   UNL     1      43.096 -17.068   3.478  1.00  0.00     0.040 C 
HETATM   36  C   UNL     1      42.843 -15.558   1.507  1.00  0.00     0.040 C 
ENDBRANCH  33  34
ENDBRANCH  30  33
ENDBRANCH  23  26
ENDBRANCH   1  22
BRANCH   1  37
HETATM   37  C   UNL     1      42.362  -8.574   9.482  1.00  0.00     0.254 C 
BRANCH  37  38
HETATM   38  N   UNL     1      42.972  -7.401   8.800  1.00  0.00    -0.077 N 
HETATM   39  H   UNL     1      43.449  -7.632   7.923  1.00  0.00     0.274 HD
HETATM   40  H   UNL     1      42.214  -6.732   8.540  1.00  0.00     0.274 HD
HETATM   41  H   UNL     1      43.618  -6.879   9.403  1.00  0.00     0.274 HD
ENDBRANCH  37  38
ENDBRANCH   1  37
TORSDOF 11
ENDMDL
MODEL 8
REMARK VINA RESULT:      -8.2      2.888      8.080
REMARK  11 active torsions:
REMARK  status: ('A' for Active; 'I' for Inactive)
REMARK    1  A    between atoms: C_2  and  O_3 
REMARK    2  A    between atoms: C_2  and  C_4 
REMARK    3  A    between atoms: C_8  and  C_9 
REMARK    4  A    between atoms: C_12  and  C_13 
REMARK    5  A    between atoms: C_13  and  C_14 
REMARK    6  A    between atoms: C_14  and  N_15 
REMARK    7  A    between atoms: C_14  and  C_29 
REMARK       I    between atoms: N_15  and  C_16 
REMARK    8  A    between atoms: C_16  and  C_17 
REMARK    9  A    between atoms: C_21  and  O_22 
REMARK   10  A    between atoms: O_22  and  C_23 
REMARK   11  A    between atoms: C_29  and  N_30 
ROOT
HETATM    1  C   UNL     1      40.621 -13.158  -0.649  1.00  0.00     0.114 C 
ENDROOT
BRANCH   1   2
HETATM    2  C   UNL     1      39.558 -12.350   0.143  1.00  0.00     0.065 C 
BRANCH   2   3
HETATM    3  C   UNL     1      39.934 -11.706   1.465  1.00  0.00    -0.056 A 
HETATM    4  C   UNL     1      39.436 -12.089   2.717  1.00  0.00     0.008 A 
HETATM    5  C   UNL     1      39.922 -11.509   3.898  1.00  0.00     0.014 A 
HETATM    6  C   UNL     1      40.904 -10.516   3.857  1.00  0.00    -0.006 A 
HETATM    7  C   UNL     1      41.356 -10.081   2.608  1.00  0.00     0.014 A 
HETATM    8  C   UNL     1      40.880 -10.668   1.430  1.00  0.00     0.008 A 
BRANCH   6   9
HETATM    9  C   UNL     1      41.480  -9.951   5.065  1.00  0.00     0.085 A 
HETATM   10  C   UNL     1      41.096  -8.776   5.677  1.00  0.00     0.130 A 
HETATM   11  N   UNL     1      41.861  -8.684   6.814  1.00  0.00    -0.315 N 
HETATM   12  C   UNL     1      42.683  -9.801   6.837  1.00  0.00     0.143 A 
HETATM   13  C   UNL     1      41.864  -7.705   7.798  1.00  0.00     0.098 A 
HETATM   14  C   UNL     1      43.617  -9.949   7.927  1.00  0.00     0.017 A 
HETATM   15  N   UNL     1      42.467 -10.577   5.791  1.00  0.00    -0.228 NA
HETATM   16  C   UNL     1      43.605  -8.979   8.877  1.00  0.00     0.015 A 
HETATM   17  C   UNL     1      42.712  -7.829   8.831  1.00  0.00     0.018 A 
BRANCH  14  18
HETATM   18  C   UNL     1      44.550 -11.157   7.977  1.00  0.00     0.150 C 
HETATM   19  C   UNL     1      45.623 -11.256   6.899  1.00  0.00     0.044 C 
BRANCH  18  20
HETATM   20  O   UNL     1      43.765 -12.351   7.898  1.00  0.00    -0.391 OA
HETATM   21  H   UNL     1      43.298 -12.309   7.040  1.00  0.00     0.210 HD
ENDBRANCH  18  20
ENDBRANCH  14  18
ENDBRANCH   6   9
ENDBRANCH   2   3
ENDBRANCH   1   2
BRANCH   1  22
HETATM   22  N   UNL     1      41.448 -13.945   0.286  1.00  0.00    -0.350 N 
HETATM   23  C   UNL     1      41.044 -15.027   1.028  1.00  0.00     0.252 C 
HETATM   24  O   UNL     1      39.920 -15.504   0.907  1.00  0.00    -0.268 OA
HETATM   25  H   UNL     1      42.446 -13.758   0.250  1.00  0.00     0.163 HD
BRANCH  23  26
HETATM   26  C   UNL     1      41.997 -15.550   2.053  1.00  0.00     0.033 A 
HETATM   27  C   UNL     1      42.419 -16.878   1.946  1.00  0.00     0.043 A 
HETATM   28  C   UNL     1      43.211 -17.447   2.950  1.00  0.00     0.068 A 
HETATM   29 CL   UNL     1      43.669 -19.104   2.770  1.00  0.00    -0.081 Cl
HETATM   30  C   UNL     1      43.583 -16.704   4.080  1.00  0.00     0.091 A 
HETATM   31  C   UNL     1      43.193 -15.366   4.163  1.00  0.00     0.039 A 
HETATM   32  C   UNL     1      42.394 -14.794   3.163  1.00  0.00     0.020 A 
BRANCH  30  33
HETATM   33  O   UNL     1      44.323 -17.349   5.033  1.00  0.00    -0.345 OA
BRANCH  33  34
HETATM   34  C   UNL     1      43.719 -17.686   6.289  1.00  0.00     0.121 C 
HETATM   35  C   UNL     1      42.385 -16.963   6.471  1.00  0.00     0.040 C 
HETATM   36  C   UNL     1      43.484 -19.195   6.265  1.00  0.00     0.040 C 
ENDBRANCH  33  34
ENDBRANCH  30  33
ENDBRANCH  23  26
ENDBRANCH   1  22
BRANCH   1  37
HETATM   37  C   UNL     1      39.938 -13.955  -1.797  1.00  0.00     0.254 C 
BRANCH  37  38
HETATM   38  N   UNL     1      38.482 -14.127  -1.547  1.00  0.00    -0.077 N 
HETATM   39  H   UNL     1      38.106 -13.495  -0.834  1.00  0.00     0.274 HD
HETATM   40  H   UNL     1      37.963 -13.902  -2.424  1.00  0.00     0.274 HD
HETATM   41  H   UNL     1      38.229 -15.091  -1.305  1.00  0.00     0.274 HD
ENDBRANCH  37  38
ENDBRANCH   1  37
TORSDOF 11
ENDMDL
MODEL 9
REMARK VINA RESULT:      -7.9      3.068      9.248
REMARK  11 active torsions:
REMARK  status: ('A' for Active; 'I' for Inactive)
REMARK    1  A    between atoms: C_2  and  O_3 
REMARK    2  A    between atoms: C_2  and  C_4 
REMARK    3  A    between atoms: C_8  and  C_9 
REMARK    4  A    between atoms: C_12  and  C_13 
REMARK    5  A    between atoms: C_13  and  C_14 
REMARK    6  A    between atoms: C_14  and  N_15 
REMARK    7  A    between atoms: C_14  and  C_29 
REMARK       I    between atoms: N_15  and  C_16 
REMARK    8  A    between atoms: C_16  and  C_17 
REMARK    9  A    between atoms: C_21  and  O_22 
REMARK   10  A    between atoms: O_22  and  C_23 
REMARK   11  A    between atoms: C_29  and  N_30 
ROOT
HETATM    1  C   UNL     1      40.679 -12.390   0.694  1.00  0.00     0.114 C 
ENDROOT
BRANCH   1   2
HETATM    2  C   UNL     1      41.231 -11.060   1.272  1.00  0.00     0.065 C 
BRANCH   2   3
HETATM    3  C   UNL     1      41.767 -11.021   2.691  1.00  0.00    -0.056 A 
HETATM    4  C   UNL     1      43.045 -11.438   3.081  1.00  0.00     0.008 A 
HETATM    5  C   UNL     1      43.494 -11.264   4.399  1.00  0.00     0.014 A 
HETATM    6  C   UNL     1      42.669 -10.685   5.365  1.00  0.00    -0.006 A 
HETATM    7  C   UNL     1      41.367 -10.328   5.000  1.00  0.00     0.014 A 
HETATM    8  C   UNL     1      40.923 -10.491   3.682  1.00  0.00     0.008 A 
BRANCH   6   9
HETATM    9  C   UNL     1      43.132 -10.423   6.717  1.00  0.00     0.085 A 
HETATM   10  C   UNL     1      44.415 -10.608   7.189  1.00  0.00     0.130 A 
HETATM   11  N   UNL     1      44.398 -10.165   8.488  1.00  0.00    -0.315 N 
HETATM   12  C   UNL     1      43.104  -9.741   8.753  1.00  0.00     0.143 A 
HETATM   13  C   UNL     1      45.431 -10.110   9.415  1.00  0.00     0.098 A 
HETATM   14  C   UNL     1      42.798  -9.239  10.071  1.00  0.00     0.017 A 
HETATM   15  N   UNL     1      42.326  -9.889   7.697  1.00  0.00    -0.228 NA
HETATM   16  C   UNL     1      43.821  -9.197  10.962  1.00  0.00     0.015 A 
HETATM   17  C   UNL     1      45.174  -9.632  10.642  1.00  0.00     0.018 A 
BRANCH  14  18
HETATM   18  C   UNL     1      41.380  -8.779  10.404  1.00  0.00     0.150 C 
HETATM   19  C   UNL     1      41.113  -8.316  11.832  1.00  0.00     0.044 C 
BRANCH  18  20
HETATM   20  O   UNL     1      40.471  -9.852  10.135  1.00  0.00    -0.391 OA
HETATM   21  H   UNL     1      39.852  -9.515   9.457  1.00  0.00     0.210 HD
ENDBRANCH  18  20
ENDBRANCH  14  18
ENDBRANCH   6   9
ENDBRANCH   2   3
ENDBRANCH   1   2
BRANCH   1  22
HETATM   22  N   UNL     1      41.422 -13.529   1.267  1.00  0.00    -0.350 N 
HETATM   23  C   UNL     1      41.089 -14.858   1.173  1.00  0.00     0.252 C 
HETATM   24  O   UNL     1      40.135 -15.234   0.498  1.00  0.00    -0.268 OA
HETATM   25  H   UNL     1      42.346 -13.311   1.627  1.00  0.00     0.163 HD
BRANCH  23  26
HETATM   26  C   UNL     1      41.879 -15.823   1.994  1.00  0.00     0.033 A 
HETATM   27  C   UNL     1      41.536 -15.985   3.339  1.00  0.00     0.043 A 
HETATM   28  C   UNL     1      42.324 -16.784   4.174  1.00  0.00     0.068 A 
HETATM   29 CL   UNL     1      41.860 -16.913   5.834  1.00  0.00    -0.081 Cl
HETATM   30  C   UNL     1      43.474 -17.423   3.684  1.00  0.00     0.091 A 
HETATM   31  C   UNL     1      43.790 -17.291   2.331  1.00  0.00     0.039 A 
HETATM   32  C   UNL     1      43.007 -16.487   1.492  1.00  0.00     0.020 A 
BRANCH  30  33
HETATM   33  O   UNL     1      44.210 -18.151   4.579  1.00  0.00    -0.345 OA
BRANCH  33  34
HETATM   34  C   UNL     1      44.356 -19.564   4.390  1.00  0.00     0.121 C 
HETATM   35  C   UNL     1      43.791 -20.339   5.580  1.00  0.00     0.040 C 
HETATM   36  C   UNL     1      43.568 -19.917   3.130  1.00  0.00     0.040 C 
ENDBRANCH  33  34
ENDBRANCH  30  33
ENDBRANCH  23  26
ENDBRANCH   1  22
BRANCH   1  37
HETATM   37  C   UNL     1      39.132 -12.436   0.844  1.00  0.00     0.254 C 
BRANCH  37  38
HETATM   38  N   UNL     1      38.474 -12.837  -0.429  1.00  0.00    -0.077 N 
HETATM   39  H   UNL     1      37.707 -12.219  -0.711  1.00  0.00     0.274 HD
HETATM   40  H   UNL     1      39.176 -12.784  -1.200  1.00  0.00     0.274 HD
HETATM   41  H   UNL     1      38.136 -13.805  -0.417  1.00  0.00     0.274 HD
ENDBRANCH  37  38
ENDBRANCH   1  37
TORSDOF 11
ENDMDL
MODEL 10
REMARK VINA RESULT:      -7.8      2.963      8.173
REMARK  11 active torsions:
REMARK  status: ('A' for Active; 'I' for Inactive)
REMARK    1  A    between atoms: C_2  and  O_3 
REMARK    2  A    between atoms: C_2  and  C_4 
REMARK    3  A    between atoms: C_8  and  C_9 
REMARK    4  A    between atoms: C_12  and  C_13 
REMARK    5  A    between atoms: C_13  and  C_14 
REMARK    6  A    between atoms: C_14  and  N_15 
REMARK    7  A    between atoms: C_14  and  C_29 
REMARK       I    between atoms: N_15  and  C_16 
REMARK    8  A    between atoms: C_16  and  C_17 
REMARK    9  A    between atoms: C_21  and  O_22 
REMARK   10  A    between atoms: O_22  and  C_23 
REMARK   11  A    between atoms: C_29  and  N_30 
ROOT
HETATM    1  C   UNL     1      40.601 -13.021  -0.775  1.00  0.00     0.114 C 
ENDROOT
BRANCH   1   2
HETATM    2  C   UNL     1      39.695 -11.937  -0.132  1.00  0.00     0.065 C 
BRANCH   2   3
HETATM    3  C   UNL     1      39.955 -11.488   1.295  1.00  0.00    -0.056 A 
HETATM    4  C   UNL     1      39.169 -11.830   2.402  1.00  0.00     0.008 A 
HETATM    5  C   UNL     1      39.547 -11.458   3.701  1.00  0.00     0.014 A 
HETATM    6  C   UNL     1      40.711 -10.719   3.924  1.00  0.00    -0.006 A 
HETATM    7  C   UNL     1      41.464 -10.316   2.818  1.00  0.00     0.014 A 
HETATM    8  C   UNL     1      41.093 -10.697   1.522  1.00  0.00     0.008 A 
BRANCH   6   9
HETATM    9  C   UNL     1      41.167 -10.385   5.263  1.00  0.00     0.085 A 
HETATM   10  C   UNL     1      42.479 -10.248   5.666  1.00  0.00     0.130 A 
HETATM   11  N   UNL     1      42.423  -9.860   6.981  1.00  0.00    -0.315 N 
HETATM   12  C   UNL     1      41.080  -9.789   7.323  1.00  0.00     0.143 A 
HETATM   13  C   UNL     1      43.458  -9.568   7.860  1.00  0.00     0.098 A 
HETATM   14  C   UNL     1      40.730  -9.418   8.673  1.00  0.00     0.017 A 
HETATM   15  N   UNL     1      40.308 -10.101   6.300  1.00  0.00    -0.228 NA
HETATM   16  C   UNL     1      41.758  -9.140   9.516  1.00  0.00     0.015 A 
HETATM   17  C   UNL     1      43.157  -9.205   9.116  1.00  0.00     0.018 A 
BRANCH  14  18
HETATM   18  C   UNL     1      39.263  -9.346   9.091  1.00  0.00     0.150 C 
HETATM   19  C   UNL     1      38.873  -8.262  10.089  1.00  0.00     0.044 C 
BRANCH  18  20
HETATM   20  O   UNL     1      38.884 -10.601   9.667  1.00  0.00    -0.391 OA
HETATM   21  H   UNL     1      39.526 -10.771  10.384  1.00  0.00     0.210 HD
ENDBRANCH  18  20
ENDBRANCH  14  18
ENDBRANCH   6   9
ENDBRANCH   2   3
ENDBRANCH   1   2
BRANCH   1  22
HETATM   22  N   UNL     1      41.242 -13.826   0.282  1.00  0.00    -0.350 N 
HETATM   23  C   UNL     1      40.751 -14.976   0.850  1.00  0.00     0.252 C 
HETATM   24  O   UNL     1      39.718 -15.500   0.445  1.00  0.00    -0.268 OA
HETATM   25  H   UNL     1      42.207 -13.587   0.489  1.00  0.00     0.163 HD
BRANCH  23  26
HETATM   26  C   UNL     1      41.476 -15.519   2.037  1.00  0.00     0.033 A 
HETATM   27  C   UNL     1      41.797 -14.641   3.075  1.00  0.00     0.043 A 
HETATM   28  C   UNL     1      42.581 -15.077   4.148  1.00  0.00     0.068 A 
HETATM   29 CL   UNL     1      42.968 -13.929   5.381  1.00  0.00    -0.081 Cl
HETATM   30  C   UNL     1      43.069 -16.392   4.195  1.00  0.00     0.091 A 
HETATM   31  C   UNL     1      42.713 -17.277   3.177  1.00  0.00     0.039 A 
HETATM   32  C   UNL     1      41.932 -16.843   2.097  1.00  0.00     0.020 A 
BRANCH  30  33
HETATM   33  O   UNL     1      43.864 -16.724   5.259  1.00  0.00    -0.345 OA
BRANCH  33  34
HETATM   34  C   UNL     1      43.283 -17.361   6.404  1.00  0.00     0.121 C 
HETATM   35  C   UNL     1      43.532 -18.869   6.381  1.00  0.00     0.040 C 
HETATM   36  C   UNL     1      43.958 -16.750   7.630  1.00  0.00     0.040 C 
ENDBRANCH  33  34
ENDBRANCH  30  33
ENDBRANCH  23  26
ENDBRANCH   1  22
BRANCH   1  37
HETATM   37  C   UNL     1      39.804 -13.812  -1.851  1.00  0.00     0.254 C 
BRANCH  37  38
HETATM   38  N   UNL     1      38.348 -13.826  -1.547  1.00  0.00    -0.077 N 
HETATM   39  H   UNL     1      37.771 -14.209  -2.302  1.00  0.00     0.274 HD
HETATM   40  H   UNL     1      38.184 -14.447  -0.724  1.00  0.00     0.274 HD
HETATM   41  H   UNL     1      37.985 -12.904  -1.285  1.00  0.00     0.274 HD
ENDBRANCH  37  38
ENDBRANCH   1  37
TORSDOF 11
ENDMDL
