MODEL 1
REMARK VINA RESULT:      -7.9      0.000      0.000
REMARK  6 active torsions:
REMARK  status: ('A' for Active; 'I' for Inactive)
REMARK    1  A    between atoms: C_2  and  C_3 
REMARK    2  A    between atoms: C_3  and  N_4 
REMARK       I    between atoms: N_4  and  C_5 
REMARK    3  A    between atoms: C_5  and  C_6 
REMARK    4  A    between atoms: C_11  and  C_12 
REMARK    5  A    between atoms: C_15  and  O_16 
REMARK    6  A    between atoms: C_21  and  C_22 
ROOT
HETATM    1  C   UNL     1      42.411 -10.549   6.655  1.00  0.00     0.170 A 
HETATM    2  N   UNL     1      41.425 -10.692   5.733  1.00  0.00    -0.163 NA
HETATM    3  N   UNL     1      41.694 -11.874   5.155  1.00  0.00    -0.238 N 
HETATM    4  C   UNL     1      42.865 -12.443   5.579  1.00  0.00     0.145 A 
HETATM    5  N   UNL     1      43.318 -13.600   5.034  1.00  0.00    -0.365 N 
HETATM    6  C   UNL     1      42.754 -14.084   3.777  1.00  0.00     0.118 C 
HETATM    7  C   UNL     1      41.236 -13.870   3.790  1.00  0.00     0.066 C 
HETATM    8  C   UNL     1      40.895 -12.392   4.054  1.00  0.00     0.221 C 
HETATM    9  C   UNL     1      43.342 -11.621   6.574  1.00  0.00     0.115 A 
HETATM   10 CL   UNL     1      44.752 -11.852   7.490  1.00  0.00    -0.077 Cl
HETATM   11  H   UNL     1      44.276 -13.900   5.224  1.00  0.00     0.162 HD
ENDROOT
BRANCH   6  12
HETATM   12  C   UNL     1      43.086 -15.549   3.574  1.00  0.00    -0.035 A 
HETATM   13  C   UNL     1      43.562 -16.347   4.625  1.00  0.00     0.012 A 
HETATM   14  C   UNL     1      43.822 -17.706   4.426  1.00  0.00     0.037 A 
HETATM   15  C   UNL     1      43.599 -18.300   3.183  1.00  0.00     0.068 A 
HETATM   16  C   UNL     1      43.126 -17.516   2.132  1.00  0.00     0.037 A 
HETATM   17  C   UNL     1      42.871 -16.153   2.326  1.00  0.00     0.012 A 
BRANCH  15  18
HETATM   18  O   UNL     1      43.881 -19.636   3.130  1.00  0.00    -0.356 OA
HETATM   19  C   UNL     1      43.489 -20.329   1.952  1.00  0.00     0.210 C 
ENDBRANCH  15  18
ENDBRANCH   6  12
BRANCH   8  20
HETATM   20  C   UNL     1      39.411 -12.249   4.310  1.00  0.00     0.409 C 
HETATM   21  F   UNL     1      39.050 -12.695   5.534  1.00  0.00    -0.169 F 
HETATM   22  F   UNL     1      38.966 -10.980   4.175  1.00  0.00    -0.169 F 
HETATM   23  F   UNL     1      38.717 -12.988   3.404  1.00  0.00    -0.169 F 
ENDBRANCH   8  20
BRANCH   1  24
HETATM   24  C   UNL     1      42.422  -9.394   7.567  1.00  0.00     0.273 C 
HETATM   25  N   UNL     1      42.493  -9.758   8.896  1.00  0.00    -0.356 N 
HETATM   26  H   UNL     1      42.494 -10.759   9.081  1.00  0.00     0.162 HD
HETATM   27  O   UNL     1      42.382  -8.227   7.194  1.00  0.00    -0.266 OA
BRANCH  25  28
HETATM   28  C   UNL     1      42.535  -8.806   9.978  1.00  0.00     0.122 C 
BRANCH  28  29
HETATM   29  C   UNL     1      43.600  -9.164  11.010  1.00  0.00     0.015 C 
HETATM   30  C   UNL     1      44.896  -9.592  10.344  1.00  0.00     0.006 C 
ENDBRANCH  28  29
ENDBRANCH  25  28
ENDBRANCH   1  24
TORSDOF 6
ENDMDL
MODEL 2
REMARK VINA RESULT:      -7.8      4.160      5.320
REMARK  6 active torsions:
REMARK  status: ('A' for Active; 'I' for Inactive)
REMARK    1  A    between atoms: C_2  and  C_3 
REMARK    2  A    between atoms: C_3  and  N_4 
REMARK       I    between atoms: N_4  and  C_5 
REMARK    3  A    between atoms: C_5  and  C_6 
REMARK    4  A    between atoms: C_11  and  C_12 
REMARK    5  A    between atoms: C_15  and  O_16 
REMARK    6  A    between atoms: C_21  and  C_22 
ROOT
HETATM    1  C   UNL     1      43.204 -12.817   5.720  1.00  0.00     0.170 A 
HETATM    2  N   UNL     1      42.902 -14.135   5.597  1.00  0.00    -0.163 NA
HETATM    3  N   UNL     1      42.184 -14.196   4.464  1.00  0.00    -0.238 N 
HETATM    4  C   UNL     1      41.914 -12.971   3.914  1.00  0.00     0.145 A 
HETATM    5  N   UNL     1      41.134 -12.857   2.809  1.00  0.00    -0.365 N 
HETATM    6  C   UNL     1      40.306 -13.982   2.382  1.00  0.00     0.118 C 
HETATM    7  C   UNL     1      41.103 -15.283   2.539  1.00  0.00     0.066 C 
HETATM    8  C   UNL     1      41.608 -15.443   3.984  1.00  0.00     0.221 C 
HETATM    9  C   UNL     1      42.585 -12.055   4.691  1.00  0.00     0.115 A 
HETATM   10 CL   UNL     1      42.640 -10.376   4.457  1.00  0.00    -0.077 Cl
HETATM   11  H   UNL     1      40.790 -11.936   2.534  1.00  0.00     0.162 HD
ENDROOT
BRANCH   6  12
HETATM   12  C   UNL     1      39.859 -13.797   0.945  1.00  0.00    -0.035 A 
HETATM   13  C   UNL     1      39.903 -14.851   0.021  1.00  0.00     0.012 A 
HETATM   14  C   UNL     1      39.446 -14.671  -1.287  1.00  0.00     0.037 A 
HETATM   15  C   UNL     1      38.925 -13.443  -1.697  1.00  0.00     0.068 A 
HETATM   16  C   UNL     1      38.876 -12.388  -0.787  1.00  0.00     0.037 A 
HETATM   17  C   UNL     1      39.339 -12.565   0.524  1.00  0.00     0.012 A 
BRANCH  15  18
HETATM   18  O   UNL     1      38.502 -13.407  -2.997  1.00  0.00    -0.356 OA
HETATM   19  C   UNL     1      38.170 -14.651  -3.600  1.00  0.00     0.210 C 
ENDBRANCH  15  18
ENDBRANCH   6  12
BRANCH   8  20
HETATM   20  C   UNL     1      42.591 -16.591   4.056  1.00  0.00     0.409 C 
HETATM   21  F   UNL     1      43.866 -16.196   3.847  1.00  0.00    -0.169 F 
HETATM   22  F   UNL     1      42.543 -17.262   5.228  1.00  0.00    -0.169 F 
HETATM   23  F   UNL     1      42.301 -17.503   3.090  1.00  0.00    -0.169 F 
ENDBRANCH   8  20
BRANCH   1  24
HETATM   24  C   UNL     1      44.064 -12.345   6.818  1.00  0.00     0.273 C 
HETATM   25  N   UNL     1      45.098 -11.542   6.383  1.00  0.00    -0.356 N 
HETATM   26  H   UNL     1      45.159 -11.406   5.377  1.00  0.00     0.162 HD
HETATM   27  O   UNL     1      43.881 -12.623   7.998  1.00  0.00    -0.266 OA
BRANCH  25  28
HETATM   28  C   UNL     1      46.064 -10.943   7.271  1.00  0.00     0.122 C 
BRANCH  28  29
HETATM   29  C   UNL     1      45.571  -9.615   7.836  1.00  0.00     0.015 C 
HETATM   30  C   UNL     1      45.543  -9.635   9.355  1.00  0.00     0.006 C 
ENDBRANCH  28  29
ENDBRANCH  25  28
ENDBRANCH   1  24
TORSDOF 6
ENDMDL
MODEL 3
REMARK VINA RESULT:      -7.5      4.377      5.947
REMARK  6 active torsions:
REMARK  status: ('A' for Active; 'I' for Inactive)
REMARK    1  A    between atoms: C_2  and  C_3 
REMARK    2  A    between atoms: C_3  and  N_4 
REMARK       I    between atoms: N_4  and  C_5 
REMARK    3  A    between atoms: C_5  and  C_6 
REMARK    4  A    between atoms: C_11  and  C_12 
REMARK    5  A    between atoms: C_15  and  O_16 
REMARK    6  A    between atoms: C_21  and  C_22 
ROOT
HETATM    1  C   UNL     1      41.305 -11.371   0.957  1.00  0.00     0.170 A 
HETATM    2  N   UNL     1      41.762 -11.170   2.219  1.00  0.00    -0.163 NA
HETATM    3  N   UNL     1      42.076 -12.403   2.648  1.00  0.00    -0.238 N 
HETATM    4  C   UNL     1      41.736 -13.397   1.769  1.00  0.00     0.145 A 
HETATM    5  N   UNL     1      41.917 -14.704   2.087  1.00  0.00    -0.365 N 
HETATM    6  C   UNL     1      42.159 -15.089   3.474  1.00  0.00     0.118 C 
HETATM    7  C   UNL     1      43.117 -14.079   4.119  1.00  0.00     0.066 C 
HETATM    8  C   UNL     1      42.562 -12.648   3.997  1.00  0.00     0.221 C 
HETATM    9  C   UNL     1      41.258 -12.758   0.648  1.00  0.00     0.115 A 
HETATM   10 CL   UNL     1      40.722 -13.492  -0.785  1.00  0.00    -0.077 Cl
HETATM   11  H   UNL     1      41.484 -15.423   1.506  1.00  0.00     0.162 HD
ENDROOT
BRANCH   6  12
HETATM   12  C   UNL     1      42.734 -16.490   3.544  1.00  0.00    -0.035 A 
HETATM   13  C   UNL     1      43.212 -17.030   4.747  1.00  0.00     0.012 A 
HETATM   14  C   UNL     1      43.698 -18.339   4.797  1.00  0.00     0.037 A 
HETATM   15  C   UNL     1      43.705 -19.141   3.655  1.00  0.00     0.068 A 
HETATM   16  C   UNL     1      43.233 -18.615   2.454  1.00  0.00     0.037 A 
HETATM   17  C   UNL     1      42.750 -17.301   2.399  1.00  0.00     0.012 A 
BRANCH  15  18
HETATM   18  O   UNL     1      44.195 -20.403   3.846  1.00  0.00    -0.356 OA
HETATM   19  C   UNL     1      44.371 -20.827   5.192  1.00  0.00     0.210 C 
ENDBRANCH  15  18
ENDBRANCH   6  12
BRANCH   8  20
HETATM   20  C   UNL     1      43.626 -11.653   4.410  1.00  0.00     0.409 C 
HETATM   21  F   UNL     1      43.125 -10.414   4.612  1.00  0.00    -0.169 F 
HETATM   22  F   UNL     1      44.301 -12.023   5.520  1.00  0.00    -0.169 F 
HETATM   23  F   UNL     1      44.555 -11.543   3.424  1.00  0.00    -0.169 F 
ENDBRANCH   8  20
BRANCH   1  24
HETATM   24  C   UNL     1      40.926 -10.230   0.106  1.00  0.00     0.273 C 
HETATM   25  N   UNL     1      41.812  -9.176   0.195  1.00  0.00    -0.356 N 
HETATM   26  H   UNL     1      42.581  -9.299   0.849  1.00  0.00     0.162 HD
HETATM   27  O   UNL     1      39.935 -10.214  -0.616  1.00  0.00    -0.266 OA
BRANCH  25  28
HETATM   28  C   UNL     1      41.666  -7.953  -0.555  1.00  0.00     0.122 C 
BRANCH  28  29
HETATM   29  C   UNL     1      42.526  -7.953  -1.815  1.00  0.00     0.015 C 
HETATM   30  C   UNL     1      43.438  -6.739  -1.865  1.00  0.00     0.006 C 
ENDBRANCH  28  29
ENDBRANCH  25  28
ENDBRANCH   1  24
TORSDOF 6
ENDMDL
MODEL 4
REMARK VINA RESULT:      -7.5      4.302      7.488
REMARK  6 active torsions:
REMARK  status: ('A' for Active; 'I' for Inactive)
REMARK    1  A    between atoms: C_2  and  C_3 
REMARK    2  A    between atoms: C_3  and  N_4 
REMARK       I    between atoms: N_4  and  C_5 
REMARK    3  A    between atoms: C_5  and  C_6 
REMARK    4  A    between atoms: C_11  and  C_12 
REMARK    5  A    between atoms: C_15  and  O_16 
REMARK    6  A    between atoms: C_21  and  C_22 
ROOT
HETATM    1  C   UNL     1      43.115 -16.324   4.379  1.00  0.00     0.170 A 
HETATM    2  N   UNL     1      42.724 -15.114   4.853  1.00  0.00    -0.163 NA
HETATM    3  N   UNL     1      41.999 -14.594   3.850  1.00  0.00    -0.238 N 
HETATM    4  C   UNL     1      42.000 -15.359   2.714  1.00  0.00     0.145 A 
HETATM    5  N   UNL     1      41.377 -14.935   1.584  1.00  0.00    -0.365 N 
HETATM    6  C   UNL     1      40.986 -13.535   1.450  1.00  0.00     0.118 C 
HETATM    7  C   UNL     1      40.415 -13.041   2.785  1.00  0.00     0.066 C 
HETATM    8  C   UNL     1      41.426 -13.259   3.925  1.00  0.00     0.221 C 
HETATM    9  C   UNL     1      42.694 -16.504   3.033  1.00  0.00     0.115 A 
HETATM   10 CL   UNL     1      42.981 -17.831   2.015  1.00  0.00    -0.077 Cl
HETATM   11  H   UNL     1      41.553 -15.424   0.705  1.00  0.00     0.162 HD
ENDROOT
BRANCH   6  12
HETATM   12  C   UNL     1      39.966 -13.373   0.339  1.00  0.00    -0.035 A 
HETATM   13  C   UNL     1      39.171 -12.222   0.234  1.00  0.00     0.012 A 
HETATM   14  C   UNL     1      38.268 -12.075  -0.822  1.00  0.00     0.037 A 
HETATM   15  C   UNL     1      38.149 -13.062  -1.801  1.00  0.00     0.068 A 
HETATM   16  C   UNL     1      38.935 -14.210  -1.707  1.00  0.00     0.037 A 
HETATM   17  C   UNL     1      39.837 -14.363  -0.646  1.00  0.00     0.012 A 
BRANCH  15  18
HETATM   18  O   UNL     1      37.239 -12.786  -2.783  1.00  0.00    -0.356 OA
HETATM   19  C   UNL     1      36.693 -11.473  -2.803  1.00  0.00     0.210 C 
ENDBRANCH  15  18
ENDBRANCH   6  12
BRANCH   8  20
HETATM   20  C   UNL     1      40.756 -13.000   5.257  1.00  0.00     0.409 C 
HETATM   21  F   UNL     1      40.010 -14.047   5.674  1.00  0.00    -0.169 F 
HETATM   22  F   UNL     1      41.627 -12.683   6.240  1.00  0.00    -0.169 F 
HETATM   23  F   UNL     1      39.914 -11.939   5.146  1.00  0.00    -0.169 F 
ENDBRANCH   8  20
BRANCH   1  24
HETATM   24  C   UNL     1      43.879 -17.252   5.230  1.00  0.00     0.273 C 
HETATM   25  N   UNL     1      43.468 -18.562   5.101  1.00  0.00    -0.356 N 
HETATM   26  H   UNL     1      42.682 -18.720   4.474  1.00  0.00     0.162 HD
HETATM   27  O   UNL     1      44.792 -16.905   5.972  1.00  0.00    -0.266 OA
BRANCH  25  28
HETATM   28  C   UNL     1      44.073 -19.657   5.819  1.00  0.00     0.122 C 
BRANCH  28  29
HETATM   29  C   UNL     1      43.747 -21.004   5.181  1.00  0.00     0.015 C 
HETATM   30  C   UNL     1      43.843 -20.938   3.666  1.00  0.00     0.006 C 
ENDBRANCH  28  29
ENDBRANCH  25  28
ENDBRANCH   1  24
TORSDOF 6
ENDMDL
MODEL 5
REMARK VINA RESULT:      -7.4      3.583      4.576
REMARK  6 active torsions:
REMARK  status: ('A' for Active; 'I' for Inactive)
REMARK    1  A    between atoms: C_2  and  C_3 
REMARK    2  A    between atoms: C_3  and  N_4 
REMARK       I    between atoms: N_4  and  C_5 
REMARK    3  A    between atoms: C_5  and  C_6 
REMARK    4  A    between atoms: C_11  and  C_12 
REMARK    5  A    between atoms: C_15  and  O_16 
REMARK    6  A    between atoms: C_21  and  C_22 
ROOT
HETATM    1  C   UNL     1      43.640 -12.184   7.251  1.00  0.00     0.170 A 
HETATM    2  N   UNL     1      43.675 -13.539   7.307  1.00  0.00    -0.163 NA
HETATM    3  N   UNL     1      43.031 -13.924   6.193  1.00  0.00    -0.238 N 
HETATM    4  C   UNL     1      42.485 -12.887   5.484  1.00  0.00     0.145 A 
HETATM    5  N   UNL     1      41.737 -13.115   4.376  1.00  0.00    -0.365 N 
HETATM    6  C   UNL     1      41.224 -14.455   4.105  1.00  0.00     0.118 C 
HETATM    7  C   UNL     1      42.311 -15.486   4.433  1.00  0.00     0.066 C 
HETATM    8  C   UNL     1      42.794 -15.326   5.886  1.00  0.00     0.221 C 
HETATM    9  C   UNL     1      42.885 -11.740   6.131  1.00  0.00     0.115 A 
HETATM   10 CL   UNL     1      42.533 -10.144   5.673  1.00  0.00    -0.077 Cl
HETATM   11  H   UNL     1      41.186 -12.352   3.980  1.00  0.00     0.162 HD
ENDROOT
BRANCH   6  12
HETATM   12  C   UNL     1      40.792 -14.577   2.657  1.00  0.00    -0.035 A 
HETATM   13  C   UNL     1      40.241 -15.763   2.152  1.00  0.00     0.012 A 
HETATM   14  C   UNL     1      39.810 -15.839   0.825  1.00  0.00     0.037 A 
HETATM   15  C   UNL     1      39.905 -14.733  -0.020  1.00  0.00     0.068 A 
HETATM   16  C   UNL     1      40.451 -13.549   0.471  1.00  0.00     0.037 A 
HETATM   17  C   UNL     1      40.889 -13.471   1.799  1.00  0.00     0.012 A 
BRANCH  15  18
HETATM   18  O   UNL     1      39.435 -14.940  -1.288  1.00  0.00    -0.356 OA
HETATM   19  C   UNL     1      38.722 -13.869  -1.892  1.00  0.00     0.210 C 
ENDBRANCH  15  18
ENDBRANCH   6  12
BRANCH   8  20
HETATM   20  C   UNL     1      44.027 -16.176   6.110  1.00  0.00     0.409 C 
HETATM   21  F   UNL     1      44.307 -16.971   5.055  1.00  0.00    -0.169 F 
HETATM   22  F   UNL     1      45.129 -15.450   6.398  1.00  0.00    -0.169 F 
HETATM   23  F   UNL     1      43.829 -16.996   7.177  1.00  0.00    -0.169 F 
ENDBRANCH   8  20
BRANCH   1  24
HETATM   24  C   UNL     1      44.322 -11.374   8.274  1.00  0.00     0.273 C 
HETATM   25  N   UNL     1      43.466 -10.910   9.251  1.00  0.00    -0.356 N 
HETATM   26  H   UNL     1      42.485 -11.150   9.130  1.00  0.00     0.162 HD
HETATM   27  O   UNL     1      45.525 -11.138   8.270  1.00  0.00    -0.266 OA
BRANCH  25  28
HETATM   28  C   UNL     1      43.899 -10.108  10.370  1.00  0.00     0.122 C 
BRANCH  28  29
HETATM   29  C   UNL     1      42.722  -9.612  11.203  1.00  0.00     0.015 C 
HETATM   30  C   UNL     1      42.749 -10.198  12.605  1.00  0.00     0.006 C 
ENDBRANCH  28  29
ENDBRANCH  25  28
ENDBRANCH   1  24
TORSDOF 6
ENDMDL
MODEL 6
REMARK VINA RESULT:      -7.3      5.958      9.130
REMARK  6 active torsions:
REMARK  status: ('A' for Active; 'I' for Inactive)
REMARK    1  A    between atoms: C_2  and  C_3 
REMARK    2  A    between atoms: C_3  and  N_4 
REMARK       I    between atoms: N_4  and  C_5 
REMARK    3  A    between atoms: C_5  and  C_6 
REMARK    4  A    between atoms: C_11  and  C_12 
REMARK    5  A    between atoms: C_15  and  O_16 
REMARK    6  A    between atoms: C_21  and  C_22 
ROOT
HETATM    1  C   UNL     1      40.997 -14.703   1.722  1.00  0.00     0.170 A 
HETATM    2  N   UNL     1      40.056 -14.765   0.746  1.00  0.00    -0.163 NA
HETATM    3  N   UNL     1      40.226 -13.623   0.061  1.00  0.00    -0.238 N 
HETATM    4  C   UNL     1      41.151 -12.778   0.616  1.00  0.00     0.145 A 
HETATM    5  N   UNL     1      41.383 -11.550   0.087  1.00  0.00    -0.365 N 
HETATM    6  C   UNL     1      40.437 -10.976  -0.864  1.00  0.00     0.118 C 
HETATM    7  C   UNL     1      39.966 -12.070  -1.830  1.00  0.00     0.066 C 
HETATM    8  C   UNL     1      39.369 -13.260  -1.057  1.00  0.00     0.221 C 
HETATM    9  C   UNL     1      41.690 -13.462   1.682  1.00  0.00     0.115 A 
HETATM   10 CL   UNL     1      42.916 -12.915   2.720  1.00  0.00    -0.077 Cl
HETATM   11  H   UNL     1      41.927 -10.871   0.623  1.00  0.00     0.162 HD
ENDROOT
BRANCH   6  12
HETATM   12  C   UNL     1      41.076  -9.830  -1.624  1.00  0.00    -0.035 A 
HETATM   13  C   UNL     1      42.108  -9.062  -1.065  1.00  0.00     0.012 A 
HETATM   14  C   UNL     1      42.712  -8.039  -1.800  1.00  0.00     0.037 A 
HETATM   15  C   UNL     1      42.311  -7.768  -3.108  1.00  0.00     0.068 A 
HETATM   16  C   UNL     1      41.286  -8.524  -3.674  1.00  0.00     0.037 A 
HETATM   17  C   UNL     1      40.675  -9.548  -2.939  1.00  0.00     0.012 A 
BRANCH  15  18
HETATM   18  O   UNL     1      42.993  -6.750  -3.716  1.00  0.00    -0.356 OA
HETATM   19  C   UNL     1      42.277  -5.544  -3.946  1.00  0.00     0.210 C 
ENDBRANCH  15  18
ENDBRANCH   6  12
BRANCH   8  20
HETATM   20  C   UNL     1      39.144 -14.420  -2.003  1.00  0.00     0.409 C 
HETATM   21  F   UNL     1      40.120 -14.530  -2.931  1.00  0.00    -0.169 F 
HETATM   22  F   UNL     1      39.026 -15.609  -1.371  1.00  0.00    -0.169 F 
HETATM   23  F   UNL     1      37.979 -14.238  -2.680  1.00  0.00    -0.169 F 
ENDBRANCH   8  20
BRANCH   1  24
HETATM   24  C   UNL     1      41.187 -15.827   2.653  1.00  0.00     0.273 C 
HETATM   25  N   UNL     1      42.413 -16.442   2.511  1.00  0.00    -0.356 N 
HETATM   26  H   UNL     1      43.010 -16.073   1.773  1.00  0.00     0.162 HD
HETATM   27  O   UNL     1      40.351 -16.181   3.478  1.00  0.00    -0.266 OA
BRANCH  25  28
HETATM   28  C   UNL     1      42.840 -17.557   3.320  1.00  0.00     0.122 C 
BRANCH  28  29
HETATM   29  C   UNL     1      43.853 -18.434   2.591  1.00  0.00     0.015 C 
HETATM   30  C   UNL     1      43.231 -19.748   2.148  1.00  0.00     0.006 C 
ENDBRANCH  28  29
ENDBRANCH  25  28
ENDBRANCH   1  24
TORSDOF 6
ENDMDL
MODEL 7
REMARK VINA RESULT:      -7.3      1.696      2.241
REMARK  6 active torsions:
REMARK  status: ('A' for Active; 'I' for Inactive)
REMARK    1  A    between atoms: C_2  and  C_3 
REMARK    2  A    between atoms: C_3  and  N_4 
REMARK       I    between atoms: N_4  and  C_5 
REMARK    3  A    between atoms: C_5  and  C_6 
REMARK    4  A    between atoms: C_11  and  C_12 
REMARK    5  A    between atoms: C_15  and  O_16 
REMARK    6  A    between atoms: C_21  and  C_22 
ROOT
HETATM    1  C   UNL     1      41.849 -11.480   5.242  1.00  0.00     0.170 A 
HETATM    2  N   UNL     1      41.337 -11.697   4.004  1.00  0.00    -0.163 NA
HETATM    3  N   UNL     1      41.729 -12.947   3.709  1.00  0.00    -0.238 N 
HETATM    4  C   UNL     1      42.562 -13.501   4.645  1.00  0.00     0.145 A 
HETATM    5  N   UNL     1      43.107 -14.729   4.456  1.00  0.00    -0.365 N 
HETATM    6  C   UNL     1      43.089 -15.339   3.130  1.00  0.00     0.118 C 
HETATM    7  C   UNL     1      41.730 -15.074   2.471  1.00  0.00     0.066 C 
HETATM    8  C   UNL     1      41.430 -13.565   2.426  1.00  0.00     0.221 C 
HETATM    9  C   UNL     1      42.639 -12.583   5.667  1.00  0.00     0.115 A 
HETATM   10 CL   UNL     1      43.506 -12.752   7.116  1.00  0.00    -0.077 Cl
HETATM   11  H   UNL     1      43.867 -15.036   5.065  1.00  0.00     0.162 HD
ENDROOT
BRANCH   6  12
HETATM   12  C   UNL     1      43.357 -16.828   3.225  1.00  0.00    -0.035 A 
HETATM   13  C   UNL     1      43.890 -17.406   4.386  1.00  0.00     0.012 A 
HETATM   14  C   UNL     1      44.089 -18.787   4.468  1.00  0.00     0.037 A 
HETATM   15  C   UNL     1      43.747 -19.620   3.403  1.00  0.00     0.068 A 
HETATM   16  C   UNL     1      43.216 -19.057   2.243  1.00  0.00     0.037 A 
HETATM   17  C   UNL     1      43.021 -17.673   2.156  1.00  0.00     0.012 A 
BRANCH  15  18
HETATM   18  O   UNL     1      43.981 -20.950   3.620  1.00  0.00    -0.356 OA
HETATM   19  C   UNL     1      43.987 -21.389   4.972  1.00  0.00     0.210 C 
ENDBRANCH  15  18
ENDBRANCH   6  12
BRANCH   8  20
HETATM   20  C   UNL     1      39.993 -13.343   2.007  1.00  0.00     0.409 C 
HETATM   21  F   UNL     1      39.785 -12.107   1.501  1.00  0.00    -0.169 F 
HETATM   22  F   UNL     1      39.554 -14.248   1.105  1.00  0.00    -0.169 F 
HETATM   23  F   UNL     1      39.178 -13.465   3.088  1.00  0.00    -0.169 F 
ENDBRANCH   8  20
BRANCH   1  24
HETATM   24  C   UNL     1      41.568 -10.226   5.960  1.00  0.00     0.273 C 
HETATM   25  N   UNL     1      40.955 -10.430   7.179  1.00  0.00    -0.356 N 
HETATM   26  H   UNL     1      40.746 -11.398   7.412  1.00  0.00     0.162 HD
HETATM   27  O   UNL     1      41.853  -9.113   5.531  1.00  0.00    -0.266 OA
BRANCH  25  28
HETATM   28  C   UNL     1      40.594  -9.358   8.074  1.00  0.00     0.122 C 
BRANCH  28  29
HETATM   29  C   UNL     1      41.673  -9.106   9.123  1.00  0.00     0.015 C 
HETATM   30  C   UNL     1      41.085  -9.057  10.523  1.00  0.00     0.006 C 
ENDBRANCH  28  29
ENDBRANCH  25  28
ENDBRANCH   1  24
TORSDOF 6
ENDMDL
MODEL 8
REMARK VINA RESULT:      -7.2      4.611      6.932
REMARK  6 active torsions:
REMARK  status: ('A' for Active; 'I' for Inactive)
REMARK    1  A    between atoms: C_2  and  C_3 
REMARK    2  A    between atoms: C_3  and  N_4 
REMARK       I    between atoms: N_4  and  C_5 
REMARK    3  A    between atoms: C_5  and  C_6 
REMARK    4  A    between atoms: C_11  and  C_12 
REMARK    5  A    between atoms: C_15  and  O_16 
REMARK    6  A    between atoms: C_21  and  C_22 
ROOT
HETATM    1  C   UNL     1      40.105 -12.292   0.286  1.00  0.00     0.170 A 
HETATM    2  N   UNL     1      40.692 -11.728   1.372  1.00  0.00    -0.163 NA
HETATM    3  N   UNL     1      41.247 -12.768   2.015  1.00  0.00    -0.238 N 
HETATM    4  C   UNL     1      40.949 -13.984   1.460  1.00  0.00     0.145 A 
HETATM    5  N   UNL     1      41.369 -15.138   2.037  1.00  0.00    -0.365 N 
HETATM    6  C   UNL     1      41.853 -15.130   3.414  1.00  0.00     0.118 C 
HETATM    7  C   UNL     1      42.722 -13.886   3.637  1.00  0.00     0.066 C 
HETATM    8  C   UNL     1      41.943 -12.606   3.283  1.00  0.00     0.221 C 
HETATM    9  C   UNL     1      40.231 -13.708   0.319  1.00  0.00     0.115 A 
HETATM   10 CL   UNL     1      39.626 -14.838  -0.794  1.00  0.00    -0.077 Cl
HETATM   11  H   UNL     1      40.978 -16.026   1.719  1.00  0.00     0.162 HD
ENDROOT
BRANCH   6  12
HETATM   12  C   UNL     1      42.640 -16.392   3.708  1.00  0.00    -0.035 A 
HETATM   13  C   UNL     1      43.053 -16.715   5.009  1.00  0.00     0.012 A 
HETATM   14  C   UNL     1      43.741 -17.904   5.264  1.00  0.00     0.037 A 
HETATM   15  C   UNL     1      44.019 -18.801   4.233  1.00  0.00     0.068 A 
HETATM   16  C   UNL     1      43.614 -18.491   2.935  1.00  0.00     0.037 A 
HETATM   17  C   UNL     1      42.929 -17.297   2.676  1.00  0.00     0.012 A 
BRANCH  15  18
HETATM   18  O   UNL     1      44.685 -19.930   4.621  1.00  0.00    -0.356 OA
HETATM   19  C   UNL     1      43.948 -20.884   5.376  1.00  0.00     0.210 C 
ENDBRANCH  15  18
ENDBRANCH   6  12
BRANCH   8  20
HETATM   20  C   UNL     1      42.886 -11.423   3.269  1.00  0.00     0.409 C 
HETATM   21  F   UNL     1      42.776 -10.685   2.142  1.00  0.00    -0.169 F 
HETATM   22  F   UNL     1      42.728 -10.602   4.330  1.00  0.00    -0.169 F 
HETATM   23  F   UNL     1      44.172 -11.863   3.324  1.00  0.00    -0.169 F 
ENDBRANCH   8  20
BRANCH   1  24
HETATM   24  C   UNL     1      39.445 -11.455  -0.729  1.00  0.00     0.273 C 
HETATM   25  N   UNL     1      38.117 -11.780  -0.913  1.00  0.00    -0.356 N 
HETATM   26  H   UNL     1      37.773 -12.563  -0.361  1.00  0.00     0.162 HD
HETATM   27  O   UNL     1      40.007 -10.557  -1.346  1.00  0.00    -0.266 OA
BRANCH  25  28
HETATM   28  C   UNL     1      37.253 -11.092  -1.841  1.00  0.00     0.122 C 
BRANCH  28  29
HETATM   29  C   UNL     1      36.591 -12.055  -2.822  1.00  0.00     0.015 C 
HETATM   30  C   UNL     1      37.302 -13.397  -2.848  1.00  0.00     0.006 C 
ENDBRANCH  28  29
ENDBRANCH  25  28
ENDBRANCH   1  24
TORSDOF 6
ENDMDL
MODEL 9
REMARK VINA RESULT:      -7.2      3.538      8.901
REMARK  6 active torsions:
REMARK  status: ('A' for Active; 'I' for Inactive)
REMARK    1  A    between atoms: C_2  and  C_3 
REMARK    2  A    between atoms: C_3  and  N_4 
REMARK       I    between atoms: N_4  and  C_5 
REMARK    3  A    between atoms: C_5  and  C_6 
REMARK    4  A    between atoms: C_11  and  C_12 
REMARK    5  A    between atoms: C_15  and  O_16 
REMARK    6  A    between atoms: C_21  and  C_22 
ROOT
HETATM    1  C   UNL     1      41.820 -11.783   4.863  1.00  0.00     0.170 A 
HETATM    2  N   UNL     1      43.126 -11.467   5.051  1.00  0.00    -0.163 NA
HETATM    3  N   UNL     1      43.156 -10.941   6.286  1.00  0.00    -0.238 N 
HETATM    4  C   UNL     1      41.918 -10.799   6.856  1.00  0.00     0.145 A 
HETATM    5  N   UNL     1      41.770 -10.212   8.070  1.00  0.00    -0.365 N 
HETATM    6  C   UNL     1      42.864  -9.431   8.641  1.00  0.00     0.118 C 
HETATM    7  C   UNL     1      44.191 -10.154   8.376  1.00  0.00     0.066 C 
HETATM    8  C   UNL     1      44.379 -10.413   6.870  1.00  0.00     0.221 C 
HETATM    9  C   UNL     1      41.030 -11.362   5.967  1.00  0.00     0.115 A 
HETATM   10 CL   UNL     1      39.351 -11.503   6.166  1.00  0.00    -0.077 Cl
HETATM   11  H   UNL     1      40.836  -9.944   8.384  1.00  0.00     0.162 HD
ENDROOT
BRANCH   6  12
HETATM   12  C   UNL     1      42.653  -9.229  10.128  1.00  0.00    -0.035 A 
HETATM   13  C   UNL     1      41.471  -9.635  10.765  1.00  0.00     0.012 A 
HETATM   14  C   UNL     1      41.315  -9.477  12.145  1.00  0.00     0.037 A 
HETATM   15  C   UNL     1      42.336  -8.926  12.919  1.00  0.00     0.068 A 
HETATM   16  C   UNL     1      43.515  -8.518  12.297  1.00  0.00     0.037 A 
HETATM   17  C   UNL     1      43.673  -8.670  10.913  1.00  0.00     0.012 A 
BRANCH  15  18
HETATM   18  O   UNL     1      42.058  -8.841  14.255  1.00  0.00    -0.356 OA
HETATM   19  C   UNL     1      40.916  -8.081  14.627  1.00  0.00     0.210 C 
ENDBRANCH  15  18
ENDBRANCH   6  12
BRANCH   8  20
HETATM   20  C   UNL     1      45.558 -11.338   6.656  1.00  0.00     0.409 C 
HETATM   21  F   UNL     1      46.593 -11.056   7.477  1.00  0.00    -0.169 F 
HETATM   22  F   UNL     1      45.245 -12.644   6.802  1.00  0.00    -0.169 F 
HETATM   23  F   UNL     1      46.020 -11.202   5.384  1.00  0.00    -0.169 F 
ENDBRANCH   8  20
BRANCH   1  24
HETATM   24  C   UNL     1      41.384 -12.467   3.634  1.00  0.00     0.273 C 
HETATM   25  N   UNL     1      42.191 -13.534   3.298  1.00  0.00    -0.356 N 
HETATM   26  H   UNL     1      42.990 -13.694   3.907  1.00  0.00     0.162 HD
HETATM   27  O   UNL     1      40.403 -12.136   2.978  1.00  0.00    -0.266 OA
BRANCH  25  28
HETATM   28  C   UNL     1      41.960 -14.372   2.146  1.00  0.00     0.122 C 
BRANCH  28  29
HETATM   29  C   UNL     1      43.234 -15.075   1.689  1.00  0.00     0.015 C 
HETATM   30  C   UNL     1      43.148 -16.576   1.912  1.00  0.00     0.006 C 
ENDBRANCH  28  29
ENDBRANCH  25  28
ENDBRANCH   1  24
TORSDOF 6
ENDMDL
MODEL 10
REMARK VINA RESULT:      -7.2      4.064      8.387
REMARK  6 active torsions:
REMARK  status: ('A' for Active; 'I' for Inactive)
REMARK    1  A    between atoms: C_2  and  C_3 
REMARK    2  A    between atoms: C_3  and  N_4 
REMARK       I    between atoms: N_4  and  C_5 
REMARK    3  A    between atoms: C_5  and  C_6 
REMARK    4  A    between atoms: C_11  and  C_12 
REMARK    5  A    between atoms: C_15  and  O_16 
REMARK    6  A    between atoms: C_21  and  C_22 
ROOT
HETATM    1  C   UNL     1      41.026 -14.112   0.946  1.00  0.00     0.170 A 
HETATM    2  N   UNL     1      41.574 -15.103   1.693  1.00  0.00    -0.163 NA
HETATM    3  N   UNL     1      42.054 -14.465   2.773  1.00  0.00    -0.238 N 
HETATM    4  C   UNL     1      41.942 -13.102   2.703  1.00  0.00     0.145 A 
HETATM    5  N   UNL     1      42.450 -12.308   3.680  1.00  0.00    -0.365 N 
HETATM    6  C   UNL     1      43.401 -12.855   4.643  1.00  0.00     0.118 C 
HETATM    7  C   UNL     1      42.949 -14.261   5.056  1.00  0.00     0.066 C 
HETATM    8  C   UNL     1      42.781 -15.164   3.821  1.00  0.00     0.221 C 
HETATM    9  C   UNL     1      41.254 -12.841   1.541  1.00  0.00     0.115 A 
HETATM   10 CL   UNL     1      40.795 -11.315   0.956  1.00  0.00    -0.077 Cl
HETATM   11  H   UNL     1      42.527 -11.303   3.516  1.00  0.00     0.162 HD
ENDROOT
BRANCH   6  12
HETATM   12  C   UNL     1      43.510 -11.950   5.855  1.00  0.00    -0.035 A 
HETATM   13  C   UNL     1      42.501 -11.033   6.180  1.00  0.00     0.012 A 
HETATM   14  C   UNL     1      42.603 -10.239   7.326  1.00  0.00     0.037 A 
HETATM   15  C   UNL     1      43.702 -10.352   8.177  1.00  0.00     0.068 A 
HETATM   16  C   UNL     1      44.712 -11.261   7.863  1.00  0.00     0.037 A 
HETATM   17  C   UNL     1      44.616 -12.055   6.713  1.00  0.00     0.012 A 
BRANCH  15  18
HETATM   18  O   UNL     1      43.670  -9.528   9.267  1.00  0.00    -0.356 OA
HETATM   19  C   UNL     1      43.749 -10.147  10.544  1.00  0.00     0.210 C 
ENDBRANCH  15  18
ENDBRANCH   6  12
BRANCH   8  20
HETATM   20  C   UNL     1      42.100 -16.455   4.223  1.00  0.00     0.409 C 
HETATM   21  F   UNL     1      40.757 -16.332   4.299  1.00  0.00    -0.169 F 
HETATM   22  F   UNL     1      42.385 -17.487   3.399  1.00  0.00    -0.169 F 
HETATM   23  F   UNL     1      42.529 -16.832   5.458  1.00  0.00    -0.169 F 
ENDBRANCH   8  20
BRANCH   1  24
HETATM   24  C   UNL     1      40.314 -14.422  -0.305  1.00  0.00     0.273 C 
HETATM   25  N   UNL     1      40.712 -13.629  -1.361  1.00  0.00    -0.356 N 
HETATM   26  H   UNL     1      41.409 -12.920  -1.143  1.00  0.00     0.162 HD
HETATM   27  O   UNL     1      39.462 -15.298  -0.408  1.00  0.00    -0.266 OA
BRANCH  25  28
HETATM   28  C   UNL     1      40.174 -13.753  -2.693  1.00  0.00     0.122 C 
BRANCH  28  29
HETATM   29  C   UNL     1      39.088 -12.718  -2.966  1.00  0.00     0.015 C 
HETATM   30  C   UNL     1      37.702 -13.286  -2.709  1.00  0.00     0.006 C 
ENDBRANCH  28  29
ENDBRANCH  25  28
ENDBRANCH   1  24
TORSDOF 6
ENDMDL
