MODEL 1
REMARK VINA RESULT:      -8.5      0.000      0.000
REMARK  3 active torsions:
REMARK  status: ('A' for Active; 'I' for Inactive)
REMARK    1  A    between atoms: C_3  and  N_4 
REMARK       I    between atoms: N_4  and  C_5 
REMARK    2  A    between atoms: C_5  and  C_6 
REMARK    3  A    between atoms: C_6  and  C_7 
ROOT
HETATM    1  C   UNL     1      40.981 -13.327   1.890  1.00  0.00     0.286 C 
HETATM    2  N   UNL     1      41.563 -12.874   0.548  1.00  0.00    -0.056 N 
HETATM    3  H   UNL     1      42.032 -11.966   0.633  1.00  0.00     0.278 HD
HETATM    4  H   UNL     1      42.298 -13.574   0.309  1.00  0.00     0.278 HD
HETATM    5  C   UNL     1      40.531 -12.868  -0.539  1.00  0.00     0.209 C 
HETATM    6  C   UNL     1      39.974 -14.301  -0.683  1.00  0.00     0.115 C 
HETATM    7  N   UNL     1      39.443 -14.799   0.582  1.00  0.00    -0.353 N 
HETATM    8  C   UNL     1      40.093 -14.592   1.780  1.00  0.00     0.249 C 
HETATM    9  O   UNL     1      39.879 -15.333   2.734  1.00  0.00    -0.271 OA
HETATM   10  C   UNL     1      41.153 -12.374  -1.838  1.00  0.00     0.035 C 
HETATM   11  C   UNL     1      40.125 -12.430  -2.969  1.00  0.00     0.002 C 
HETATM   12  C   UNL     1      39.510 -13.823  -3.116  1.00  0.00     0.002 C 
HETATM   13  C   UNL     1      38.931 -14.348  -1.800  1.00  0.00     0.027 C 
HETATM   14  H   UNL     1      38.926 -15.678   0.569  1.00  0.00     0.163 HD
ENDROOT
BRANCH   1  15
HETATM   15  C   UNL     1      42.100 -13.514   2.922  1.00  0.00     0.146 C 
BRANCH  15  16
HETATM   16  C   UNL     1      42.834 -14.808   2.658  1.00  0.00     0.224 C 
HETATM   17  N   UNL     1      42.562 -15.800   3.573  1.00  0.00    -0.327 N 
HETATM   18  H   UNL     1      42.283 -15.503   4.503  1.00  0.00     0.169 HD
HETATM   19  O   UNL     1      43.671 -14.849   1.756  1.00  0.00    -0.273 OA
BRANCH  17  20
HETATM   20  C   UNL     1      43.085 -17.111   3.490  1.00  0.00     0.040 A 
HETATM   21  C   UNL     1      43.958 -17.665   4.446  1.00  0.00    -0.035 A 
HETATM   22  C   UNL     1      44.533 -16.897   5.605  1.00  0.00     0.050 C 
HETATM   23  C   UNL     1      44.374 -18.999   4.285  1.00  0.00     0.009 A 
HETATM   24  C   UNL     1      43.979 -19.749   3.178  1.00  0.00     0.001 A 
HETATM   25  C   UNL     1      43.172 -19.172   2.204  1.00  0.00     0.002 A 
HETATM   26  C   UNL     1      42.739 -17.854   2.353  1.00  0.00     0.030 A 
ENDBRANCH  17  20
ENDBRANCH  15  16
ENDBRANCH   1  15
TORSDOF 3
ENDMDL
MODEL 2
REMARK VINA RESULT:      -8.4      2.428      3.410
REMARK  3 active torsions:
REMARK  status: ('A' for Active; 'I' for Inactive)
REMARK    1  A    between atoms: C_3  and  N_4 
REMARK       I    between atoms: N_4  and  C_5 
REMARK    2  A    between atoms: C_5  and  C_6 
REMARK    3  A    between atoms: C_6  and  C_7 
ROOT
HETATM    1  C   UNL     1      41.827 -13.855   5.234  1.00  0.00     0.286 C 
HETATM    2  N   UNL     1      42.141 -14.158   3.767  1.00  0.00    -0.056 N 
HETATM    3  H   UNL     1      43.152 -14.161   3.595  1.00  0.00     0.278 HD
HETATM    4  H   UNL     1      41.803 -15.131   3.601  1.00  0.00     0.278 HD
HETATM    5  C   UNL     1      41.421 -13.231   2.835  1.00  0.00     0.209 C 
HETATM    6  C   UNL     1      39.904 -13.390   3.074  1.00  0.00     0.115 C 
HETATM    7  N   UNL     1      39.554 -13.152   4.471  1.00  0.00    -0.353 N 
HETATM    8  C   UNL     1      40.317 -13.642   5.509  1.00  0.00     0.249 C 
HETATM    9  O   UNL     1      39.821 -13.796   6.620  1.00  0.00    -0.271 OA
HETATM   10  C   UNL     1      41.798 -13.552   1.394  1.00  0.00     0.035 C 
HETATM   11  C   UNL     1      41.015 -12.656   0.433  1.00  0.00     0.002 C 
HETATM   12  C   UNL     1      39.506 -12.745   0.668  1.00  0.00     0.002 C 
HETATM   13  C   UNL     1      39.125 -12.478   2.126  1.00  0.00     0.027 C 
HETATM   14  H   UNL     1      38.565 -13.094   4.712  1.00  0.00     0.163 HD
ENDROOT
BRANCH   1  15
HETATM   15  C   UNL     1      42.416 -14.941   6.143  1.00  0.00     0.146 C 
BRANCH  15  16
HETATM   16  C   UNL     1      42.298 -16.291   5.475  1.00  0.00     0.224 C 
HETATM   17  N   UNL     1      43.507 -16.847   5.124  1.00  0.00    -0.327 N 
HETATM   18  H   UNL     1      44.272 -16.205   4.941  1.00  0.00     0.169 HD
HETATM   19  O   UNL     1      41.181 -16.728   5.199  1.00  0.00    -0.273 OA
BRANCH  17  20
HETATM   20  C   UNL     1      43.645 -18.129   4.545  1.00  0.00     0.040 A 
HETATM   21  C   UNL     1      43.534 -18.378   3.165  1.00  0.00    -0.035 A 
HETATM   22  C   UNL     1      43.141 -17.338   2.151  1.00  0.00     0.050 C 
HETATM   23  C   UNL     1      43.741 -19.689   2.697  1.00  0.00     0.009 A 
HETATM   24  C   UNL     1      43.999 -20.737   3.581  1.00  0.00     0.001 A 
HETATM   25  C   UNL     1      44.039 -20.494   4.948  1.00  0.00     0.002 A 
HETATM   26  C   UNL     1      43.849 -19.198   5.430  1.00  0.00     0.030 A 
ENDBRANCH  17  20
ENDBRANCH  15  16
ENDBRANCH   1  15
TORSDOF 3
ENDMDL
MODEL 3
REMARK VINA RESULT:      -8.3      3.816      6.299
REMARK  3 active torsions:
REMARK  status: ('A' for Active; 'I' for Inactive)
REMARK    1  A    between atoms: C_3  and  N_4 
REMARK       I    between atoms: N_4  and  C_5 
REMARK    2  A    between atoms: C_5  and  C_6 
REMARK    3  A    between atoms: C_6  and  C_7 
ROOT
HETATM    1  C   UNL     1      42.013 -12.826   5.479  1.00  0.00     0.286 C 
HETATM    2  N   UNL     1      43.494 -12.440   5.445  1.00  0.00    -0.056 N 
HETATM    3  H   UNL     1      44.082 -13.243   5.199  1.00  0.00     0.278 HD
HETATM    4  H   UNL     1      43.587 -11.747   4.672  1.00  0.00     0.278 HD
HETATM    5  C   UNL     1      43.936 -11.797   6.725  1.00  0.00     0.209 C 
HETATM    6  C   UNL     1      43.084 -10.529   6.947  1.00  0.00     0.115 C 
HETATM    7  N   UNL     1      41.657 -10.835   6.946  1.00  0.00    -0.353 N 
HETATM    8  C   UNL     1      41.097 -11.707   6.036  1.00  0.00     0.249 C 
HETATM    9  O   UNL     1      39.901 -11.643   5.777  1.00  0.00    -0.271 OA
HETATM   10  C   UNL     1      45.422 -11.469   6.652  1.00  0.00     0.035 C 
HETATM   11  C   UNL     1      45.866 -10.751   7.926  1.00  0.00     0.002 C 
HETATM   12  C   UNL     1      45.016  -9.512   8.212  1.00  0.00     0.002 C 
HETATM   13  C   UNL     1      43.517  -9.824   8.233  1.00  0.00     0.027 C 
HETATM   14  H   UNL     1      41.011 -10.096   7.222  1.00  0.00     0.163 HD
ENDROOT
BRANCH   1  15
HETATM   15  C   UNL     1      41.550 -13.291   4.093  1.00  0.00     0.146 C 
BRANCH  15  16
HETATM   16  C   UNL     1      42.437 -14.412   3.602  1.00  0.00     0.224 C 
HETATM   17  N   UNL     1      42.158 -15.633   4.170  1.00  0.00    -0.327 N 
HETATM   18  H   UNL     1      41.739 -15.625   5.095  1.00  0.00     0.169 HD
HETATM   19  O   UNL     1      43.378 -14.147   2.853  1.00  0.00    -0.273 OA
BRANCH  17  20
HETATM   20  C   UNL     1      42.817 -16.833   3.818  1.00  0.00     0.040 A 
HETATM   21  C   UNL     1      43.853 -17.407   4.579  1.00  0.00    -0.035 A 
HETATM   22  C   UNL     1      44.466 -16.759   5.790  1.00  0.00     0.050 C 
HETATM   23  C   UNL     1      44.400 -18.633   4.156  1.00  0.00     0.009 A 
HETATM   24  C   UNL     1      43.968 -19.248   2.981  1.00  0.00     0.001 A 
HETATM   25  C   UNL     1      42.993 -18.640   2.201  1.00  0.00     0.002 A 
HETATM   26  C   UNL     1      42.429 -17.431   2.610  1.00  0.00     0.030 A 
ENDBRANCH  17  20
ENDBRANCH  15  16
ENDBRANCH   1  15
TORSDOF 3
ENDMDL
MODEL 4
REMARK VINA RESULT:      -8.3      1.594      7.493
REMARK  3 active torsions:
REMARK  status: ('A' for Active; 'I' for Inactive)
REMARK    1  A    between atoms: C_3  and  N_4 
REMARK       I    between atoms: N_4  and  C_5 
REMARK    2  A    between atoms: C_5  and  C_6 
REMARK    3  A    between atoms: C_6  and  C_7 
ROOT
HETATM    1  C   UNL     1      42.122 -16.328   2.500  1.00  0.00     0.286 C 
HETATM    2  N   UNL     1      42.851 -17.578   2.001  1.00  0.00    -0.056 N 
HETATM    3  H   UNL     1      42.420 -17.945   1.147  1.00  0.00     0.278 HD
HETATM    4  H   UNL     1      43.811 -17.261   1.745  1.00  0.00     0.278 HD
HETATM    5  C   UNL     1      42.958 -18.629   3.066  1.00  0.00     0.209 C 
HETATM    6  C   UNL     1      43.732 -18.029   4.259  1.00  0.00     0.115 C 
HETATM    7  N   UNL     1      43.101 -16.807   4.749  1.00  0.00    -0.353 N 
HETATM    8  C   UNL     1      42.604 -15.848   3.892  1.00  0.00     0.249 C 
HETATM    9  O   UNL     1      42.464 -14.692   4.276  1.00  0.00    -0.271 OA
HETATM   10  C   UNL     1      43.656 -19.862   2.506  1.00  0.00     0.035 C 
HETATM   11  C   UNL     1      43.831 -20.911   3.604  1.00  0.00     0.002 C 
HETATM   12  C   UNL     1      44.552 -20.346   4.828  1.00  0.00     0.002 C 
HETATM   13  C   UNL     1      43.887 -19.075   5.363  1.00  0.00     0.027 C 
HETATM   14  H   UNL     1      43.449 -16.407   5.618  1.00  0.00     0.163 HD
ENDROOT
BRANCH   1  15
HETATM   15  C   UNL     1      42.209 -15.206   1.458  1.00  0.00     0.146 C 
BRANCH  15  16
HETATM   16  C   UNL     1      40.849 -14.965   0.846  1.00  0.00     0.224 C 
HETATM   17  N   UNL     1      40.879 -14.194  -0.293  1.00  0.00    -0.327 N 
HETATM   18  H   UNL     1      41.649 -13.540  -0.385  1.00  0.00     0.169 HD
HETATM   19  O   UNL     1      39.845 -15.356   1.443  1.00  0.00    -0.273 OA
BRANCH  17  20
HETATM   20  C   UNL     1      39.736 -13.891  -1.068  1.00  0.00     0.040 A 
HETATM   21  C   UNL     1      38.885 -12.799  -0.811  1.00  0.00    -0.035 A 
HETATM   22  C   UNL     1      39.016 -11.894   0.384  1.00  0.00     0.050 C 
HETATM   23  C   UNL     1      37.805 -12.567  -1.682  1.00  0.00     0.009 A 
HETATM   24  C   UNL     1      37.543 -13.424  -2.750  1.00  0.00     0.001 A 
HETATM   25  C   UNL     1      38.348 -14.538  -2.956  1.00  0.00     0.002 A 
HETATM   26  C   UNL     1      39.431 -14.778  -2.110  1.00  0.00     0.030 A 
ENDBRANCH  17  20
ENDBRANCH  15  16
ENDBRANCH   1  15
TORSDOF 3
ENDMDL
MODEL 5
REMARK VINA RESULT:      -7.7      1.371      2.581
REMARK  3 active torsions:
REMARK  status: ('A' for Active; 'I' for Inactive)
REMARK    1  A    between atoms: C_3  and  N_4 
REMARK       I    between atoms: N_4  and  C_5 
REMARK    2  A    between atoms: C_5  and  C_6 
REMARK    3  A    between atoms: C_6  and  C_7 
ROOT
HETATM    1  C   UNL     1      41.270 -13.583   1.804  1.00  0.00     0.286 C 
HETATM    2  N   UNL     1      40.219 -14.291   0.945  1.00  0.00    -0.056 N 
HETATM    3  H   UNL     1      40.229 -15.303   1.104  1.00  0.00     0.278 HD
HETATM    4  H   UNL     1      39.297 -13.939   1.282  1.00  0.00     0.278 HD
HETATM    5  C   UNL     1      40.362 -13.954  -0.509  1.00  0.00     0.209 C 
HETATM    6  C   UNL     1      40.205 -12.427  -0.668  1.00  0.00     0.115 C 
HETATM    7  N   UNL     1      41.159 -11.700   0.164  1.00  0.00    -0.353 N 
HETATM    8  C   UNL     1      41.436 -12.081   1.460  1.00  0.00     0.249 C 
HETATM    9  O   UNL     1      41.893 -11.268   2.257  1.00  0.00    -0.271 OA
HETATM   10  C   UNL     1      39.319 -14.713  -1.319  1.00  0.00     0.035 C 
HETATM   11  C   UNL     1      39.412 -14.323  -2.794  1.00  0.00     0.002 C 
HETATM   12  C   UNL     1      39.309 -12.811  -2.995  1.00  0.00     0.002 C 
HETATM   13  C   UNL     1      40.319 -12.038  -2.142  1.00  0.00     0.027 C 
HETATM   14  H   UNL     1      41.236 -10.693   0.032  1.00  0.00     0.163 HD
ENDROOT
BRANCH   1  15
HETATM   15  C   UNL     1      40.971 -13.788   3.294  1.00  0.00     0.146 C 
BRANCH  15  16
HETATM   16  C   UNL     1      41.222 -15.228   3.676  1.00  0.00     0.224 C 
HETATM   17  N   UNL     1      42.541 -15.510   3.952  1.00  0.00    -0.327 N 
HETATM   18  H   UNL     1      43.239 -14.929   3.499  1.00  0.00     0.169 HD
HETATM   19  O   UNL     1      40.297 -16.037   3.605  1.00  0.00    -0.273 OA
BRANCH  17  20
HETATM   20  C   UNL     1      43.000 -16.773   4.390  1.00  0.00     0.040 A 
HETATM   21  C   UNL     1      43.469 -17.777   3.523  1.00  0.00    -0.035 A 
HETATM   22  C   UNL     1      43.430 -17.678   2.022  1.00  0.00     0.050 C 
HETATM   23  C   UNL     1      43.949 -18.977   4.078  1.00  0.00     0.009 A 
HETATM   24  C   UNL     1      43.916 -19.198   5.454  1.00  0.00     0.001 A 
HETATM   25  C   UNL     1      43.388 -18.229   6.298  1.00  0.00     0.002 A 
HETATM   26  C   UNL     1      42.919 -17.027   5.767  1.00  0.00     0.030 A 
ENDBRANCH  17  20
ENDBRANCH  15  16
ENDBRANCH   1  15
TORSDOF 3
ENDMDL
MODEL 6
REMARK VINA RESULT:      -7.7      5.208      7.631
REMARK  3 active torsions:
REMARK  status: ('A' for Active; 'I' for Inactive)
REMARK    1  A    between atoms: C_3  and  N_4 
REMARK       I    between atoms: N_4  and  C_5 
REMARK    2  A    between atoms: C_5  and  C_6 
REMARK    3  A    between atoms: C_6  and  C_7 
ROOT
HETATM    1  C   UNL     1      43.233 -12.905   4.586  1.00  0.00     0.286 C 
HETATM    2  N   UNL     1      42.748 -14.305   4.971  1.00  0.00    -0.056 N 
HETATM    3  H   UNL     1      42.948 -14.511   5.955  1.00  0.00     0.278 HD
HETATM    4  H   UNL     1      41.710 -14.281   4.870  1.00  0.00     0.278 HD
HETATM    5  C   UNL     1      43.297 -15.361   4.059  1.00  0.00     0.209 C 
HETATM    6  C   UNL     1      42.839 -15.040   2.620  1.00  0.00     0.115 C 
HETATM    7  N   UNL     1      43.241 -13.696   2.216  1.00  0.00    -0.353 N 
HETATM    8  C   UNL     1      43.138 -12.616   3.067  1.00  0.00     0.249 C 
HETATM    9  O   UNL     1      43.080 -11.478   2.614  1.00  0.00    -0.271 OA
HETATM   10  C   UNL     1      42.815 -16.734   4.509  1.00  0.00     0.035 C 
HETATM   11  C   UNL     1      43.314 -17.809   3.544  1.00  0.00     0.002 C 
HETATM   12  C   UNL     1      42.923 -17.507   2.097  1.00  0.00     0.002 C 
HETATM   13  C   UNL     1      43.357 -16.107   1.655  1.00  0.00     0.027 C 
HETATM   14  H   UNL     1      43.112 -13.433   1.240  1.00  0.00     0.163 HD
ENDROOT
BRANCH   1  15
HETATM   15  C   UNL     1      42.498 -11.839   5.408  1.00  0.00     0.146 C 
BRANCH  15  16
HETATM   16  C   UNL     1      43.146 -11.696   6.765  1.00  0.00     0.224 C 
HETATM   17  N   UNL     1      43.215 -10.398   7.217  1.00  0.00    -0.327 N 
HETATM   18  H   UNL     1      43.241  -9.668   6.512  1.00  0.00     0.169 HD
HETATM   19  O   UNL     1      43.649 -12.687   7.296  1.00  0.00    -0.273 OA
BRANCH  17  20
HETATM   20  C   UNL     1      43.723 -10.032   8.483  1.00  0.00     0.040 A 
HETATM   21  C   UNL     1      45.096  -9.922   8.772  1.00  0.00    -0.035 A 
HETATM   22  C   UNL     1      46.190 -10.294   7.809  1.00  0.00     0.050 C 
HETATM   23  C   UNL     1      45.483  -9.500  10.058  1.00  0.00     0.009 A 
HETATM   24  C   UNL     1      44.535  -9.243  11.048  1.00  0.00     0.001 A 
HETATM   25  C   UNL     1      43.184  -9.420  10.774  1.00  0.00     0.002 A 
HETATM   26  C   UNL     1      42.781  -9.826   9.502  1.00  0.00     0.030 A 
ENDBRANCH  17  20
ENDBRANCH  15  16
ENDBRANCH   1  15
TORSDOF 3
ENDMDL
MODEL 7
REMARK VINA RESULT:      -7.6     14.000     15.457
REMARK  3 active torsions:
REMARK  status: ('A' for Active; 'I' for Inactive)
REMARK    1  A    between atoms: C_3  and  N_4 
REMARK       I    between atoms: N_4  and  C_5 
REMARK    2  A    between atoms: C_5  and  C_6 
REMARK    3  A    between atoms: C_6  and  C_7 
ROOT
HETATM    1  C   UNL     1      44.060 -29.472   0.986  1.00  0.00     0.286 C 
HETATM    2  N   UNL     1      44.922 -28.616   0.054  1.00  0.00    -0.056 N 
HETATM    3  H   UNL     1      44.896 -27.628   0.326  1.00  0.00     0.278 HD
HETATM    4  H   UNL     1      45.902 -28.944   0.196  1.00  0.00     0.278 HD
HETATM    5  C   UNL     1      44.552 -28.806  -1.386  1.00  0.00     0.209 C 
HETATM    6  C   UNL     1      44.745 -30.297  -1.740  1.00  0.00     0.115 C 
HETATM    7  N   UNL     1      43.975 -31.163  -0.852  1.00  0.00    -0.353 N 
HETATM    8  C   UNL     1      43.903 -30.937   0.506  1.00  0.00     0.249 C 
HETATM    9  O   UNL     1      43.621 -31.854   1.270  1.00  0.00    -0.271 OA
HETATM   10  C   UNL     1      45.411 -27.905  -2.263  1.00  0.00     0.035 C 
HETATM   11  C   UNL     1      45.089 -28.144  -3.739  1.00  0.00     0.002 C 
HETATM   12  C   UNL     1      45.221 -29.619  -4.123  1.00  0.00     0.002 C 
HETATM   13  C   UNL     1      44.401 -30.535  -3.211  1.00  0.00     0.027 C 
HETATM   14  H   UNL     1      43.920 -32.154  -1.083  1.00  0.00     0.163 HD
ENDROOT
BRANCH   1  15
HETATM   15  C   UNL     1      44.596 -29.406   2.422  1.00  0.00     0.146 C 
BRANCH  15  16
HETATM   16  C   UNL     1      46.081 -29.129   2.405  1.00  0.00     0.224 C 
HETATM   17  N   UNL     1      46.857 -30.233   2.676  1.00  0.00    -0.327 N 
HETATM   18  H   UNL     1      46.437 -30.961   3.245  1.00  0.00     0.169 HD
HETATM   19  O   UNL     1      46.474 -27.970   2.272  1.00  0.00    -0.273 OA
BRANCH  17  20
HETATM   20  C   UNL     1      48.270 -30.227   2.653  1.00  0.00     0.040 A 
HETATM   21  C   UNL     1      49.033 -30.291   1.471  1.00  0.00    -0.035 A 
HETATM   22  C   UNL     1      48.445 -30.492   0.101  1.00  0.00     0.050 C 
HETATM   23  C   UNL     1      50.435 -30.225   1.570  1.00  0.00     0.009 A 
HETATM   24  C   UNL     1      51.068 -30.152   2.810  1.00  0.00     0.001 A 
HETATM   25  C   UNL     1      50.310 -30.158   3.974  1.00  0.00     0.002 A 
HETATM   26  C   UNL     1      48.918 -30.210   3.897  1.00  0.00     0.030 A 
ENDBRANCH  17  20
ENDBRANCH  15  16
ENDBRANCH   1  15
TORSDOF 3
ENDMDL
MODEL 8
REMARK VINA RESULT:      -7.5      1.923      7.557
REMARK  3 active torsions:
REMARK  status: ('A' for Active; 'I' for Inactive)
REMARK    1  A    between atoms: C_3  and  N_4 
REMARK       I    between atoms: N_4  and  C_5 
REMARK    2  A    between atoms: C_5  and  C_6 
REMARK    3  A    between atoms: C_6  and  C_7 
ROOT
HETATM    1  C   UNL     1      41.767 -15.303   2.953  1.00  0.00     0.286 C 
HETATM    2  N   UNL     1      42.657 -16.450   3.437  1.00  0.00    -0.056 N 
HETATM    3  H   UNL     1      42.451 -17.319   2.934  1.00  0.00     0.278 HD
HETATM    4  H   UNL     1      43.631 -16.176   3.185  1.00  0.00     0.278 HD
HETATM    5  C   UNL     1      42.577 -16.635   4.922  1.00  0.00     0.209 C 
HETATM    6  C   UNL     1      43.027 -15.321   5.596  1.00  0.00     0.115 C 
HETATM    7  N   UNL     1      42.236 -14.184   5.137  1.00  0.00    -0.353 N 
HETATM    8  C   UNL     1      41.894 -14.019   3.811  1.00  0.00     0.249 C 
HETATM    9  O   UNL     1      41.608 -12.907   3.382  1.00  0.00    -0.271 OA
HETATM   10  C   UNL     1      43.449 -17.810   5.344  1.00  0.00     0.035 C 
HETATM   11  C   UNL     1      43.428 -17.962   6.865  1.00  0.00     0.002 C 
HETATM   12  C   UNL     1      43.822 -16.667   7.577  1.00  0.00     0.002 C 
HETATM   13  C   UNL     1      42.985 -15.470   7.118  1.00  0.00     0.027 C 
HETATM   14  H   UNL     1      42.356 -13.294   5.619  1.00  0.00     0.163 HD
ENDROOT
BRANCH   1  15
HETATM   15  C   UNL     1      42.026 -15.013   1.469  1.00  0.00     0.146 C 
BRANCH  15  16
HETATM   16  C   UNL     1      40.717 -14.972   0.716  1.00  0.00     0.224 C 
HETATM   17  N   UNL     1      40.678 -14.026  -0.283  1.00  0.00    -0.327 N 
HETATM   18  H   UNL     1      41.276 -13.214  -0.170  1.00  0.00     0.169 HD
HETATM   19  O   UNL     1      39.780 -15.671   1.103  1.00  0.00    -0.273 OA
BRANCH  17  20
HETATM   20  C   UNL     1      39.581 -13.850  -1.157  1.00  0.00     0.040 A 
HETATM   21  C   UNL     1      38.636 -12.815  -1.025  1.00  0.00    -0.035 A 
HETATM   22  C   UNL     1      38.607 -11.845   0.124  1.00  0.00     0.050 C 
HETATM   23  C   UNL     1      37.614 -12.709  -1.986  1.00  0.00     0.009 A 
HETATM   24  C   UNL     1      37.499 -13.636  -3.021  1.00  0.00     0.001 A 
HETATM   25  C   UNL     1      38.396 -14.694  -3.105  1.00  0.00     0.002 A 
HETATM   26  C   UNL     1      39.424 -14.809  -2.168  1.00  0.00     0.030 A 
ENDBRANCH  17  20
ENDBRANCH  15  16
ENDBRANCH   1  15
TORSDOF 3
ENDMDL
MODEL 9
REMARK VINA RESULT:      -7.2      5.242      7.971
REMARK  3 active torsions:
REMARK  status: ('A' for Active; 'I' for Inactive)
REMARK    1  A    between atoms: C_3  and  N_4 
REMARK       I    between atoms: N_4  and  C_5 
REMARK    2  A    between atoms: C_5  and  C_6 
REMARK    3  A    between atoms: C_6  and  C_7 
ROOT
HETATM    1  C   UNL     1      42.610 -10.894   6.188  1.00  0.00     0.286 C 
HETATM    2  N   UNL     1      43.955 -10.496   6.799  1.00  0.00    -0.056 N 
HETATM    3  H   UNL     1      44.719 -11.065   6.420  1.00  0.00     0.278 HD
HETATM    4  H   UNL     1      44.126  -9.514   6.490  1.00  0.00     0.278 HD
HETATM    5  C   UNL     1      43.925 -10.531   8.297  1.00  0.00     0.209 C 
HETATM    6  C   UNL     1      42.835  -9.548   8.780  1.00  0.00     0.115 C 
HETATM    7  N   UNL     1      41.535  -9.858   8.192  1.00  0.00    -0.353 N 
HETATM    8  C   UNL     1      41.398 -10.205   6.865  1.00  0.00     0.249 C 
HETATM    9  O   UNL     1      40.320 -10.060   6.299  1.00  0.00    -0.271 OA
HETATM   10  C   UNL     1      45.296 -10.164   8.851  1.00  0.00     0.035 C 
HETATM   11  C   UNL     1      45.255 -10.130  10.379  1.00  0.00     0.002 C 
HETATM   12  C   UNL     1      44.156  -9.204  10.902  1.00  0.00     0.002 C 
HETATM   13  C   UNL     1      42.784  -9.533  10.308  1.00  0.00     0.027 C 
HETATM   14  H   UNL     1      40.721  -9.361   8.549  1.00  0.00     0.163 HD
ENDROOT
BRANCH   1  15
HETATM   15  C   UNL     1      42.617 -10.653   4.673  1.00  0.00     0.146 C 
BRANCH  15  16
HETATM   16  C   UNL     1      43.137 -11.879   3.959  1.00  0.00     0.224 C 
HETATM   17  N   UNL     1      42.327 -12.984   4.087  1.00  0.00    -0.327 N 
HETATM   18  H   UNL     1      41.746 -13.033   4.917  1.00  0.00     0.169 HD
HETATM   19  O   UNL     1      44.252 -11.840   3.436  1.00  0.00    -0.273 OA
BRANCH  17  20
HETATM   20  C   UNL     1      42.581 -14.222   3.454  1.00  0.00     0.040 A 
HETATM   21  C   UNL     1      42.297 -14.479   2.100  1.00  0.00    -0.035 A 
HETATM   22  C   UNL     1      41.585 -13.514   1.192  1.00  0.00     0.050 C 
HETATM   23  C   UNL     1      42.640 -15.735   1.566  1.00  0.00     0.009 A 
HETATM   24  C   UNL     1      43.201 -16.730   2.366  1.00  0.00     0.001 A 
HETATM   25  C   UNL     1      43.414 -16.491   3.718  1.00  0.00     0.002 A 
HETATM   26  C   UNL     1      43.092 -15.247   4.263  1.00  0.00     0.030 A 
ENDBRANCH  17  20
ENDBRANCH  15  16
ENDBRANCH   1  15
TORSDOF 3
ENDMDL
MODEL 10
REMARK VINA RESULT:      -7.2     14.310     16.434
REMARK  3 active torsions:
REMARK  status: ('A' for Active; 'I' for Inactive)
REMARK    1  A    between atoms: C_3  and  N_4 
REMARK       I    between atoms: N_4  and  C_5 
REMARK    2  A    between atoms: C_5  and  C_6 
REMARK    3  A    between atoms: C_6  and  C_7 
ROOT
HETATM    1  C   UNL     1      41.910 -30.799   2.653  1.00  0.00     0.286 C 
HETATM    2  N   UNL     1      42.088 -30.496   4.142  1.00  0.00    -0.056 N 
HETATM    3  H   UNL     1      43.057 -30.239   4.357  1.00  0.00     0.278 HD
HETATM    4  H   UNL     1      41.501 -29.655   4.331  1.00  0.00     0.278 HD
HETATM    5  C   UNL     1      41.608 -31.623   5.006  1.00  0.00     0.209 C 
HETATM    6  C   UNL     1      40.110 -31.854   4.709  1.00  0.00     0.115 C 
HETATM    7  N   UNL     1      39.879 -32.108   3.290  1.00  0.00    -0.353 N 
HETATM    8  C   UNL     1      40.518 -31.385   2.305  1.00  0.00     0.249 C 
HETATM    9  O   UNL     1      40.034 -31.313   1.181  1.00  0.00    -0.271 OA
HETATM   10  C   UNL     1      41.843 -31.286   6.473  1.00  0.00     0.035 C 
HETATM   11  C   UNL     1      41.293 -32.399   7.364  1.00  0.00     0.002 C 
HETATM   12  C   UNL     1      39.822 -32.696   7.070  1.00  0.00     0.002 C 
HETATM   13  C   UNL     1      39.569 -32.983   5.588  1.00  0.00     0.027 C 
HETATM   14  H   UNL     1      38.948 -32.410   3.006  1.00  0.00     0.163 HD
ENDROOT
BRANCH   1  15
HETATM   15  C   UNL     1      42.221 -29.555   1.812  1.00  0.00     0.146 C 
BRANCH  15  16
HETATM   16  C   UNL     1      43.520 -29.749   1.066  1.00  0.00     0.224 C 
HETATM   17  N   UNL     1      43.898 -28.662   0.311  1.00  0.00    -0.327 N 
HETATM   18  H   UNL     1      43.156 -28.053  -0.020  1.00  0.00     0.169 HD
HETATM   19  O   UNL     1      44.066 -30.853   1.089  1.00  0.00    -0.273 OA
BRANCH  17  20
HETATM   20  C   UNL     1      45.106 -28.593  -0.420  1.00  0.00     0.040 A 
HETATM   21  C   UNL     1      45.203 -28.874  -1.795  1.00  0.00    -0.035 A 
HETATM   22  C   UNL     1      44.064 -29.395  -2.630  1.00  0.00     0.050 C 
HETATM   23  C   UNL     1      46.450 -28.723  -2.428  1.00  0.00     0.009 A 
HETATM   24  C   UNL     1      47.584 -28.353  -1.706  1.00  0.00     0.001 A 
HETATM   25  C   UNL     1      47.493 -28.143  -0.335  1.00  0.00     0.002 A 
HETATM   26  C   UNL     1      46.262 -28.277   0.307  1.00  0.00     0.030 A 
ENDBRANCH  17  20
ENDBRANCH  15  16
ENDBRANCH   1  15
TORSDOF 3
ENDMDL
