MODEL 1
REMARK VINA RESULT:      -8.8      0.000      0.000
REMARK  6 active torsions:
REMARK  status: ('A' for Active; 'I' for Inactive)
REMARK    1  A    between atoms: C_3  and  C_4 
REMARK    2  A    between atoms: C_4  and  N_5 
REMARK    3  A    between atoms: C_4  and  C_9 
REMARK       I    between atoms: N_5  and  C_6 
REMARK       I    between atoms: C_6  and  N_7 
REMARK    4  A    between atoms: C_9  and  C_10 
REMARK       I    between atoms: C_10  and  N_11 
REMARK    5  A    between atoms: N_11  and  C_12 
REMARK    6  A    between atoms: C_14  and  C_15 
ROOT
HETATM    1  C   UNL     1      41.702 -12.606   6.157  1.00  0.00     0.133 C 
ENDROOT
BRANCH   1   2
HETATM    2  C   UNL     1      42.401 -11.339   5.658  1.00  0.00     0.128 C 
BRANCH   2   3
HETATM    3  C   UNL     1      43.669 -10.935   6.415  1.00  0.00    -0.029 A 
HETATM    4  C   UNL     1      43.711 -10.102   7.557  1.00  0.00    -0.054 A 
HETATM    5  C   UNL     1      42.503  -9.439   8.161  1.00  0.00     0.049 C 
HETATM    6  C   UNL     1      44.952  -9.837   8.171  1.00  0.00     0.007 A 
HETATM    7  C   UNL     1      46.134 -10.403   7.696  1.00  0.00     0.001 A 
HETATM    8  C   UNL     1      46.100 -11.234   6.588  1.00  0.00     0.001 A 
HETATM    9  C   UNL     1      44.885 -11.494   5.955  1.00  0.00     0.010 A 
ENDBRANCH   2   3
BRANCH   2  10
HETATM   10  N   UNL     1      42.635 -11.249   4.215  1.00  0.00    -0.339 N 
HETATM   11  C   UNL     1      41.942 -10.494   3.325  1.00  0.00     0.292 C 
HETATM   12  N   UNL     1      42.399 -10.652   2.057  1.00  0.00    -0.254 NA
HETATM   13  O   UNL     1      41.013  -9.741   3.570  1.00  0.00    -0.254 OA
HETATM   14  H   UNL     1      43.397 -10.755   1.944  1.00  0.00     0.128 HD
HETATM   15  H   UNL     1      41.969 -10.012   1.401  1.00  0.00     0.128 HD
HETATM   16  H   UNL     1      43.154 -12.015   3.812  1.00  0.00     0.164 HD
ENDBRANCH   2  10
ENDBRANCH   1   2
BRANCH   1  17
HETATM   17  C   UNL     1      41.592 -13.636   5.052  1.00  0.00     0.224 C 
HETATM   18  N   UNL     1      42.667 -14.504   5.004  1.00  0.00    -0.327 N 
HETATM   19  H   UNL     1      43.277 -14.518   5.813  1.00  0.00     0.169 HD
HETATM   20  O   UNL     1      40.614 -13.647   4.308  1.00  0.00    -0.273 OA
BRANCH  18  21
HETATM   21  C   UNL     1      42.984 -15.413   3.974  1.00  0.00     0.035 A 
HETATM   22  C   UNL     1      43.236 -16.772   4.189  1.00  0.00     0.042 A 
HETATM   23  C   UNL     1      43.491 -17.642   3.114  1.00  0.00    -0.021 A 
HETATM   24  C   UNL     1      43.496 -17.127   1.813  1.00  0.00     0.012 A 
HETATM   25  C   UNL     1      43.249 -15.771   1.589  1.00  0.00     0.003 A 
HETATM   26  C   UNL     1      42.990 -14.921   2.664  1.00  0.00     0.029 A 
BRANCH  23  27
HETATM   27  C   UNL     1      43.722 -19.061   3.337  1.00  0.00     0.010 A 
HETATM   28  C   UNL     1      43.623 -20.167   2.457  1.00  0.00     0.152 A 
HETATM   29  N   UNL     1      43.925 -21.328   3.045  1.00  0.00    -0.187 NA
HETATM   30  N   UNL     1      44.214 -20.972   4.307  1.00  0.00    -0.289 N 
HETATM   31  H   UNL     1      44.475 -21.699   4.964  1.00  0.00     0.188 HD
HETATM   32  C   UNL     1      44.113 -19.630   4.531  1.00  0.00     0.123 A 
ENDBRANCH  23  27
ENDBRANCH  18  21
ENDBRANCH   1  17
TORSDOF 6
ENDMDL
MODEL 2
REMARK VINA RESULT:      -8.7      1.825      2.888
REMARK  6 active torsions:
REMARK  status: ('A' for Active; 'I' for Inactive)
REMARK    1  A    between atoms: C_3  and  C_4 
REMARK    2  A    between atoms: C_4  and  N_5 
REMARK    3  A    between atoms: C_4  and  C_9 
REMARK       I    between atoms: N_5  and  C_6 
REMARK       I    between atoms: C_6  and  N_7 
REMARK    4  A    between atoms: C_9  and  C_10 
REMARK       I    between atoms: C_10  and  N_11 
REMARK    5  A    between atoms: N_11  and  C_12 
REMARK    6  A    between atoms: C_14  and  C_15 
ROOT
HETATM    1  C   UNL     1      42.597 -10.512   4.711  1.00  0.00     0.133 C 
ENDROOT
BRANCH   1   2
HETATM    2  C   UNL     1      42.507 -10.872   6.197  1.00  0.00     0.128 C 
BRANCH   2   3
HETATM    3  C   UNL     1      43.494 -10.149   7.117  1.00  0.00    -0.029 A 
HETATM    4  C   UNL     1      44.840 -10.527   7.333  1.00  0.00    -0.054 A 
HETATM    5  C   UNL     1      45.481 -11.744   6.724  1.00  0.00     0.049 C 
HETATM    6  C   UNL     1      45.644  -9.748   8.190  1.00  0.00     0.007 A 
HETATM    7  C   UNL     1      45.152  -8.598   8.805  1.00  0.00     0.001 A 
HETATM    8  C   UNL     1      43.839  -8.212   8.585  1.00  0.00     0.001 A 
HETATM    9  C   UNL     1      43.022  -8.978   7.756  1.00  0.00     0.010 A 
ENDBRANCH   2   3
BRANCH   2  10
HETATM   10  N   UNL     1      41.170 -10.854   6.792  1.00  0.00    -0.339 N 
HETATM   11  C   UNL     1      40.170 -11.747   6.572  1.00  0.00     0.292 C 
HETATM   12  N   UNL     1      39.045 -11.433   7.264  1.00  0.00    -0.254 NA
HETATM   13  O   UNL     1      40.214 -12.733   5.855  1.00  0.00    -0.254 OA
HETATM   14  H   UNL     1      39.174 -11.057   8.191  1.00  0.00     0.128 HD
HETATM   15  H   UNL     1      38.332 -12.149   7.200  1.00  0.00     0.128 HD
HETATM   16  H   UNL     1      40.873  -9.964   7.163  1.00  0.00     0.164 HD
ENDBRANCH   2  10
ENDBRANCH   1   2
BRANCH   1  17
HETATM   17  C   UNL     1      43.216 -11.642   3.916  1.00  0.00     0.224 C 
HETATM   18  N   UNL     1      42.413 -12.764   3.842  1.00  0.00    -0.327 N 
HETATM   19  H   UNL     1      41.443 -12.648   4.110  1.00  0.00     0.169 HD
HETATM   20  O   UNL     1      44.327 -11.507   3.408  1.00  0.00    -0.273 OA
BRANCH  18  21
HETATM   21  C   UNL     1      42.779 -14.047   3.386  1.00  0.00     0.035 A 
HETATM   22  C   UNL     1      42.982 -15.143   4.232  1.00  0.00     0.042 A 
HETATM   23  C   UNL     1      43.290 -16.413   3.714  1.00  0.00    -0.021 A 
HETATM   24  C   UNL     1      43.400 -16.570   2.327  1.00  0.00     0.012 A 
HETATM   25  C   UNL     1      43.203 -15.482   1.476  1.00  0.00     0.003 A 
HETATM   26  C   UNL     1      42.890 -14.229   2.003  1.00  0.00     0.029 A 
BRANCH  23  27
HETATM   27  C   UNL     1      43.469 -17.558   4.593  1.00  0.00     0.010 A 
HETATM   28  C   UNL     1      43.123 -17.748   5.953  1.00  0.00     0.152 A 
HETATM   29  N   UNL     1      43.452 -18.960   6.410  1.00  0.00    -0.187 NA
HETATM   30  N   UNL     1      44.016 -19.551   5.344  1.00  0.00    -0.289 N 
HETATM   31  H   UNL     1      44.359 -20.500   5.446  1.00  0.00     0.188 HD
HETATM   32  C   UNL     1      44.045 -18.759   4.234  1.00  0.00     0.123 A 
ENDBRANCH  23  27
ENDBRANCH  18  21
ENDBRANCH   1  17
TORSDOF 6
ENDMDL
MODEL 3
REMARK VINA RESULT:      -8.7      2.535      7.438
REMARK  6 active torsions:
REMARK  status: ('A' for Active; 'I' for Inactive)
REMARK    1  A    between atoms: C_3  and  C_4 
REMARK    2  A    between atoms: C_4  and  N_5 
REMARK    3  A    between atoms: C_4  and  C_9 
REMARK       I    between atoms: N_5  and  C_6 
REMARK       I    between atoms: C_6  and  N_7 
REMARK    4  A    between atoms: C_9  and  C_10 
REMARK       I    between atoms: C_10  and  N_11 
REMARK    5  A    between atoms: N_11  and  C_12 
REMARK    6  A    between atoms: C_14  and  C_15 
ROOT
HETATM    1  C   UNL     1      40.610 -16.073   4.215  1.00  0.00     0.133 C 
ENDROOT
BRANCH   1   2
HETATM    2  C   UNL     1      41.802 -16.027   3.256  1.00  0.00     0.128 C 
BRANCH   2   3
HETATM    3  C   UNL     1      42.716 -17.255   3.271  1.00  0.00    -0.029 A 
HETATM    4  C   UNL     1      43.694 -17.537   4.252  1.00  0.00    -0.054 A 
HETATM    5  C   UNL     1      44.019 -16.626   5.404  1.00  0.00     0.049 C 
HETATM    6  C   UNL     1      44.446 -18.726   4.153  1.00  0.00     0.007 A 
HETATM    7  C   UNL     1      44.226 -19.643   3.127  1.00  0.00     0.001 A 
HETATM    8  C   UNL     1      43.257 -19.382   2.171  1.00  0.00     0.001 A 
HETATM    9  C   UNL     1      42.515 -18.204   2.240  1.00  0.00     0.010 A 
ENDBRANCH   2   3
BRANCH   2  10
HETATM   10  N   UNL     1      41.514 -15.640   1.874  1.00  0.00    -0.339 N 
HETATM   11  C   UNL     1      41.561 -14.386   1.354  1.00  0.00     0.292 C 
HETATM   12  N   UNL     1      41.215 -14.365   0.042  1.00  0.00    -0.254 NA
HETATM   13  O   UNL     1      41.871 -13.362   1.940  1.00  0.00    -0.254 OA
HETATM   14  H   UNL     1      41.525 -15.144  -0.521  1.00  0.00     0.128 HD
HETATM   15  H   UNL     1      41.355 -13.459  -0.387  1.00  0.00     0.128 HD
HETATM   16  H   UNL     1      40.964 -16.301   1.345  1.00  0.00     0.164 HD
ENDBRANCH   2  10
ENDBRANCH   1   2
BRANCH   1  17
HETATM   17  C   UNL     1      40.747 -15.028   5.303  1.00  0.00     0.224 C 
HETATM   18  N   UNL     1      40.965 -13.754   4.813  1.00  0.00    -0.327 N 
HETATM   19  H   UNL     1      40.787 -13.609   3.827  1.00  0.00     0.169 HD
HETATM   20  O   UNL     1      40.658 -15.348   6.485  1.00  0.00    -0.273 OA
BRANCH  18  21
HETATM   21  C   UNL     1      41.362 -12.615   5.545  1.00  0.00     0.035 A 
HETATM   22  C   UNL     1      42.688 -12.345   5.900  1.00  0.00     0.042 A 
HETATM   23  C   UNL     1      43.030 -11.164   6.581  1.00  0.00    -0.021 A 
HETATM   24  C   UNL     1      42.018 -10.253   6.909  1.00  0.00     0.012 A 
HETATM   25  C   UNL     1      40.692 -10.517   6.561  1.00  0.00     0.003 A 
HETATM   26  C   UNL     1      40.368 -11.689   5.879  1.00  0.00     0.029 A 
BRANCH  23  27
HETATM   27  C   UNL     1      44.413 -10.868   6.922  1.00  0.00     0.010 A 
HETATM   28  C   UNL     1      44.966 -10.100   7.976  1.00  0.00     0.152 A 
HETATM   29  N   UNL     1      46.301 -10.072   7.954  1.00  0.00    -0.187 NA
HETATM   30  N   UNL     1      46.610 -10.817   6.881  1.00  0.00    -0.289 N 
HETATM   31  H   UNL     1      47.590 -10.943   6.649  1.00  0.00     0.188 HD
HETATM   32  C   UNL     1      45.520 -11.320   6.235  1.00  0.00     0.123 A 
ENDBRANCH  23  27
ENDBRANCH  18  21
ENDBRANCH   1  17
TORSDOF 6
ENDMDL
MODEL 4
REMARK VINA RESULT:      -8.6      2.938      7.956
REMARK  6 active torsions:
REMARK  status: ('A' for Active; 'I' for Inactive)
REMARK    1  A    between atoms: C_3  and  C_4 
REMARK    2  A    between atoms: C_4  and  N_5 
REMARK    3  A    between atoms: C_4  and  C_9 
REMARK       I    between atoms: N_5  and  C_6 
REMARK       I    between atoms: C_6  and  N_7 
REMARK    4  A    between atoms: C_9  and  C_10 
REMARK       I    between atoms: C_10  and  N_11 
REMARK    5  A    between atoms: N_11  and  C_12 
REMARK    6  A    between atoms: C_14  and  C_15 
ROOT
HETATM    1  C   UNL     1      43.350 -12.700   3.985  1.00  0.00     0.133 C 
ENDROOT
BRANCH   1   2
HETATM    2  C   UNL     1      42.376 -13.758   4.512  1.00  0.00     0.128 C 
BRANCH   2   3
HETATM    3  C   UNL     1      42.980 -15.135   4.799  1.00  0.00    -0.029 A 
HETATM    4  C   UNL     1      42.976 -16.233   3.907  1.00  0.00    -0.054 A 
HETATM    5  C   UNL     1      42.317 -16.218   2.555  1.00  0.00     0.049 C 
HETATM    6  C   UNL     1      43.597 -17.437   4.296  1.00  0.00     0.007 A 
HETATM    7  C   UNL     1      44.241 -17.560   5.526  1.00  0.00     0.001 A 
HETATM    8  C   UNL     1      44.263 -16.484   6.399  1.00  0.00     0.001 A 
HETATM    9  C   UNL     1      43.639 -15.290   6.041  1.00  0.00     0.010 A 
ENDBRANCH   2   3
BRANCH   2  10
HETATM   10  N   UNL     1      41.513 -13.353   5.623  1.00  0.00    -0.339 N 
HETATM   11  C   UNL     1      40.215 -12.962   5.544  1.00  0.00     0.292 C 
HETATM   12  N   UNL     1      39.707 -12.632   6.758  1.00  0.00    -0.254 NA
HETATM   13  O   UNL     1      39.530 -12.897   4.535  1.00  0.00    -0.254 OA
HETATM   14  H   UNL     1      40.005 -13.193   7.542  1.00  0.00     0.128 HD
HETATM   15  H   UNL     1      38.711 -12.449   6.731  1.00  0.00     0.128 HD
HETATM   16  H   UNL     1      41.994 -13.067   6.463  1.00  0.00     0.164 HD
ENDBRANCH   2  10
ENDBRANCH   1   2
BRANCH   1  17
HETATM   17  C   UNL     1      43.503 -11.563   4.974  1.00  0.00     0.224 C 
HETATM   18  N   UNL     1      44.545 -11.748   5.863  1.00  0.00    -0.327 N 
HETATM   19  H   UNL     1      45.217 -12.470   5.633  1.00  0.00     0.169 HD
HETATM   20  O   UNL     1      42.744 -10.598   4.932  1.00  0.00    -0.273 OA
BRANCH  18  21
HETATM   21  C   UNL     1      44.809 -11.008   7.034  1.00  0.00     0.035 A 
HETATM   22  C   UNL     1      43.952 -10.974   8.140  1.00  0.00     0.042 A 
HETATM   23  C   UNL     1      44.295 -10.263   9.303  1.00  0.00    -0.021 A 
HETATM   24  C   UNL     1      45.515  -9.577   9.341  1.00  0.00     0.012 A 
HETATM   25  C   UNL     1      46.375  -9.602   8.242  1.00  0.00     0.003 A 
HETATM   26  C   UNL     1      46.024 -10.317   7.097  1.00  0.00     0.029 A 
BRANCH  23  27
HETATM   27  C   UNL     1      43.418 -10.255  10.463  1.00  0.00     0.010 A 
HETATM   28  C   UNL     1      42.160  -9.640  10.672  1.00  0.00     0.152 A 
HETATM   29  N   UNL     1      41.662  -9.874  11.889  1.00  0.00    -0.187 NA
HETATM   30  N   UNL     1      42.603 -10.635  12.469  1.00  0.00    -0.289 N 
HETATM   31  H   UNL     1      42.451 -10.944  13.423  1.00  0.00     0.188 HD
HETATM   32  C   UNL     1      43.668 -10.896  11.659  1.00  0.00     0.123 A 
ENDBRANCH  23  27
ENDBRANCH  18  21
ENDBRANCH   1  17
TORSDOF 6
ENDMDL
MODEL 5
REMARK VINA RESULT:      -8.6      3.702      7.715
REMARK  6 active torsions:
REMARK  status: ('A' for Active; 'I' for Inactive)
REMARK    1  A    between atoms: C_3  and  C_4 
REMARK    2  A    between atoms: C_4  and  N_5 
REMARK    3  A    between atoms: C_4  and  C_9 
REMARK       I    between atoms: N_5  and  C_6 
REMARK       I    between atoms: C_6  and  N_7 
REMARK    4  A    between atoms: C_9  and  C_10 
REMARK       I    between atoms: C_10  and  N_11 
REMARK    5  A    between atoms: N_11  and  C_12 
REMARK    6  A    between atoms: C_14  and  C_15 
ROOT
HETATM    1  C   UNL     1      40.230 -15.776   3.183  1.00  0.00     0.133 C 
ENDROOT
BRANCH   1   2
HETATM    2  C   UNL     1      41.680 -15.586   3.634  1.00  0.00     0.128 C 
BRANCH   2   3
HETATM    3  C   UNL     1      42.580 -16.820   3.521  1.00  0.00    -0.029 A 
HETATM    4  C   UNL     1      43.534 -17.228   4.481  1.00  0.00    -0.054 A 
HETATM    5  C   UNL     1      43.845 -16.464   5.738  1.00  0.00     0.049 C 
HETATM    6  C   UNL     1      44.276 -18.407   4.256  1.00  0.00     0.007 A 
HETATM    7  C   UNL     1      44.066 -19.194   3.126  1.00  0.00     0.001 A 
HETATM    8  C   UNL     1      43.121 -18.810   2.188  1.00  0.00     0.001 A 
HETATM    9  C   UNL     1      42.391 -17.638   2.382  1.00  0.00     0.010 A 
ENDBRANCH   2   3
BRANCH   2  10
HETATM   10  N   UNL     1      42.379 -14.413   3.105  1.00  0.00    -0.339 N 
HETATM   11  C   UNL     1      42.842 -13.354   3.816  1.00  0.00     0.292 C 
HETATM   12  N   UNL     1      43.425 -12.421   3.021  1.00  0.00    -0.254 NA
HETATM   13  O   UNL     1      42.776 -13.198   5.025  1.00  0.00    -0.254 OA
HETATM   14  H   UNL     1      43.966 -12.765   2.241  1.00  0.00     0.128 HD
HETATM   15  H   UNL     1      43.875 -11.682   3.547  1.00  0.00     0.128 HD
HETATM   16  H   UNL     1      42.251 -14.242   2.118  1.00  0.00     0.164 HD
ENDBRANCH   2  10
ENDBRANCH   1   2
BRANCH   1  17
HETATM   17  C   UNL     1      39.843 -14.742   2.146  1.00  0.00     0.224 C 
HETATM   18  N   UNL     1      39.905 -15.218   0.850  1.00  0.00    -0.327 N 
HETATM   19  H   UNL     1      39.969 -16.222   0.737  1.00  0.00     0.169 HD
HETATM   20  O   UNL     1      39.513 -13.610   2.491  1.00  0.00    -0.273 OA
BRANCH  18  21
HETATM   21  C   UNL     1      39.836 -14.464  -0.340  1.00  0.00     0.035 A 
HETATM   22  C   UNL     1      40.337 -13.163  -0.463  1.00  0.00     0.042 A 
HETATM   23  C   UNL     1      40.291 -12.481  -1.692  1.00  0.00    -0.021 A 
HETATM   24  C   UNL     1      39.729 -13.123  -2.801  1.00  0.00     0.012 A 
HETATM   25  C   UNL     1      39.224 -14.419  -2.687  1.00  0.00     0.003 A 
HETATM   26  C   UNL     1      39.282 -15.086  -1.463  1.00  0.00     0.029 A 
BRANCH  23  27
HETATM   27  C   UNL     1      40.841 -11.141  -1.826  1.00  0.00     0.010 A 
HETATM   28  C   UNL     1      41.537 -10.326  -0.901  1.00  0.00     0.152 A 
HETATM   29  N   UNL     1      41.888  -9.142  -1.412  1.00  0.00    -0.187 NA
HETATM   30  N   UNL     1      41.412  -9.191  -2.667  1.00  0.00    -0.289 N 
HETATM   31  H   UNL     1      41.554  -8.386  -3.267  1.00  0.00     0.188 HD
HETATM   32  C   UNL     1      40.784 -10.364  -2.965  1.00  0.00     0.123 A 
ENDBRANCH  23  27
ENDBRANCH  18  21
ENDBRANCH   1  17
TORSDOF 6
ENDMDL
MODEL 6
REMARK VINA RESULT:      -8.5      2.900      8.586
REMARK  6 active torsions:
REMARK  status: ('A' for Active; 'I' for Inactive)
REMARK    1  A    between atoms: C_3  and  C_4 
REMARK    2  A    between atoms: C_4  and  N_5 
REMARK    3  A    between atoms: C_4  and  C_9 
REMARK       I    between atoms: N_5  and  C_6 
REMARK       I    between atoms: C_6  and  N_7 
REMARK    4  A    between atoms: C_9  and  C_10 
REMARK       I    between atoms: C_10  and  N_11 
REMARK    5  A    between atoms: N_11  and  C_12 
REMARK    6  A    between atoms: C_14  and  C_15 
ROOT
HETATM    1  C   UNL     1      42.464 -14.322   6.091  1.00  0.00     0.133 C 
ENDROOT
BRANCH   1   2
HETATM    2  C   UNL     1      42.247 -14.724   4.630  1.00  0.00     0.128 C 
BRANCH   2   3
HETATM    3  C   UNL     1      42.840 -16.074   4.216  1.00  0.00    -0.029 A 
HETATM    4  C   UNL     1      43.203 -16.439   2.899  1.00  0.00    -0.054 A 
HETATM    5  C   UNL     1      43.000 -15.562   1.695  1.00  0.00     0.049 C 
HETATM    6  C   UNL     1      43.767 -17.711   2.669  1.00  0.00     0.007 A 
HETATM    7  C   UNL     1      44.002 -18.604   3.714  1.00  0.00     0.001 A 
HETATM    8  C   UNL     1      43.664 -18.246   5.009  1.00  0.00     0.001 A 
HETATM    9  C   UNL     1      43.089 -17.000   5.256  1.00  0.00     0.010 A 
ENDBRANCH   2   3
BRANCH   2  10
HETATM   10  N   UNL     1      40.881 -14.604   4.116  1.00  0.00    -0.339 N 
HETATM   11  C   UNL     1      40.431 -13.701   3.207  1.00  0.00     0.292 C 
HETATM   12  N   UNL     1      39.105 -13.844   2.960  1.00  0.00    -0.254 NA
HETATM   13  O   UNL     1      41.088 -12.842   2.642  1.00  0.00    -0.254 OA
HETATM   14  H   UNL     1      38.748 -14.788   2.935  1.00  0.00     0.128 HD
HETATM   15  H   UNL     1      38.780 -13.255   2.203  1.00  0.00     0.128 HD
HETATM   16  H   UNL     1      40.165 -15.028   4.687  1.00  0.00     0.164 HD
ENDBRANCH   2  10
ENDBRANCH   1   2
BRANCH   1  17
HETATM   17  C   UNL     1      42.952 -12.892   6.194  1.00  0.00     0.224 C 
HETATM   18  N   UNL     1      44.020 -12.739   7.058  1.00  0.00    -0.327 N 
HETATM   19  H   UNL     1      44.500 -13.585   7.342  1.00  0.00     0.169 HD
HETATM   20  O   UNL     1      42.409 -12.003   5.543  1.00  0.00    -0.273 OA
BRANCH  18  21
HETATM   21  C   UNL     1      44.552 -11.530   7.550  1.00  0.00     0.035 A 
HETATM   22  C   UNL     1      43.932 -10.754   8.536  1.00  0.00     0.042 A 
HETATM   23  C   UNL     1      44.540  -9.586   9.029  1.00  0.00    -0.021 A 
HETATM   24  C   UNL     1      45.782  -9.200   8.514  1.00  0.00     0.012 A 
HETATM   25  C   UNL     1      46.407  -9.966   7.528  1.00  0.00     0.003 A 
HETATM   26  C   UNL     1      45.796 -11.126   7.053  1.00  0.00     0.029 A 
BRANCH  23  27
HETATM   27  C   UNL     1      43.909  -8.798  10.077  1.00  0.00     0.010 A 
HETATM   28  C   UNL     1      43.854  -8.991  11.479  1.00  0.00     0.152 A 
HETATM   29  N   UNL     1      43.174  -8.030  12.110  1.00  0.00    -0.187 NA
HETATM   30  N   UNL     1      42.784  -7.219  11.113  1.00  0.00    -0.289 N 
HETATM   31  H   UNL     1      42.235  -6.398  11.347  1.00  0.00     0.188 HD
HETATM   32  C   UNL     1      43.202  -7.629   9.882  1.00  0.00     0.123 A 
ENDBRANCH  23  27
ENDBRANCH  18  21
ENDBRANCH   1  17
TORSDOF 6
ENDMDL
MODEL 7
REMARK VINA RESULT:      -8.3      2.261      3.375
REMARK  6 active torsions:
REMARK  status: ('A' for Active; 'I' for Inactive)
REMARK    1  A    between atoms: C_3  and  C_4 
REMARK    2  A    between atoms: C_4  and  N_5 
REMARK    3  A    between atoms: C_4  and  C_9 
REMARK       I    between atoms: N_5  and  C_6 
REMARK       I    between atoms: C_6  and  N_7 
REMARK    4  A    between atoms: C_9  and  C_10 
REMARK       I    between atoms: C_10  and  N_11 
REMARK    5  A    between atoms: N_11  and  C_12 
REMARK    6  A    between atoms: C_14  and  C_15 
ROOT
HETATM    1  C   UNL     1      43.603 -13.069   7.139  1.00  0.00     0.133 C 
ENDROOT
BRANCH   1   2
HETATM    2  C   UNL     1      44.077 -12.075   6.075  1.00  0.00     0.128 C 
BRANCH   2   3
HETATM    3  C   UNL     1      43.081 -10.972   5.705  1.00  0.00    -0.029 A 
HETATM    4  C   UNL     1      42.607 -10.701   4.401  1.00  0.00    -0.054 A 
HETATM    5  C   UNL     1      43.066 -11.431   3.168  1.00  0.00     0.049 C 
HETATM    6  C   UNL     1      41.666  -9.668   4.211  1.00  0.00     0.007 A 
HETATM    7  C   UNL     1      41.169  -8.929   5.284  1.00  0.00     0.001 A 
HETATM    8  C   UNL     1      41.617  -9.200   6.567  1.00  0.00     0.001 A 
HETATM    9  C   UNL     1      42.561 -10.205   6.774  1.00  0.00     0.010 A 
ENDBRANCH   2   3
BRANCH   2  10
HETATM   10  N   UNL     1      45.408 -11.496   6.270  1.00  0.00    -0.339 N 
HETATM   11  C   UNL     1      45.936 -11.047   7.438  1.00  0.00     0.292 C 
HETATM   12  N   UNL     1      47.187 -10.549   7.273  1.00  0.00    -0.254 NA
HETATM   13  O   UNL     1      45.404 -11.064   8.536  1.00  0.00    -0.254 OA
HETATM   14  H   UNL     1      47.783 -11.030   6.616  1.00  0.00     0.128 HD
HETATM   15  H   UNL     1      47.636 -10.317   8.151  1.00  0.00     0.128 HD
HETATM   16  H   UNL     1      45.851 -11.140   5.437  1.00  0.00     0.164 HD
ENDBRANCH   2  10
ENDBRANCH   1   2
BRANCH   1  17
HETATM   17  C   UNL     1      43.124 -14.357   6.502  1.00  0.00     0.224 C 
HETATM   18  N   UNL     1      43.642 -14.568   5.238  1.00  0.00    -0.327 N 
HETATM   19  H   UNL     1      44.432 -13.995   4.969  1.00  0.00     0.169 HD
HETATM   20  O   UNL     1      42.353 -15.098   7.106  1.00  0.00    -0.273 OA
BRANCH  18  21
HETATM   21  C   UNL     1      43.226 -15.532   4.296  1.00  0.00     0.035 A 
HETATM   22  C   UNL     1      43.645 -16.866   4.314  1.00  0.00     0.042 A 
HETATM   23  C   UNL     1      43.152 -17.795   3.382  1.00  0.00    -0.021 A 
HETATM   24  C   UNL     1      42.230 -17.365   2.420  1.00  0.00     0.012 A 
HETATM   25  C   UNL     1      41.808 -16.034   2.392  1.00  0.00     0.003 A 
HETATM   26  C   UNL     1      42.301 -15.125   3.328  1.00  0.00     0.029 A 
BRANCH  23  27
HETATM   27  C   UNL     1      43.565 -19.190   3.422  1.00  0.00     0.010 A 
HETATM   28  C   UNL     1      43.584 -20.182   2.411  1.00  0.00     0.152 A 
HETATM   29  N   UNL     1      44.045 -21.358   2.845  1.00  0.00    -0.187 NA
HETATM   30  N   UNL     1      44.317 -21.127   4.140  1.00  0.00    -0.289 N 
HETATM   31  H   UNL     1      44.683 -21.890   4.698  1.00  0.00     0.188 HD
HETATM   32  C   UNL     1      44.053 -19.848   4.531  1.00  0.00     0.123 A 
ENDBRANCH  23  27
ENDBRANCH  18  21
ENDBRANCH   1  17
TORSDOF 6
ENDMDL
MODEL 8
REMARK VINA RESULT:      -8.2      3.875      7.477
REMARK  6 active torsions:
REMARK  status: ('A' for Active; 'I' for Inactive)
REMARK    1  A    between atoms: C_3  and  C_4 
REMARK    2  A    between atoms: C_4  and  N_5 
REMARK    3  A    between atoms: C_4  and  C_9 
REMARK       I    between atoms: N_5  and  C_6 
REMARK       I    between atoms: C_6  and  N_7 
REMARK    4  A    between atoms: C_9  and  C_10 
REMARK       I    between atoms: C_10  and  N_11 
REMARK    5  A    between atoms: N_11  and  C_12 
REMARK    6  A    between atoms: C_14  and  C_15 
ROOT
HETATM    1  C   UNL     1      42.584 -14.347   4.182  1.00  0.00     0.133 C 
ENDROOT
BRANCH   1   2
HETATM    2  C   UNL     1      41.831 -15.678   4.109  1.00  0.00     0.128 C 
BRANCH   2   3
HETATM    3  C   UNL     1      42.673 -16.900   3.731  1.00  0.00    -0.029 A 
HETATM    4  C   UNL     1      43.710 -17.454   4.515  1.00  0.00    -0.054 A 
HETATM    5  C   UNL     1      44.177 -16.877   5.824  1.00  0.00     0.049 C 
HETATM    6  C   UNL     1      44.384 -18.603   4.053  1.00  0.00     0.007 A 
HETATM    7  C   UNL     1      44.031 -19.222   2.855  1.00  0.00     0.001 A 
HETATM    8  C   UNL     1      43.004 -18.694   2.088  1.00  0.00     0.001 A 
HETATM    9  C   UNL     1      42.337 -17.548   2.519  1.00  0.00     0.010 A 
ENDBRANCH   2   3
BRANCH   2  10
HETATM   10  N   UNL     1      40.969 -16.003   5.247  1.00  0.00    -0.339 N 
HETATM   11  C   UNL     1      40.365 -15.123   6.086  1.00  0.00     0.292 C 
HETATM   12  N   UNL     1      39.649 -15.751   7.054  1.00  0.00    -0.254 NA
HETATM   13  O   UNL     1      40.417 -13.905   6.031  1.00  0.00    -0.254 OA
HETATM   14  H   UNL     1      39.157 -16.588   6.782  1.00  0.00     0.128 HD
HETATM   15  H   UNL     1      39.103 -15.110   7.617  1.00  0.00     0.128 HD
HETATM   16  H   UNL     1      41.063 -16.941   5.607  1.00  0.00     0.164 HD
ENDBRANCH   2  10
ENDBRANCH   1   2
BRANCH   1  17
HETATM   17  C   UNL     1      42.065 -13.372   3.146  1.00  0.00     0.224 C 
HETATM   18  N   UNL     1      40.686 -13.360   3.048  1.00  0.00    -0.327 N 
HETATM   19  H   UNL     1      40.173 -13.806   3.799  1.00  0.00     0.169 HD
HETATM   20  O   UNL     1      42.847 -12.686   2.493  1.00  0.00    -0.273 OA
BRANCH  18  21
HETATM   21  C   UNL     1      39.907 -12.752   2.042  1.00  0.00     0.035 A 
HETATM   22  C   UNL     1      39.761 -13.274   0.752  1.00  0.00     0.042 A 
HETATM   23  C   UNL     1      38.925 -12.654  -0.192  1.00  0.00    -0.021 A 
HETATM   24  C   UNL     1      38.237 -11.491   0.174  1.00  0.00     0.012 A 
HETATM   25  C   UNL     1      38.379 -10.961   1.457  1.00  0.00     0.003 A 
HETATM   26  C   UNL     1      39.206 -11.591   2.386  1.00  0.00     0.029 A 
BRANCH  23  27
HETATM   27  C   UNL     1      38.749 -13.216  -1.523  1.00  0.00     0.010 A 
HETATM   28  C   UNL     1      39.620 -13.993  -2.325  1.00  0.00     0.152 A 
HETATM   29  N   UNL     1      39.084 -14.326  -3.502  1.00  0.00    -0.187 NA
HETATM   30  N   UNL     1      37.868 -13.758  -3.463  1.00  0.00    -0.289 N 
HETATM   31  H   UNL     1      37.258 -13.870  -4.265  1.00  0.00     0.188 HD
HETATM   32  C   UNL     1      37.617 -13.089  -2.301  1.00  0.00     0.123 A 
ENDBRANCH  23  27
ENDBRANCH  18  21
ENDBRANCH   1  17
TORSDOF 6
ENDMDL
MODEL 9
REMARK VINA RESULT:      -7.9      8.811     13.341
REMARK  6 active torsions:
REMARK  status: ('A' for Active; 'I' for Inactive)
REMARK    1  A    between atoms: C_3  and  C_4 
REMARK    2  A    between atoms: C_4  and  N_5 
REMARK    3  A    between atoms: C_4  and  C_9 
REMARK       I    between atoms: N_5  and  C_6 
REMARK       I    between atoms: C_6  and  N_7 
REMARK    4  A    between atoms: C_9  and  C_10 
REMARK       I    between atoms: C_10  and  N_11 
REMARK    5  A    between atoms: N_11  and  C_12 
REMARK    6  A    between atoms: C_14  and  C_15 
ROOT
HETATM    1  C   UNL     1      42.635  -9.291  13.050  1.00  0.00     0.133 C 
ENDROOT
BRANCH   1   2
HETATM    2  C   UNL     1      42.210  -9.065  11.596  1.00  0.00     0.128 C 
BRANCH   2   3
HETATM    3  C   UNL     1      43.345  -9.031  10.568  1.00  0.00    -0.029 A 
HETATM    4  C   UNL     1      43.526  -8.035   9.581  1.00  0.00    -0.054 A 
HETATM    5  C   UNL     1      42.581  -6.885   9.362  1.00  0.00     0.049 C 
HETATM    6  C   UNL     1      44.636  -8.117   8.716  1.00  0.00     0.007 A 
HETATM    7  C   UNL     1      45.576  -9.139   8.833  1.00  0.00     0.001 A 
HETATM    8  C   UNL     1      45.415 -10.110   9.809  1.00  0.00     0.001 A 
HETATM    9  C   UNL     1      44.314 -10.058  10.662  1.00  0.00     0.010 A 
ENDBRANCH   2   3
BRANCH   2  10
HETATM   10  N   UNL     1      41.116  -9.902  11.100  1.00  0.00    -0.339 N 
HETATM   11  C   UNL     1      39.886  -9.483  10.708  1.00  0.00     0.292 C 
HETATM   12  N   UNL     1      39.095 -10.516  10.320  1.00  0.00    -0.254 NA
HETATM   13  O   UNL     1      39.478  -8.333  10.682  1.00  0.00    -0.254 OA
HETATM   14  H   UNL     1      39.544 -11.265   9.814  1.00  0.00     0.128 HD
HETATM   15  H   UNL     1      38.217 -10.209   9.919  1.00  0.00     0.128 HD
HETATM   16  H   UNL     1      41.178 -10.881  11.337  1.00  0.00     0.164 HD
ENDBRANCH   2  10
ENDBRANCH   1   2
BRANCH   1  17
HETATM   17  C   UNL     1      41.572  -8.796  14.009  1.00  0.00     0.224 C 
HETATM   18  N   UNL     1      41.955  -7.673  14.717  1.00  0.00    -0.327 N 
HETATM   19  H   UNL     1      42.769  -7.176  14.377  1.00  0.00     0.169 HD
HETATM   20  O   UNL     1      40.496  -9.381  14.097  1.00  0.00    -0.273 OA
BRANCH  18  21
HETATM   21  C   UNL     1      41.307  -7.108  15.835  1.00  0.00     0.035 A 
HETATM   22  C   UNL     1      41.083  -7.798  17.032  1.00  0.00     0.042 A 
HETATM   23  C   UNL     1      40.483  -7.164  18.134  1.00  0.00    -0.021 A 
HETATM   24  C   UNL     1      40.103  -5.822  18.018  1.00  0.00     0.012 A 
HETATM   25  C   UNL     1      40.319  -5.127  16.827  1.00  0.00     0.003 A 
HETATM   26  C   UNL     1      40.922  -5.766  15.744  1.00  0.00     0.029 A 
BRANCH  23  27
HETATM   27  C   UNL     1      40.280  -7.873  19.388  1.00  0.00     0.010 A 
HETATM   28  C   UNL     1      39.195  -8.663  19.842  1.00  0.00     0.152 A 
HETATM   29  N   UNL     1      39.390  -9.157  21.068  1.00  0.00    -0.187 NA
HETATM   30  N   UNL     1      40.598  -8.680  21.408  1.00  0.00    -0.289 N 
HETATM   31  H   UNL     1      40.971  -8.920  22.320  1.00  0.00     0.188 HD
HETATM   32  C   UNL     1      41.173  -7.913  20.438  1.00  0.00     0.123 A 
ENDBRANCH  23  27
ENDBRANCH  18  21
ENDBRANCH   1  17
TORSDOF 6
ENDMDL
MODEL 10
REMARK VINA RESULT:      -7.8      3.302      4.976
REMARK  6 active torsions:
REMARK  status: ('A' for Active; 'I' for Inactive)
REMARK    1  A    between atoms: C_3  and  C_4 
REMARK    2  A    between atoms: C_4  and  N_5 
REMARK    3  A    between atoms: C_4  and  C_9 
REMARK       I    between atoms: N_5  and  C_6 
REMARK       I    between atoms: C_6  and  N_7 
REMARK    4  A    between atoms: C_9  and  C_10 
REMARK       I    between atoms: C_10  and  N_11 
REMARK    5  A    between atoms: N_11  and  C_12 
REMARK    6  A    between atoms: C_14  and  C_15 
ROOT
HETATM    1  C   UNL     1      42.066  -9.548   7.516  1.00  0.00     0.133 C 
ENDROOT
BRANCH   1   2
HETATM    2  C   UNL     1      43.380  -9.204   8.222  1.00  0.00     0.128 C 
BRANCH   2   3
HETATM    3  C   UNL     1      43.297  -9.047   9.743  1.00  0.00    -0.029 A 
HETATM    4  C   UNL     1      43.129  -7.823  10.432  1.00  0.00    -0.054 A 
HETATM    5  C   UNL     1      43.066  -6.479   9.759  1.00  0.00     0.049 C 
HETATM    6  C   UNL     1      43.040  -7.832  11.839  1.00  0.00     0.007 A 
HETATM    7  C   UNL     1      43.083  -9.022  12.563  1.00  0.00     0.001 A 
HETATM    8  C   UNL     1      43.231 -10.227  11.894  1.00  0.00     0.001 A 
HETATM    9  C   UNL     1      43.339 -10.238  10.504  1.00  0.00     0.010 A 
ENDBRANCH   2   3
BRANCH   2  10
HETATM   10  N   UNL     1      44.543 -10.021   7.870  1.00  0.00    -0.339 N 
HETATM   11  C   UNL     1      45.826  -9.597   7.745  1.00  0.00     0.292 C 
HETATM   12  N   UNL     1      46.663 -10.604   7.387  1.00  0.00    -0.254 NA
HETATM   13  O   UNL     1      46.243  -8.464   7.921  1.00  0.00    -0.254 OA
HETATM   14  H   UNL     1      46.481 -11.510   7.792  1.00  0.00     0.128 HD
HETATM   15  H   UNL     1      47.637 -10.328   7.400  1.00  0.00     0.128 HD
HETATM   16  H   UNL     1      44.334 -10.894   7.408  1.00  0.00     0.164 HD
ENDBRANCH   2  10
ENDBRANCH   1   2
BRANCH   1  17
HETATM   17  C   UNL     1      42.295 -10.545   6.399  1.00  0.00     0.224 C 
HETATM   18  N   UNL     1      41.871 -11.824   6.712  1.00  0.00    -0.327 N 
HETATM   19  H   UNL     1      41.268 -11.918   7.520  1.00  0.00     0.169 HD
HETATM   20  O   UNL     1      42.808 -10.187   5.342  1.00  0.00    -0.273 OA
BRANCH  18  21
HETATM   21  C   UNL     1      42.145 -13.011   6.002  1.00  0.00     0.035 A 
HETATM   22  C   UNL     1      41.607 -13.303   4.744  1.00  0.00     0.042 A 
HETATM   23  C   UNL     1      41.962 -14.478   4.058  1.00  0.00    -0.021 A 
HETATM   24  C   UNL     1      42.864 -15.365   4.657  1.00  0.00     0.012 A 
HETATM   25  C   UNL     1      43.403 -15.083   5.913  1.00  0.00     0.003 A 
HETATM   26  C   UNL     1      43.048 -13.910   6.579  1.00  0.00     0.029 A 
BRANCH  23  27
HETATM   27  C   UNL     1      41.427 -14.766   2.736  1.00  0.00     0.010 A 
HETATM   28  C   UNL     1      40.222 -15.395   2.339  1.00  0.00     0.152 A 
HETATM   29  N   UNL     1      40.086 -15.468   1.012  1.00  0.00    -0.187 NA
HETATM   30  N   UNL     1      41.207 -14.891   0.552  1.00  0.00    -0.289 N 
HETATM   31  H   UNL     1      41.340 -14.830  -0.452  1.00  0.00     0.188 HD
HETATM   32  C   UNL     1      42.037 -14.450   1.540  1.00  0.00     0.123 A 
ENDBRANCH  23  27
ENDBRANCH  18  21
ENDBRANCH   1  17
TORSDOF 6
ENDMDL
