MODEL 1
REMARK VINA RESULT:      -8.9      0.000      0.000
REMARK  6 active torsions:
REMARK  status: ('A' for Active; 'I' for Inactive)
REMARK    1  A    between atoms: O_2  and  C_3 
REMARK    2  A    between atoms: C_6  and  C_7 
REMARK    3  A    between atoms: C_12  and  C_13 
REMARK       I    between atoms: C_13  and  N_14 
REMARK    4  A    between atoms: N_14  and  C_15 
REMARK    5  A    between atoms: C_17  and  O_18 
REMARK    6  A    between atoms: C_24  and  C_25 
ROOT
HETATM    1  C   UNL     1      40.224 -15.540   2.907  1.00  0.00     0.118 C 
HETATM    2  N   UNL     1      39.935 -15.577   1.477  1.00  0.00    -0.366 N 
HETATM    3  C   UNL     1      40.190 -14.542   0.653  1.00  0.00     0.123 A 
HETATM    4  N   UNL     1      40.689 -13.357   1.116  1.00  0.00    -0.240 N 
HETATM    5  N   UNL     1      40.788 -12.398   0.175  1.00  0.00    -0.165 NA
HETATM    6  C   UNL     1      40.436 -13.041  -0.963  1.00  0.00     0.148 A 
HETATM    7  C   UNL     1      40.050 -14.384  -0.700  1.00  0.00     0.089 A 
HETATM    8  C   UNL     1      41.038 -13.112   2.502  1.00  0.00     0.221 C 
HETATM    9  C   UNL     1      40.282 -14.088   3.420  1.00  0.00     0.066 C 
HETATM   10  H   UNL     1      39.658 -16.488   1.111  1.00  0.00     0.161 HD
ENDROOT
BRANCH   6  11
HETATM   11  C   UNL     1      40.456 -12.374  -2.278  1.00  0.00     0.276 C 
HETATM   12  N   UNL     1      39.985 -11.078  -2.205  1.00  0.00    -0.322 N 
HETATM   13  H   UNL     1      39.684 -10.810  -1.271  1.00  0.00     0.169 HD
HETATM   14  O   UNL     1      40.846 -12.955  -3.285  1.00  0.00    -0.266 OA
BRANCH  12  15
HETATM   15  C   UNL     1      39.866 -10.131  -3.237  1.00  0.00     0.037 A 
HETATM   16  C   UNL     1      40.949  -9.434  -3.778  1.00  0.00     0.066 A 
HETATM   17  C   UNL     1      40.736  -8.505  -4.797  1.00  0.00     0.067 A 
HETATM   18  C   UNL     1      39.462  -8.264  -5.294  1.00  0.00     0.036 A 
HETATM   19  C   UNL     1      38.377  -8.955  -4.759  1.00  0.00     0.005 A 
HETATM   20  C   UNL     1      38.580  -9.881  -3.732  1.00  0.00     0.029 A 
BRANCH  17  21
HETATM   21  O   UNL     1      41.772  -7.801  -5.340  1.00  0.00    -0.361 OA
HETATM   22  H   UNL     1      41.440  -6.926  -5.605  1.00  0.00     0.217 HD
ENDBRANCH  17  21
ENDBRANCH  12  15
ENDBRANCH   6  11
BRANCH   8  23
HETATM   23  C   UNL     1      42.540 -13.141   2.668  1.00  0.00     0.409 C 
HETATM   24  F   UNL     1      43.167 -14.007   1.852  1.00  0.00    -0.169 F 
HETATM   25  F   UNL     1      43.088 -11.920   2.457  1.00  0.00    -0.169 F 
HETATM   26  F   UNL     1      42.861 -13.483   3.943  1.00  0.00    -0.169 F 
ENDBRANCH   8  23
BRANCH   1  27
HETATM   27  C   UNL     1      41.410 -16.407   3.292  1.00  0.00    -0.035 A 
HETATM   28  C   UNL     1      42.106 -17.205   2.373  1.00  0.00     0.012 A 
HETATM   29  C   UNL     1      43.176 -18.007   2.782  1.00  0.00     0.037 A 
HETATM   30  C   UNL     1      43.575 -18.039   4.117  1.00  0.00     0.068 A 
HETATM   31  C   UNL     1      42.889 -17.261   5.047  1.00  0.00     0.037 A 
HETATM   32  C   UNL     1      41.819 -16.455   4.637  1.00  0.00     0.012 A 
BRANCH  30  33
HETATM   33  O   UNL     1      44.630 -18.868   4.380  1.00  0.00    -0.356 OA
HETATM   34  C   UNL     1      44.325 -20.156   4.896  1.00  0.00     0.210 C 
ENDBRANCH  30  33
ENDBRANCH   1  27
TORSDOF 6
ENDMDL
MODEL 2
REMARK VINA RESULT:      -8.8      5.815      8.637
REMARK  6 active torsions:
REMARK  status: ('A' for Active; 'I' for Inactive)
REMARK    1  A    between atoms: O_2  and  C_3 
REMARK    2  A    between atoms: C_6  and  C_7 
REMARK    3  A    between atoms: C_12  and  C_13 
REMARK       I    between atoms: C_13  and  N_14 
REMARK    4  A    between atoms: N_14  and  C_15 
REMARK    5  A    between atoms: C_17  and  O_18 
REMARK    6  A    between atoms: C_24  and  C_25 
ROOT
HETATM    1  C   UNL     1      42.354 -15.313   2.655  1.00  0.00     0.118 C 
HETATM    2  N   UNL     1      43.184 -14.211   3.132  1.00  0.00    -0.366 N 
HETATM    3  C   UNL     1      42.817 -13.407   4.150  1.00  0.00     0.123 A 
HETATM    4  N   UNL     1      41.606 -13.536   4.771  1.00  0.00    -0.240 N 
HETATM    5  N   UNL     1      41.360 -12.588   5.695  1.00  0.00    -0.165 NA
HETATM    6  C   UNL     1      42.517 -11.886   5.738  1.00  0.00     0.148 A 
HETATM    7  C   UNL     1      43.450 -12.369   4.779  1.00  0.00     0.089 A 
HETATM    8  C   UNL     1      40.635 -14.561   4.445  1.00  0.00     0.221 C 
HETATM    9  C   UNL     1      40.874 -15.085   3.018  1.00  0.00     0.066 C 
HETATM   10  H   UNL     1      44.125 -14.172   2.742  1.00  0.00     0.161 HD
ENDROOT
BRANCH   6  11
HETATM   11  C   UNL     1      42.719 -10.765   6.674  1.00  0.00     0.276 C 
HETATM   12  N   UNL     1      43.199 -11.194   7.896  1.00  0.00    -0.322 N 
HETATM   13  H   UNL     1      43.309 -12.204   7.954  1.00  0.00     0.169 HD
HETATM   14  O   UNL     1      42.464  -9.610   6.354  1.00  0.00    -0.266 OA
BRANCH  12  15
HETATM   15  C   UNL     1      43.524 -10.426   9.027  1.00  0.00     0.037 A 
HETATM   16  C   UNL     1      42.586  -9.706   9.771  1.00  0.00     0.066 A 
HETATM   17  C   UNL     1      43.001  -8.963  10.876  1.00  0.00     0.067 A 
HETATM   18  C   UNL     1      44.336  -8.930  11.259  1.00  0.00     0.036 A 
HETATM   19  C   UNL     1      45.277  -9.645  10.522  1.00  0.00     0.005 A 
HETATM   20  C   UNL     1      44.872 -10.386   9.408  1.00  0.00     0.029 A 
BRANCH  17  21
HETATM   21  O   UNL     1      42.111  -8.242  11.618  1.00  0.00    -0.361 OA
HETATM   22  H   UNL     1      42.574  -7.468  11.982  1.00  0.00     0.217 HD
ENDBRANCH  17  21
ENDBRANCH  12  15
ENDBRANCH   6  11
BRANCH   8  23
HETATM   23  C   UNL     1      40.642 -15.636   5.508  1.00  0.00     0.409 C 
HETATM   24  F   UNL     1      41.832 -15.803   6.112  1.00  0.00    -0.169 F 
HETATM   25  F   UNL     1      39.730 -15.382   6.478  1.00  0.00    -0.169 F 
HETATM   26  F   UNL     1      40.291 -16.830   4.966  1.00  0.00    -0.169 F 
ENDBRANCH   8  23
BRANCH   1  27
HETATM   27  C   UNL     1      42.908 -16.676   3.036  1.00  0.00    -0.035 A 
HETATM   28  C   UNL     1      43.681 -16.894   4.185  1.00  0.00     0.012 A 
HETATM   29  C   UNL     1      44.191 -18.163   4.478  1.00  0.00     0.037 A 
HETATM   30  C   UNL     1      43.949 -19.243   3.631  1.00  0.00     0.068 A 
HETATM   31  C   UNL     1      43.191 -19.043   2.479  1.00  0.00     0.037 A 
HETATM   32  C   UNL     1      42.678 -17.773   2.187  1.00  0.00     0.012 A 
BRANCH  30  33
HETATM   33  O   UNL     1      44.508 -20.423   4.033  1.00  0.00    -0.356 OA
HETATM   34  C   UNL     1      44.068 -20.955   5.276  1.00  0.00     0.210 C 
ENDBRANCH  30  33
ENDBRANCH   1  27
TORSDOF 6
ENDMDL
MODEL 3
REMARK VINA RESULT:      -8.4      5.927      8.811
REMARK  6 active torsions:
REMARK  status: ('A' for Active; 'I' for Inactive)
REMARK    1  A    between atoms: O_2  and  C_3 
REMARK    2  A    between atoms: C_6  and  C_7 
REMARK    3  A    between atoms: C_12  and  C_13 
REMARK       I    between atoms: C_13  and  N_14 
REMARK    4  A    between atoms: N_14  and  C_15 
REMARK    5  A    between atoms: C_17  and  O_18 
REMARK    6  A    between atoms: C_24  and  C_25 
ROOT
HETATM    1  C   UNL     1      42.240 -14.648   3.000  1.00  0.00     0.118 C 
HETATM    2  N   UNL     1      43.244 -13.685   3.443  1.00  0.00    -0.366 N 
HETATM    3  C   UNL     1      43.124 -12.977   4.584  1.00  0.00     0.123 A 
HETATM    4  N   UNL     1      42.017 -13.073   5.380  1.00  0.00    -0.240 N 
HETATM    5  N   UNL     1      42.017 -12.222   6.424  1.00  0.00    -0.165 NA
HETATM    6  C   UNL     1      43.234 -11.633   6.347  1.00  0.00     0.148 A 
HETATM    7  C   UNL     1      43.952 -12.079   5.203  1.00  0.00     0.089 A 
HETATM    8  C   UNL     1      40.905 -13.965   5.116  1.00  0.00     0.221 C 
HETATM    9  C   UNL     1      40.866 -14.336   3.623  1.00  0.00     0.066 C 
HETATM   10  H   UNL     1      44.113 -13.683   2.910  1.00  0.00     0.161 HD
ENDROOT
BRANCH   6  11
HETATM   11  C   UNL     1      43.694 -10.652   7.346  1.00  0.00     0.276 C 
HETATM   12  N   UNL     1      42.755 -10.448   8.338  1.00  0.00    -0.322 N 
HETATM   13  H   UNL     1      41.902 -10.986   8.203  1.00  0.00     0.169 HD
HETATM   14  O   UNL     1      44.787 -10.104   7.250  1.00  0.00    -0.266 OA
BRANCH  12  15
HETATM   15  C   UNL     1      42.836  -9.605   9.459  1.00  0.00     0.037 A 
HETATM   16  C   UNL     1      42.476  -8.255   9.442  1.00  0.00     0.066 A 
HETATM   17  C   UNL     1      42.597  -7.490  10.602  1.00  0.00     0.067 A 
HETATM   18  C   UNL     1      43.064  -8.049  11.785  1.00  0.00     0.036 A 
HETATM   19  C   UNL     1      43.426  -9.393  11.810  1.00  0.00     0.005 A 
HETATM   20  C   UNL     1      43.316 -10.166  10.650  1.00  0.00     0.029 A 
BRANCH  17  21
HETATM   21  O   UNL     1      42.262  -6.167  10.615  1.00  0.00    -0.361 OA
HETATM   22  H   UNL     1      42.343  -5.841  11.528  1.00  0.00     0.217 HD
ENDBRANCH  17  21
ENDBRANCH  12  15
ENDBRANCH   6  11
BRANCH   8  23
HETATM   23  C   UNL     1      40.964 -15.153   6.048  1.00  0.00     0.409 C 
HETATM   24  F   UNL     1      42.173 -15.359   6.601  1.00  0.00    -0.169 F 
HETATM   25  F   UNL     1      40.073 -15.033   7.063  1.00  0.00    -0.169 F 
HETATM   26  F   UNL     1      40.625 -16.286   5.382  1.00  0.00    -0.169 F 
ENDBRANCH   8  23
BRANCH   1  27
HETATM   27  C   UNL     1      42.701 -16.088   3.144  1.00  0.00    -0.035 A 
HETATM   28  C   UNL     1      43.626 -16.504   4.111  1.00  0.00     0.012 A 
HETATM   29  C   UNL     1      44.039 -17.838   4.186  1.00  0.00     0.037 A 
HETATM   30  C   UNL     1      43.545 -18.789   3.295  1.00  0.00     0.068 A 
HETATM   31  C   UNL     1      42.633 -18.392   2.320  1.00  0.00     0.037 A 
HETATM   32  C   UNL     1      42.216 -17.057   2.247  1.00  0.00     0.012 A 
BRANCH  30  33
HETATM   33  O   UNL     1      44.035 -20.052   3.476  1.00  0.00    -0.356 OA
HETATM   34  C   UNL     1      44.159 -20.509   4.816  1.00  0.00     0.210 C 
ENDBRANCH  30  33
ENDBRANCH   1  27
TORSDOF 6
ENDMDL
MODEL 4
REMARK VINA RESULT:      -8.3     13.548     17.044
REMARK  6 active torsions:
REMARK  status: ('A' for Active; 'I' for Inactive)
REMARK    1  A    between atoms: O_2  and  C_3 
REMARK    2  A    between atoms: C_6  and  C_7 
REMARK    3  A    between atoms: C_12  and  C_13 
REMARK       I    between atoms: C_13  and  N_14 
REMARK    4  A    between atoms: N_14  and  C_15 
REMARK    5  A    between atoms: C_17  and  O_18 
REMARK    6  A    between atoms: C_24  and  C_25 
ROOT
HETATM    1  C   UNL     1      41.834  -7.322  11.175  1.00  0.00     0.118 C 
HETATM    2  N   UNL     1      42.436  -6.714  12.358  1.00  0.00    -0.366 N 
HETATM    3  C   UNL     1      42.014  -6.979  13.611  1.00  0.00     0.123 A 
HETATM    4  N   UNL     1      40.947  -7.797  13.855  1.00  0.00    -0.240 N 
HETATM    5  N   UNL     1      40.597  -7.870  15.153  1.00  0.00    -0.165 NA
HETATM    6  C   UNL     1      41.557  -7.147  15.776  1.00  0.00     0.148 A 
HETATM    7  C   UNL     1      42.458  -6.569  14.839  1.00  0.00     0.089 A 
HETATM    8  C   UNL     1      40.207  -8.494  12.820  1.00  0.00     0.221 C 
HETATM    9  C   UNL     1      40.394  -7.785  11.466  1.00  0.00     0.066 C 
HETATM   10  H   UNL     1      43.290  -6.184  12.190  1.00  0.00     0.161 HD
ENDROOT
BRANCH   6  11
HETATM   11  C   UNL     1      41.602  -7.002  17.242  1.00  0.00     0.276 C 
HETATM   12  N   UNL     1      41.083  -8.110  17.885  1.00  0.00    -0.322 N 
HETATM   13  H   UNL     1      40.739  -8.823  17.246  1.00  0.00     0.169 HD
HETATM   14  O   UNL     1      42.048  -5.991  17.773  1.00  0.00    -0.266 OA
BRANCH  12  15
HETATM   15  C   UNL     1      40.969  -8.345  19.266  1.00  0.00     0.037 A 
HETATM   16  C   UNL     1      39.807  -8.096  20.001  1.00  0.00     0.066 A 
HETATM   17  C   UNL     1      39.786  -8.354  21.372  1.00  0.00     0.067 A 
HETATM   18  C   UNL     1      40.902  -8.863  22.024  1.00  0.00     0.036 A 
HETATM   19  C   UNL     1      42.064  -9.114  21.297  1.00  0.00     0.005 A 
HETATM   20  C   UNL     1      42.097  -8.851  19.925  1.00  0.00     0.029 A 
BRANCH  17  21
HETATM   21  O   UNL     1      38.670  -8.112  22.120  1.00  0.00    -0.361 OA
HETATM   22  H   UNL     1      38.244  -7.307  21.781  1.00  0.00     0.217 HD
ENDBRANCH  17  21
ENDBRANCH  12  15
ENDBRANCH   6  11
BRANCH   8  23
HETATM   23  C   UNL     1      40.586  -9.957  12.811  1.00  0.00     0.409 C 
HETATM   24  F   UNL     1      41.832 -10.205  13.254  1.00  0.00    -0.169 F 
HETATM   25  F   UNL     1      39.736 -10.696  13.565  1.00  0.00    -0.169 F 
HETATM   26  F   UNL     1      40.499 -10.453  11.550  1.00  0.00    -0.169 F 
ENDBRANCH   8  23
BRANCH   1  27
HETATM   27  C   UNL     1      42.728  -8.366  10.528  1.00  0.00    -0.035 A 
HETATM   28  C   UNL     1      43.893  -8.857  11.134  1.00  0.00     0.012 A 
HETATM   29  C   UNL     1      44.698  -9.799  10.486  1.00  0.00     0.037 A 
HETATM   30  C   UNL     1      44.367 -10.269   9.216  1.00  0.00     0.068 A 
HETATM   31  C   UNL     1      43.219  -9.784   8.594  1.00  0.00     0.037 A 
HETATM   32  C   UNL     1      42.410  -8.843   9.244  1.00  0.00     0.012 A 
BRANCH  30  33
HETATM   33  O   UNL     1      45.241 -11.182   8.697  1.00  0.00    -0.356 OA
HETATM   34  C   UNL     1      45.857 -10.854   7.459  1.00  0.00     0.210 C 
ENDBRANCH  30  33
ENDBRANCH   1  27
TORSDOF 6
ENDMDL
MODEL 5
REMARK VINA RESULT:      -8.2      5.553      8.259
REMARK  6 active torsions:
REMARK  status: ('A' for Active; 'I' for Inactive)
REMARK    1  A    between atoms: O_2  and  C_3 
REMARK    2  A    between atoms: C_6  and  C_7 
REMARK    3  A    between atoms: C_12  and  C_13 
REMARK       I    between atoms: C_13  and  N_14 
REMARK    4  A    between atoms: N_14  and  C_15 
REMARK    5  A    between atoms: C_17  and  O_18 
REMARK    6  A    between atoms: C_24  and  C_25 
ROOT
HETATM    1  C   UNL     1      43.187 -13.788   3.040  1.00  0.00     0.118 C 
HETATM    2  N   UNL     1      43.061 -13.186   4.363  1.00  0.00    -0.366 N 
HETATM    3  C   UNL     1      41.918 -12.623   4.804  1.00  0.00     0.123 A 
HETATM    4  N   UNL     1      40.808 -12.527   4.011  1.00  0.00    -0.240 N 
HETATM    5  N   UNL     1      39.791 -11.847   4.572  1.00  0.00    -0.165 NA
HETATM    6  C   UNL     1      40.238 -11.591   5.824  1.00  0.00     0.148 A 
HETATM    7  C   UNL     1      41.570 -12.059   6.002  1.00  0.00     0.089 A 
HETATM    8  C   UNL     1      40.728 -13.057   2.664  1.00  0.00     0.221 C 
HETATM    9  C   UNL     1      42.139 -13.211   2.069  1.00  0.00     0.066 C 
HETATM   10  H   UNL     1      43.848 -13.342   4.991  1.00  0.00     0.161 HD
ENDROOT
BRANCH   6  11
HETATM   11  C   UNL     1      39.408 -10.900   6.827  1.00  0.00     0.276 C 
HETATM   12  N   UNL     1      40.159 -10.057   7.624  1.00  0.00    -0.322 N 
HETATM   13  H   UNL     1      41.152 -10.072   7.403  1.00  0.00     0.169 HD
HETATM   14  O   UNL     1      38.201 -11.096   6.905  1.00  0.00    -0.266 OA
BRANCH  12  15
HETATM   15  C   UNL     1      39.725  -9.227   8.671  1.00  0.00     0.037 A 
HETATM   16  C   UNL     1      39.619  -9.647  10.000  1.00  0.00     0.066 A 
HETATM   17  C   UNL     1      39.171  -8.755  10.975  1.00  0.00     0.067 A 
HETATM   18  C   UNL     1      38.833  -7.448  10.651  1.00  0.00     0.036 A 
HETATM   19  C   UNL     1      38.936  -7.022   9.328  1.00  0.00     0.005 A 
HETATM   20  C   UNL     1      39.376  -7.911   8.343  1.00  0.00     0.029 A 
BRANCH  17  21
HETATM   21  O   UNL     1      39.048  -9.137  12.279  1.00  0.00    -0.361 OA
HETATM   22  H   UNL     1      39.162 -10.102  12.327  1.00  0.00     0.217 HD
ENDBRANCH  17  21
ENDBRANCH  12  15
ENDBRANCH   6  11
BRANCH   8  23
HETATM   23  C   UNL     1      39.911 -14.328   2.657  1.00  0.00     0.409 C 
HETATM   24  F   UNL     1      40.145 -15.126   1.600  1.00  0.00    -0.169 F 
HETATM   25  F   UNL     1      40.127 -15.065   3.773  1.00  0.00    -0.169 F 
HETATM   26  F   UNL     1      38.586 -14.031   2.653  1.00  0.00    -0.169 F 
ENDBRANCH   8  23
BRANCH   1  27
HETATM   27  C   UNL     1      43.256 -15.305   3.086  1.00  0.00    -0.035 A 
HETATM   28  C   UNL     1      43.358 -16.031   4.281  1.00  0.00     0.012 A 
HETATM   29  C   UNL     1      43.445 -17.426   4.270  1.00  0.00     0.037 A 
HETATM   30  C   UNL     1      43.440 -18.133   3.068  1.00  0.00     0.068 A 
HETATM   31  C   UNL     1      43.350 -17.427   1.870  1.00  0.00     0.037 A 
HETATM   32  C   UNL     1      43.259 -16.030   1.881  1.00  0.00     0.012 A 
BRANCH  30  33
HETATM   33  O   UNL     1      43.535 -19.489   3.201  1.00  0.00    -0.356 OA
HETATM   34  C   UNL     1      43.452 -20.261   2.010  1.00  0.00     0.210 C 
ENDBRANCH  30  33
ENDBRANCH   1  27
TORSDOF 6
ENDMDL
MODEL 6
REMARK VINA RESULT:      -8.2      6.326      9.551
REMARK  6 active torsions:
REMARK  status: ('A' for Active; 'I' for Inactive)
REMARK    1  A    between atoms: O_2  and  C_3 
REMARK    2  A    between atoms: C_6  and  C_7 
REMARK    3  A    between atoms: C_12  and  C_13 
REMARK       I    between atoms: C_13  and  N_14 
REMARK    4  A    between atoms: N_14  and  C_15 
REMARK    5  A    between atoms: C_17  and  O_18 
REMARK    6  A    between atoms: C_24  and  C_25 
ROOT
HETATM    1  C   UNL     1      43.272 -12.439   3.044  1.00  0.00     0.118 C 
HETATM    2  N   UNL     1      43.741 -11.911   4.322  1.00  0.00    -0.366 N 
HETATM    3  C   UNL     1      42.928 -11.284   5.196  1.00  0.00     0.123 A 
HETATM    4  N   UNL     1      41.611 -11.050   4.916  1.00  0.00    -0.240 N 
HETATM    5  N   UNL     1      40.973 -10.324   5.853  1.00  0.00    -0.165 NA
HETATM    6  C   UNL     1      41.903 -10.183   6.827  1.00  0.00     0.148 A 
HETATM    7  C   UNL     1      43.142 -10.768   6.446  1.00  0.00     0.089 A 
HETATM    8  C   UNL     1      40.951 -11.487   3.702  1.00  0.00     0.221 C 
HETATM    9  C   UNL     1      41.988 -11.720   2.589  1.00  0.00     0.066 C 
HETATM   10  H   UNL     1      44.693 -12.169   4.578  1.00  0.00     0.161 HD
ENDROOT
BRANCH   6  11
HETATM   11  C   UNL     1      41.612  -9.489   8.095  1.00  0.00     0.276 C 
HETATM   12  N   UNL     1      42.388  -9.966   9.133  1.00  0.00    -0.322 N 
HETATM   13  H   UNL     1      43.007 -10.725   8.858  1.00  0.00     0.169 HD
HETATM   14  O   UNL     1      40.763  -8.607   8.162  1.00  0.00    -0.266 OA
BRANCH  12  15
HETATM   15  C   UNL     1      42.406  -9.548  10.474  1.00  0.00     0.037 A 
HETATM   16  C   UNL     1      41.374  -9.804  11.380  1.00  0.00     0.066 A 
HETATM   17  C   UNL     1      41.474  -9.344  12.694  1.00  0.00     0.067 A 
HETATM   18  C   UNL     1      42.590  -8.638  13.124  1.00  0.00     0.036 A 
HETATM   19  C   UNL     1      43.623  -8.378  12.226  1.00  0.00     0.005 A 
HETATM   20  C   UNL     1      43.528  -8.828  10.906  1.00  0.00     0.029 A 
BRANCH  17  21
HETATM   21  O   UNL     1      40.479  -9.570  13.600  1.00  0.00    -0.361 OA
HETATM   22  H   UNL     1      40.601  -8.958  14.346  1.00  0.00     0.217 HD
ENDBRANCH  17  21
ENDBRANCH  12  15
ENDBRANCH   6  11
BRANCH   8  23
HETATM   23  C   UNL     1      40.076 -12.684   3.993  1.00  0.00     0.409 C 
HETATM   24  F   UNL     1      39.993 -13.564   2.978  1.00  0.00    -0.169 F 
HETATM   25  F   UNL     1      40.509 -13.365   5.081  1.00  0.00    -0.169 F 
HETATM   26  F   UNL     1      38.813 -12.279   4.281  1.00  0.00    -0.169 F 
ENDBRANCH   8  23
BRANCH   1  27
HETATM   27  C   UNL     1      43.202 -13.957   3.024  1.00  0.00    -0.035 A 
HETATM   28  C   UNL     1      43.136 -14.736   4.187  1.00  0.00     0.012 A 
HETATM   29  C   UNL     1      43.100 -16.132   4.117  1.00  0.00     0.037 A 
HETATM   30  C   UNL     1      43.136 -16.787   2.886  1.00  0.00     0.068 A 
HETATM   31  C   UNL     1      43.212 -16.028   1.720  1.00  0.00     0.037 A 
HETATM   32  C   UNL     1      43.245 -14.630   1.790  1.00  0.00     0.012 A 
BRANCH  30  33
HETATM   33  O   UNL     1      43.099 -18.150   2.961  1.00  0.00    -0.356 OA
HETATM   34  C   UNL     1      44.018 -18.772   3.849  1.00  0.00     0.210 C 
ENDBRANCH  30  33
ENDBRANCH   1  27
TORSDOF 6
ENDMDL
MODEL 7
REMARK VINA RESULT:      -8.1      7.626     10.260
REMARK  6 active torsions:
REMARK  status: ('A' for Active; 'I' for Inactive)
REMARK    1  A    between atoms: O_2  and  C_3 
REMARK    2  A    between atoms: C_6  and  C_7 
REMARK    3  A    between atoms: C_12  and  C_13 
REMARK       I    between atoms: C_13  and  N_14 
REMARK    4  A    between atoms: N_14  and  C_15 
REMARK    5  A    between atoms: C_17  and  O_18 
REMARK    6  A    between atoms: C_24  and  C_25 
ROOT
HETATM    1  C   UNL     1      42.311  -7.785   9.162  1.00  0.00     0.118 C 
HETATM    2  N   UNL     1      41.372  -8.561   8.359  1.00  0.00    -0.366 N 
HETATM    3  C   UNL     1      41.759  -9.567   7.549  1.00  0.00     0.123 A 
HETATM    4  N   UNL     1      43.076  -9.893   7.383  1.00  0.00    -0.240 N 
HETATM    5  N   UNL     1      43.292 -10.852   6.463  1.00  0.00    -0.165 NA
HETATM    6  C   UNL     1      42.042 -11.229   6.106  1.00  0.00     0.148 A 
HETATM    7  C   UNL     1      41.057 -10.441   6.763  1.00  0.00     0.089 A 
HETATM    8  C   UNL     1      44.166  -9.242   8.084  1.00  0.00     0.221 C 
HETATM    9  C   UNL     1      43.729  -7.847   8.564  1.00  0.00     0.066 C 
HETATM   10  H   UNL     1      40.386  -8.390   8.553  1.00  0.00     0.161 HD
ENDROOT
BRANCH   6  11
HETATM   11  C   UNL     1      41.796 -12.317   5.142  1.00  0.00     0.276 C 
HETATM   12  N   UNL     1      42.809 -13.256   5.156  1.00  0.00    -0.322 N 
HETATM   13  H   UNL     1      43.559 -13.030   5.806  1.00  0.00     0.169 HD
HETATM   14  O   UNL     1      40.798 -12.329   4.430  1.00  0.00    -0.266 OA
BRANCH  12  15
HETATM   15  C   UNL     1      42.923 -14.431   4.395  1.00  0.00     0.037 A 
HETATM   16  C   UNL     1      43.080 -14.444   3.007  1.00  0.00     0.066 A 
HETATM   17  C   UNL     1      43.177 -15.661   2.331  1.00  0.00     0.067 A 
HETATM   18  C   UNL     1      43.128 -16.868   3.015  1.00  0.00     0.036 A 
HETATM   19  C   UNL     1      42.971 -16.863   4.400  1.00  0.00     0.005 A 
HETATM   20  C   UNL     1      42.864 -15.650   5.084  1.00  0.00     0.029 A 
BRANCH  17  21
HETATM   21  O   UNL     1      43.322 -15.706   0.974  1.00  0.00    -0.361 OA
HETATM   22  H   UNL     1      43.644 -14.840   0.673  1.00  0.00     0.217 HD
ENDBRANCH  17  21
ENDBRANCH  12  15
ENDBRANCH   6  11
BRANCH   8  23
HETATM   23  C   UNL     1      44.682 -10.142   9.184  1.00  0.00     0.409 C 
HETATM   24  F   UNL     1      45.636 -11.003   8.786  1.00  0.00    -0.169 F 
HETATM   25  F   UNL     1      45.192  -9.425  10.215  1.00  0.00    -0.169 F 
HETATM   26  F   UNL     1      43.665 -10.876   9.702  1.00  0.00    -0.169 F 
ENDBRANCH   8  23
BRANCH   1  27
HETATM   27  C   UNL     1      42.224  -8.105  10.645  1.00  0.00    -0.035 A 
HETATM   28  C   UNL     1      43.005  -7.462  11.615  1.00  0.00     0.012 A 
HETATM   29  C   UNL     1      42.907  -7.810  12.965  1.00  0.00     0.037 A 
HETATM   30  C   UNL     1      42.034  -8.813  13.382  1.00  0.00     0.068 A 
HETATM   31  C   UNL     1      41.257  -9.471  12.431  1.00  0.00     0.037 A 
HETATM   32  C   UNL     1      41.352  -9.120  11.079  1.00  0.00     0.012 A 
BRANCH  30  33
HETATM   33  O   UNL     1      42.040  -9.057  14.727  1.00  0.00    -0.356 OA
HETATM   34  C   UNL     1      41.456  -8.067  15.564  1.00  0.00     0.210 C 
ENDBRANCH  30  33
ENDBRANCH   1  27
TORSDOF 6
ENDMDL
MODEL 8
REMARK VINA RESULT:      -8.0     16.024     19.574
REMARK  6 active torsions:
REMARK  status: ('A' for Active; 'I' for Inactive)
REMARK    1  A    between atoms: O_2  and  C_3 
REMARK    2  A    between atoms: C_6  and  C_7 
REMARK    3  A    between atoms: C_12  and  C_13 
REMARK       I    between atoms: C_13  and  N_14 
REMARK    4  A    between atoms: N_14  and  C_15 
REMARK    5  A    between atoms: C_17  and  O_18 
REMARK    6  A    between atoms: C_24  and  C_25 
ROOT
HETATM    1  C   UNL     1      46.217 -28.586  -3.112  1.00  0.00     0.118 C 
HETATM    2  N   UNL     1      47.394 -28.946  -2.328  1.00  0.00    -0.366 N 
HETATM    3  C   UNL     1      47.407 -28.931  -0.979  1.00  0.00     0.123 A 
HETATM    4  N   UNL     1      46.325 -28.519  -0.252  1.00  0.00    -0.240 N 
HETATM    5  N   UNL     1      46.544 -28.469   1.075  1.00  0.00    -0.165 NA
HETATM    6  C   UNL     1      47.791 -28.978   1.206  1.00  0.00     0.148 A 
HETATM    7  C   UNL     1      48.364 -29.273  -0.062  1.00  0.00     0.089 A 
HETATM    8  C   UNL     1      45.062 -28.115  -0.838  1.00  0.00     0.221 C 
HETATM    9  C   UNL     1      45.270 -27.682  -2.300  1.00  0.00     0.066 C 
HETATM   10  H   UNL     1      48.167 -29.347  -2.858  1.00  0.00     0.161 HD
ENDROOT
BRANCH   6  11
HETATM   11  C   UNL     1      48.428 -29.167   2.522  1.00  0.00     0.276 C 
HETATM   12  N   UNL     1      48.823 -30.475   2.721  1.00  0.00    -0.322 N 
HETATM   13  H   UNL     1      48.590 -31.089   1.943  1.00  0.00     0.169 HD
HETATM   14  O   UNL     1      48.555 -28.237   3.311  1.00  0.00    -0.266 OA
BRANCH  12  15
HETATM   15  C   UNL     1      49.470 -31.033   3.836  1.00  0.00     0.037 A 
HETATM   16  C   UNL     1      50.773 -30.706   4.221  1.00  0.00     0.066 A 
HETATM   17  C   UNL     1      51.339 -31.317   5.340  1.00  0.00     0.067 A 
HETATM   18  C   UNL     1      50.627 -32.244   6.089  1.00  0.00     0.036 A 
HETATM   19  C   UNL     1      49.328 -32.576   5.711  1.00  0.00     0.005 A 
HETATM   20  C   UNL     1      48.755 -31.975   4.587  1.00  0.00     0.029 A 
BRANCH  17  21
HETATM   21  O   UNL     1      52.613 -31.025   5.736  1.00  0.00    -0.361 OA
HETATM   22  H   UNL     1      52.730 -31.349   6.646  1.00  0.00     0.217 HD
ENDBRANCH  17  21
ENDBRANCH  12  15
ENDBRANCH   6  11
BRANCH   8  23
HETATM   23  C   UNL     1      44.036 -29.210  -0.657  1.00  0.00     0.409 C 
HETATM   24  F   UNL     1      44.564 -30.430  -0.453  1.00  0.00    -0.169 F 
HETATM   25  F   UNL     1      43.210 -28.950   0.386  1.00  0.00    -0.169 F 
HETATM   26  F   UNL     1      43.241 -29.291  -1.755  1.00  0.00    -0.169 F 
ENDBRANCH   8  23
BRANCH   1  27
HETATM   27  C   UNL     1      45.556 -29.786  -3.769  1.00  0.00    -0.035 A 
HETATM   28  C   UNL     1      45.906 -31.111  -3.472  1.00  0.00     0.012 A 
HETATM   29  C   UNL     1      45.287 -32.182  -4.123  1.00  0.00     0.037 A 
HETATM   30  C   UNL     1      44.309 -31.960  -5.092  1.00  0.00     0.068 A 
HETATM   31  C   UNL     1      43.957 -30.649  -5.408  1.00  0.00     0.037 A 
HETATM   32  C   UNL     1      44.574 -29.576  -4.753  1.00  0.00     0.012 A 
BRANCH  30  33
HETATM   33  O   UNL     1      43.790 -33.093  -5.652  1.00  0.00    -0.356 OA
HETATM   34  C   UNL     1      43.818 -34.274  -4.862  1.00  0.00     0.210 C 
ENDBRANCH  30  33
ENDBRANCH   1  27
TORSDOF 6
ENDMDL
MODEL 9
REMARK VINA RESULT:      -7.8      1.977      2.519
REMARK  6 active torsions:
REMARK  status: ('A' for Active; 'I' for Inactive)
REMARK    1  A    between atoms: O_2  and  C_3 
REMARK    2  A    between atoms: C_6  and  C_7 
REMARK    3  A    between atoms: C_12  and  C_13 
REMARK       I    between atoms: C_13  and  N_14 
REMARK    4  A    between atoms: N_14  and  C_15 
REMARK    5  A    between atoms: C_17  and  O_18 
REMARK    6  A    between atoms: C_24  and  C_25 
ROOT
HETATM    1  C   UNL     1      40.393 -14.768   4.131  1.00  0.00     0.118 C 
HETATM    2  N   UNL     1      39.860 -14.273   2.865  1.00  0.00    -0.366 N 
HETATM    3  C   UNL     1      40.170 -13.059   2.367  1.00  0.00     0.123 A 
HETATM    4  N   UNL     1      40.966 -12.181   3.048  1.00  0.00    -0.240 N 
HETATM    5  N   UNL     1      41.090 -10.979   2.455  1.00  0.00    -0.165 NA
HETATM    6  C   UNL     1      40.426 -11.138   1.286  1.00  0.00     0.148 A 
HETATM    7  C   UNL     1      39.833 -12.427   1.200  1.00  0.00     0.089 A 
HETATM    8  C   UNL     1      41.591 -12.477   4.323  1.00  0.00     0.221 C 
HETATM    9  C   UNL     1      40.826 -13.603   5.040  1.00  0.00     0.066 C 
HETATM   10  H   UNL     1      39.349 -14.957   2.308  1.00  0.00     0.161 HD
ENDROOT
BRANCH   6  11
HETATM   11  C   UNL     1      40.352 -10.067   0.275  1.00  0.00     0.276 C 
HETATM   12  N   UNL     1      41.375 -10.159  -0.648  1.00  0.00    -0.322 N 
HETATM   13  H   UNL     1      42.016 -10.928  -0.465  1.00  0.00     0.169 HD
HETATM   14  O   UNL     1      39.470  -9.217   0.306  1.00  0.00    -0.266 OA
BRANCH  12  15
HETATM   15  C   UNL     1      41.629  -9.335  -1.758  1.00  0.00     0.037 A 
HETATM   16  C   UNL     1      41.042  -9.521  -3.012  1.00  0.00     0.066 A 
HETATM   17  C   UNL     1      41.359  -8.657  -4.060  1.00  0.00     0.067 A 
HETATM   18  C   UNL     1      42.244  -7.603  -3.880  1.00  0.00     0.036 A 
HETATM   19  C   UNL     1      42.833  -7.411  -2.632  1.00  0.00     0.005 A 
HETATM   20  C   UNL     1      42.529  -8.277  -1.578  1.00  0.00     0.029 A 
BRANCH  17  21
HETATM   21  O   UNL     1      40.810  -8.818  -5.300  1.00  0.00    -0.361 OA
HETATM   22  H   UNL     1      40.599  -9.760  -5.420  1.00  0.00     0.217 HD
ENDBRANCH  17  21
ENDBRANCH  12  15
ENDBRANCH   6  11
BRANCH   8  23
HETATM   23  C   UNL     1      43.063 -12.757   4.124  1.00  0.00     0.409 C 
HETATM   24  F   UNL     1      43.351 -13.395   2.976  1.00  0.00    -0.169 F 
HETATM   25  F   UNL     1      43.794 -11.616   4.145  1.00  0.00    -0.169 F 
HETATM   26  F   UNL     1      43.533 -13.523   5.141  1.00  0.00    -0.169 F 
ENDBRANCH   8  23
BRANCH   1  27
HETATM   27  C   UNL     1      41.432 -15.861   3.945  1.00  0.00    -0.035 A 
HETATM   28  C   UNL     1      42.140 -16.433   5.012  1.00  0.00     0.012 A 
HETATM   29  C   UNL     1      43.106 -17.418   4.787  1.00  0.00     0.037 A 
HETATM   30  C   UNL     1      43.397 -17.853   3.495  1.00  0.00     0.068 A 
HETATM   31  C   UNL     1      42.711 -17.288   2.422  1.00  0.00     0.037 A 
HETATM   32  C   UNL     1      41.740 -16.303   2.647  1.00  0.00     0.012 A 
BRANCH  30  33
HETATM   33  O   UNL     1      44.364 -18.815   3.418  1.00  0.00    -0.356 OA
HETATM   34  C   UNL     1      44.421 -19.759   4.479  1.00  0.00     0.210 C 
ENDBRANCH  30  33
ENDBRANCH   1  27
TORSDOF 6
ENDMDL
MODEL 10
REMARK VINA RESULT:      -7.7     16.627     20.166
REMARK  6 active torsions:
REMARK  status: ('A' for Active; 'I' for Inactive)
REMARK    1  A    between atoms: O_2  and  C_3 
REMARK    2  A    between atoms: C_6  and  C_7 
REMARK    3  A    between atoms: C_12  and  C_13 
REMARK       I    between atoms: C_13  and  N_14 
REMARK    4  A    between atoms: N_14  and  C_15 
REMARK    5  A    between atoms: C_17  and  O_18 
REMARK    6  A    between atoms: C_24  and  C_25 
ROOT
HETATM    1  C   UNL     1      46.099 -28.238  -2.438  1.00  0.00     0.118 C 
HETATM    2  N   UNL     1      47.494 -28.579  -2.175  1.00  0.00    -0.366 N 
HETATM    3  C   UNL     1      47.901 -29.158  -1.028  1.00  0.00     0.123 A 
HETATM    4  N   UNL     1      47.035 -29.415  -0.002  1.00  0.00    -0.240 N 
HETATM    5  N   UNL     1      47.626 -29.901   1.106  1.00  0.00    -0.165 NA
HETATM    6  C   UNL     1      48.916 -30.062   0.727  1.00  0.00     0.148 A 
HETATM    7  C   UNL     1      49.125 -29.602  -0.603  1.00  0.00     0.089 A 
HETATM    8  C   UNL     1      45.611 -29.147  -0.059  1.00  0.00     0.221 C 
HETATM    9  C   UNL     1      45.315 -28.074  -1.122  1.00  0.00     0.066 C 
HETATM   10  H   UNL     1      48.124 -28.482  -2.970  1.00  0.00     0.161 HD
ENDROOT
BRANCH   6  11
HETATM   11  C   UNL     1      49.932 -30.635   1.628  1.00  0.00     0.276 C 
HETATM   12  N   UNL     1      49.429 -30.858   2.895  1.00  0.00    -0.322 N 
HETATM   13  H   UNL     1      48.459 -30.571   3.000  1.00  0.00     0.169 HD
HETATM   14  O   UNL     1      51.075 -30.857   1.245  1.00  0.00    -0.266 OA
BRANCH  12  15
HETATM   15  C   UNL     1      50.085 -31.401   4.013  1.00  0.00     0.037 A 
HETATM   16  C   UNL     1      49.822 -32.674   4.524  1.00  0.00     0.066 A 
HETATM   17  C   UNL     1      50.518 -33.129   5.644  1.00  0.00     0.067 A 
HETATM   18  C   UNL     1      51.479 -32.339   6.262  1.00  0.00     0.036 A 
HETATM   19  C   UNL     1      51.746 -31.068   5.759  1.00  0.00     0.005 A 
HETATM   20  C   UNL     1      51.048 -30.600   4.642  1.00  0.00     0.029 A 
BRANCH  17  21
HETATM   21  O   UNL     1      50.277 -34.364   6.173  1.00  0.00    -0.361 OA
HETATM   22  H   UNL     1      50.211 -35.001   5.441  1.00  0.00     0.217 HD
ENDBRANCH  17  21
ENDBRANCH  12  15
ENDBRANCH   6  11
BRANCH   8  23
HETATM   23  C   UNL     1      44.850 -30.438  -0.253  1.00  0.00     0.409 C 
HETATM   24  F   UNL     1      43.682 -30.295  -0.904  1.00  0.00    -0.169 F 
HETATM   25  F   UNL     1      45.583 -31.350  -0.937  1.00  0.00    -0.169 F 
HETATM   26  F   UNL     1      44.576 -31.003   0.950  1.00  0.00    -0.169 F 
ENDBRANCH   8  23
BRANCH   1  27
HETATM   27  C   UNL     1      45.451 -29.151  -3.464  1.00  0.00    -0.035 A 
HETATM   28  C   UNL     1      44.128 -28.995  -3.902  1.00  0.00     0.012 A 
HETATM   29  C   UNL     1      43.568 -29.879  -4.829  1.00  0.00     0.037 A 
HETATM   30  C   UNL     1      44.310 -30.944  -5.338  1.00  0.00     0.068 A 
HETATM   31  C   UNL     1      45.622 -31.121  -4.907  1.00  0.00     0.037 A 
HETATM   32  C   UNL     1      46.185 -30.234  -3.980  1.00  0.00     0.012 A 
BRANCH  30  33
HETATM   33  O   UNL     1      43.641 -31.732  -6.232  1.00  0.00    -0.356 OA
HETATM   34  C   UNL     1      43.927 -31.531  -7.610  1.00  0.00     0.210 C 
ENDBRANCH  30  33
ENDBRANCH   1  27
TORSDOF 6
ENDMDL
