MODEL 1
REMARK VINA RESULT:      -8.8      0.000      0.000
REMARK  4 active torsions:
REMARK  status: ('A' for Active; 'I' for Inactive)
REMARK    1  A    between atoms: C_3  and  C_4 
REMARK       I    between atoms: C_4  and  N_5 
REMARK    2  A    between atoms: N_5  and  C_6 
REMARK    3  A    between atoms: C_13  and  C_14 
REMARK       I    between atoms: C_14  and  N_15 
REMARK    4  A    between atoms: C_25  and  O_26 
ROOT
HETATM    1  C   UNL     1      42.680 -13.971   5.889  1.00  0.00     0.280 C 
HETATM    2  N   UNL     1      43.424 -14.367   4.792  1.00  0.00    -0.321 N 
HETATM    3  O   UNL     1      41.769 -14.613   6.400  1.00  0.00    -0.265 OA
HETATM    4  H   UNL     1      44.123 -13.694   4.498  1.00  0.00     0.169 HD
ENDROOT
BRANCH   2   5
HETATM    5  C   UNL     1      43.366 -15.582   4.083  1.00  0.00     0.036 A 
HETATM    6  C   UNL     1      43.559 -16.839   4.671  1.00  0.00     0.046 A 
HETATM    7  C   UNL     1      43.517 -17.999   3.866  1.00  0.00     0.030 A 
HETATM    8  C   UNL     1      43.278 -17.864   2.505  1.00  0.00     0.063 A 
HETATM    9  C   UNL     1      43.671 -19.404   4.077  1.00  0.00     0.156 A 
HETATM   10  N   UNL     1      43.303 -19.135   2.003  1.00  0.00    -0.277 N 
HETATM   11  C   UNL     1      43.071 -16.629   1.886  1.00  0.00     0.034 A 
HETATM   12  H   UNL     1      43.169 -19.417   1.039  1.00  0.00     0.189 HD
HETATM   13  N   UNL     1      43.538 -20.090   2.918  1.00  0.00    -0.168 NA
HETATM   14  C   UNL     1      43.122 -15.494   2.705  1.00  0.00     0.032 A 
BRANCH   9  15
HETATM   15  C   UNL     1      43.945 -20.097   5.342  1.00  0.00     0.270 C 
HETATM   16  N   UNL     1      44.724 -21.215   5.210  1.00  0.00    -0.365 N 
HETATM   17  H   UNL     1      45.046 -21.473   4.286  1.00  0.00     0.159 HD
HETATM   18  H   UNL     1      44.967 -21.754   6.025  1.00  0.00     0.159 HD
HETATM   19  O   UNL     1      43.532 -19.739   6.440  1.00  0.00    -0.266 OA
ENDBRANCH   9  15
ENDBRANCH   2   5
BRANCH   1  20
HETATM   20  C   UNL     1      43.108 -12.682   6.413  1.00  0.00     0.150 A 
HETATM   21  C   UNL     1      42.439 -11.469   6.533  1.00  0.00    -0.009 A 
HETATM   22  C   UNL     1      41.046 -11.181   6.104  1.00  0.00     0.052 C 
HETATM   23  C   UNL     1      43.347 -10.578   7.181  1.00  0.00     0.009 A 
HETATM   24  C   UNL     1      44.516 -11.298   7.385  1.00  0.00     0.087 A 
HETATM   25  C   UNL     1      43.308  -9.243   7.627  1.00  0.00     0.051 A 
HETATM   26  O   UNL     1      44.378 -12.566   6.919  1.00  0.00    -0.304 OA
HETATM   27  C   UNL     1      45.657 -10.782   7.993  1.00  0.00     0.041 A 
HETATM   28  C   UNL     1      45.591  -9.453   8.433  1.00  0.00     0.039 A 
HETATM   29  C   UNL     1      44.430  -8.691   8.266  1.00  0.00     0.069 A 
BRANCH  29  30
HETATM   30  O   UNL     1      44.262  -7.394   8.673  1.00  0.00    -0.356 OA
HETATM   31  C   UNL     1      43.213  -7.140   9.599  1.00  0.00     0.210 C 
ENDBRANCH  29  30
ENDBRANCH   1  20
TORSDOF 4
ENDMDL
MODEL 2
REMARK VINA RESULT:      -8.7      5.227      7.544
REMARK  4 active torsions:
REMARK  status: ('A' for Active; 'I' for Inactive)
REMARK    1  A    between atoms: C_3  and  C_4 
REMARK       I    between atoms: C_4  and  N_5 
REMARK    2  A    between atoms: N_5  and  C_6 
REMARK    3  A    between atoms: C_13  and  C_14 
REMARK       I    between atoms: C_14  and  N_15 
REMARK    4  A    between atoms: C_25  and  O_26 
ROOT
HETATM    1  C   UNL     1      40.660 -15.106   1.027  1.00  0.00     0.280 C 
HETATM    2  N   UNL     1      41.959 -15.277   1.473  1.00  0.00    -0.321 N 
HETATM    3  O   UNL     1      39.693 -15.768   1.385  1.00  0.00    -0.265 OA
HETATM    4  H   UNL     1      42.631 -14.647   1.048  1.00  0.00     0.169 HD
ENDROOT
BRANCH   2   5
HETATM    5  C   UNL     1      42.441 -16.160   2.458  1.00  0.00     0.036 A 
HETATM    6  C   UNL     1      42.224 -15.991   3.832  1.00  0.00     0.046 A 
HETATM    7  C   UNL     1      42.782 -16.913   4.745  1.00  0.00     0.030 A 
HETATM    8  C   UNL     1      43.529 -17.975   4.253  1.00  0.00     0.063 A 
HETATM    9  C   UNL     1      42.799 -17.075   6.164  1.00  0.00     0.156 A 
HETATM   10  N   UNL     1      43.932 -18.677   5.355  1.00  0.00    -0.277 N 
HETATM   11  C   UNL     1      43.757 -18.182   2.891  1.00  0.00     0.034 A 
HETATM   12  H   UNL     1      44.501 -19.515   5.374  1.00  0.00     0.189 HD
HETATM   13  N   UNL     1      43.514 -18.165   6.524  1.00  0.00    -0.168 NA
HETATM   14  C   UNL     1      43.198 -17.251   2.007  1.00  0.00     0.032 A 
BRANCH   9  15
HETATM   15  C   UNL     1      42.161 -16.218   7.172  1.00  0.00     0.270 C 
HETATM   16  N   UNL     1      42.997 -15.830   8.185  1.00  0.00    -0.365 N 
HETATM   17  H   UNL     1      43.958 -16.146   8.167  1.00  0.00     0.159 HD
HETATM   18  H   UNL     1      42.648 -15.238   8.921  1.00  0.00     0.159 HD
HETATM   19  O   UNL     1      40.989 -15.859   7.146  1.00  0.00    -0.266 OA
ENDBRANCH   9  15
ENDBRANCH   2   5
BRANCH   1  20
HETATM   20  C   UNL     1      40.541 -14.012   0.073  1.00  0.00     0.150 A 
HETATM   21  C   UNL     1      39.885 -13.925  -1.150  1.00  0.00    -0.009 A 
HETATM   22  C   UNL     1      39.122 -15.007  -1.823  1.00  0.00     0.052 C 
HETATM   23  C   UNL     1      40.065 -12.582  -1.601  1.00  0.00     0.009 A 
HETATM   24  C   UNL     1      40.841 -11.952  -0.639  1.00  0.00     0.087 A 
HETATM   25  C   UNL     1      39.649 -11.826  -2.713  1.00  0.00     0.051 A 
HETATM   26  O   UNL     1      41.136 -12.812   0.371  1.00  0.00    -0.304 OA
HETATM   27  C   UNL     1      41.246 -10.622  -0.708  1.00  0.00     0.041 A 
HETATM   28  C   UNL     1      40.814  -9.889  -1.821  1.00  0.00     0.039 A 
HETATM   29  C   UNL     1      40.016 -10.474  -2.810  1.00  0.00     0.069 A 
BRANCH  29  30
HETATM   30  O   UNL     1      39.533  -9.840  -3.923  1.00  0.00    -0.356 OA
HETATM   31  C   UNL     1      40.395  -8.902  -4.556  1.00  0.00     0.210 C 
ENDBRANCH  29  30
ENDBRANCH   1  20
TORSDOF 4
ENDMDL
MODEL 3
REMARK VINA RESULT:      -8.7      3.076      9.340
REMARK  4 active torsions:
REMARK  status: ('A' for Active; 'I' for Inactive)
REMARK    1  A    between atoms: C_3  and  C_4 
REMARK       I    between atoms: C_4  and  N_5 
REMARK    2  A    between atoms: N_5  and  C_6 
REMARK    3  A    between atoms: C_13  and  C_14 
REMARK       I    between atoms: C_14  and  N_15 
REMARK    4  A    between atoms: C_25  and  O_26 
ROOT
HETATM    1  C   UNL     1      43.065 -13.691   5.990  1.00  0.00     0.280 C 
HETATM    2  N   UNL     1      44.235 -13.190   6.534  1.00  0.00    -0.321 N 
HETATM    3  O   UNL     1      41.971 -13.142   6.028  1.00  0.00    -0.265 OA
HETATM    4  H   UNL     1      45.040 -13.797   6.422  1.00  0.00     0.169 HD
ENDROOT
BRANCH   2   5
HETATM    5  C   UNL     1      44.450 -11.949   7.164  1.00  0.00     0.036 A 
HETATM    6  C   UNL     1      43.520 -11.331   8.010  1.00  0.00     0.046 A 
HETATM    7  C   UNL     1      43.814 -10.066   8.565  1.00  0.00     0.030 A 
HETATM    8  C   UNL     1      45.029  -9.467   8.262  1.00  0.00     0.063 A 
HETATM    9  C   UNL     1      43.150  -9.141   9.428  1.00  0.00     0.156 A 
HETATM   10  N   UNL     1      45.022  -8.273   8.928  1.00  0.00    -0.277 N 
HETATM   11  C   UNL     1      45.984 -10.057   7.432  1.00  0.00     0.034 A 
HETATM   12  H   UNL     1      45.751  -7.569   8.933  1.00  0.00     0.189 HD
HETATM   13  N   UNL     1      43.908  -8.040   9.640  1.00  0.00    -0.168 NA
HETATM   14  C   UNL     1      45.667 -11.309   6.890  1.00  0.00     0.032 A 
BRANCH   9  15
HETATM   15  C   UNL     1      41.824  -9.280  10.042  1.00  0.00     0.270 C 
HETATM   16  N   UNL     1      41.799 -10.099  11.139  1.00  0.00    -0.365 N 
HETATM   17  H   UNL     1      42.664 -10.531  11.440  1.00  0.00     0.159 HD
HETATM   18  H   UNL     1      40.932 -10.252  11.628  1.00  0.00     0.159 HD
HETATM   19  O   UNL     1      40.804  -8.730   9.639  1.00  0.00    -0.266 OA
ENDBRANCH   9  15
ENDBRANCH   2   5
BRANCH   1  20
HETATM   20  C   UNL     1      43.269 -14.971   5.325  1.00  0.00     0.150 A 
HETATM   21  C   UNL     1      43.645 -16.215   5.819  1.00  0.00    -0.009 A 
HETATM   22  C   UNL     1      43.973 -16.543   7.231  1.00  0.00     0.052 C 
HETATM   23  C   UNL     1      43.615 -17.109   4.707  1.00  0.00     0.009 A 
HETATM   24  C   UNL     1      43.251 -16.345   3.607  1.00  0.00     0.087 A 
HETATM   25  C   UNL     1      43.846 -18.483   4.508  1.00  0.00     0.051 A 
HETATM   26  O   UNL     1      43.046 -15.054   3.974  1.00  0.00    -0.304 OA
HETATM   27  C   UNL     1      43.111 -16.848   2.316  1.00  0.00     0.041 A 
HETATM   28  C   UNL     1      43.341 -18.219   2.146  1.00  0.00     0.039 A 
HETATM   29  C   UNL     1      43.693 -19.035   3.226  1.00  0.00     0.069 A 
BRANCH  29  30
HETATM   30  O   UNL     1      43.923 -20.384   3.165  1.00  0.00    -0.356 OA
HETATM   31  C   UNL     1      43.958 -21.088   4.400  1.00  0.00     0.210 C 
ENDBRANCH  29  30
ENDBRANCH   1  20
TORSDOF 4
ENDMDL
MODEL 4
REMARK VINA RESULT:      -8.6      2.719      9.193
REMARK  4 active torsions:
REMARK  status: ('A' for Active; 'I' for Inactive)
REMARK    1  A    between atoms: C_3  and  C_4 
REMARK       I    between atoms: C_4  and  N_5 
REMARK    2  A    between atoms: N_5  and  C_6 
REMARK    3  A    between atoms: C_13  and  C_14 
REMARK       I    between atoms: C_14  and  N_15 
REMARK    4  A    between atoms: C_25  and  O_26 
ROOT
HETATM    1  C   UNL     1      43.144 -15.131   6.847  1.00  0.00     0.280 C 
HETATM    2  N   UNL     1      43.157 -14.031   6.007  1.00  0.00    -0.321 N 
HETATM    3  O   UNL     1      43.022 -15.093   8.065  1.00  0.00    -0.265 OA
HETATM    4  H   UNL     1      43.289 -14.257   5.027  1.00  0.00     0.169 HD
ENDROOT
BRANCH   2   5
HETATM    5  C   UNL     1      42.964 -12.675   6.332  1.00  0.00     0.036 A 
HETATM    6  C   UNL     1      43.900 -11.898   7.028  1.00  0.00     0.046 A 
HETATM    7  C   UNL     1      43.597 -10.554   7.339  1.00  0.00     0.030 A 
HETATM    8  C   UNL     1      42.374 -10.031   6.939  1.00  0.00     0.063 A 
HETATM    9  C   UNL     1      44.253  -9.480   8.017  1.00  0.00     0.156 A 
HETATM   10  N   UNL     1      42.368  -8.738   7.380  1.00  0.00    -0.277 N 
HETATM   11  C   UNL     1      41.422 -10.772   6.235  1.00  0.00     0.034 A 
HETATM   12  H   UNL     1      41.629  -8.055   7.269  1.00  0.00     0.189 HD
HETATM   13  N   UNL     1      43.481  -8.369   8.035  1.00  0.00    -0.168 NA
HETATM   14  C   UNL     1      41.744 -12.103   5.942  1.00  0.00     0.032 A 
BRANCH   9  15
HETATM   15  C   UNL     1      45.580  -9.495   8.645  1.00  0.00     0.270 C 
HETATM   16  N   UNL     1      46.615  -9.319   7.766  1.00  0.00    -0.365 N 
HETATM   17  H   UNL     1      46.401  -9.194   6.785  1.00  0.00     0.159 HD
HETATM   18  H   UNL     1      47.563  -9.312   8.107  1.00  0.00     0.159 HD
HETATM   19  O   UNL     1      45.786  -9.647   9.844  1.00  0.00    -0.266 OA
ENDBRANCH   9  15
ENDBRANCH   2   5
BRANCH   1  20
HETATM   20  C   UNL     1      43.272 -16.385   6.118  1.00  0.00     0.150 A 
HETATM   21  C   UNL     1      43.330 -16.656   4.755  1.00  0.00    -0.009 A 
HETATM   22  C   UNL     1      43.242 -15.664   3.653  1.00  0.00     0.052 C 
HETATM   23  C   UNL     1      43.525 -18.066   4.639  1.00  0.00     0.009 A 
HETATM   24  C   UNL     1      43.544 -18.561   5.936  1.00  0.00     0.087 A 
HETATM   25  C   UNL     1      43.696 -18.978   3.581  1.00  0.00     0.051 A 
HETATM   26  O   UNL     1      43.387 -17.552   6.831  1.00  0.00    -0.304 OA
HETATM   27  C   UNL     1      43.711 -19.905   6.257  1.00  0.00     0.041 A 
HETATM   28  C   UNL     1      43.887 -20.792   5.187  1.00  0.00     0.039 A 
HETATM   29  C   UNL     1      43.891 -20.340   3.863  1.00  0.00     0.069 A 
BRANCH  29  30
HETATM   30  O   UNL     1      44.069 -21.122   2.753  1.00  0.00    -0.356 OA
HETATM   31  C   UNL     1      43.641 -20.583   1.509  1.00  0.00     0.210 C 
ENDBRANCH  29  30
ENDBRANCH   1  20
TORSDOF 4
ENDMDL
MODEL 5
REMARK VINA RESULT:      -8.4      2.721      3.917
REMARK  4 active torsions:
REMARK  status: ('A' for Active; 'I' for Inactive)
REMARK    1  A    between atoms: C_3  and  C_4 
REMARK       I    between atoms: C_4  and  N_5 
REMARK    2  A    between atoms: N_5  and  C_6 
REMARK    3  A    between atoms: C_13  and  C_14 
REMARK       I    between atoms: C_14  and  N_15 
REMARK    4  A    between atoms: C_25  and  O_26 
ROOT
HETATM    1  C   UNL     1      44.227 -12.102   7.029  1.00  0.00     0.280 C 
HETATM    2  N   UNL     1      43.243 -13.072   6.943  1.00  0.00    -0.321 N 
HETATM    3  O   UNL     1      45.269 -12.088   6.385  1.00  0.00    -0.265 OA
HETATM    4  H   UNL     1      42.459 -12.926   7.570  1.00  0.00     0.169 HD
ENDROOT
BRANCH   2   5
HETATM    5  C   UNL     1      43.175 -14.180   6.078  1.00  0.00     0.036 A 
HETATM    6  C   UNL     1      42.361 -14.232   4.938  1.00  0.00     0.046 A 
HETATM    7  C   UNL     1      42.335 -15.406   4.153  1.00  0.00     0.030 A 
HETATM    8  C   UNL     1      43.127 -16.482   4.529  1.00  0.00     0.063 A 
HETATM    9  C   UNL     1      41.656 -15.840   2.973  1.00  0.00     0.156 A 
HETATM   10  N   UNL     1      42.887 -17.453   3.597  1.00  0.00    -0.277 N 
HETATM   11  C   UNL     1      43.957 -16.463   5.651  1.00  0.00     0.034 A 
HETATM   12  H   UNL     1      43.293 -18.381   3.559  1.00  0.00     0.189 HD
HETATM   13  N   UNL     1      42.006 -17.105   2.645  1.00  0.00    -0.168 NA
HETATM   14  C   UNL     1      43.963 -15.290   6.415  1.00  0.00     0.032 A 
BRANCH   9  15
HETATM   15  C   UNL     1      40.689 -15.086   2.166  1.00  0.00     0.270 C 
HETATM   16  N   UNL     1      39.393 -15.203   2.593  1.00  0.00    -0.365 N 
HETATM   17  H   UNL     1      39.201 -15.777   3.405  1.00  0.00     0.159 HD
HETATM   18  H   UNL     1      38.660 -14.718   2.102  1.00  0.00     0.159 HD
HETATM   19  O   UNL     1      40.973 -14.400   1.190  1.00  0.00    -0.266 OA
ENDBRANCH   9  15
ENDBRANCH   2   5
BRANCH   1  20
HETATM   20  C   UNL     1      43.885 -11.049   7.975  1.00  0.00     0.150 A 
HETATM   21  C   UNL     1      43.031  -9.957   7.869  1.00  0.00    -0.009 A 
HETATM   22  C   UNL     1      42.236  -9.570   6.675  1.00  0.00     0.052 C 
HETATM   23  C   UNL     1      43.051  -9.312   9.142  1.00  0.00     0.009 A 
HETATM   24  C   UNL     1      43.936 -10.037   9.928  1.00  0.00     0.087 A 
HETATM   25  C   UNL     1      42.412  -8.200   9.722  1.00  0.00     0.051 A 
HETATM   26  O   UNL     1      44.445 -11.083   9.228  1.00  0.00    -0.304 OA
HETATM   27  C   UNL     1      44.241  -9.729  11.251  1.00  0.00     0.041 A 
HETATM   28  C   UNL     1      43.586  -8.622  11.807  1.00  0.00     0.039 A 
HETATM   29  C   UNL     1      42.674  -7.869  11.061  1.00  0.00     0.069 A 
BRANCH  29  30
HETATM   30  O   UNL     1      41.975  -6.782  11.516  1.00  0.00    -0.356 OA
HETATM   31  C   UNL     1      40.639  -7.009  11.946  1.00  0.00     0.210 C 
ENDBRANCH  29  30
ENDBRANCH   1  20
TORSDOF 4
ENDMDL
MODEL 6
REMARK VINA RESULT:      -8.3      5.341      7.433
REMARK  4 active torsions:
REMARK  status: ('A' for Active; 'I' for Inactive)
REMARK    1  A    between atoms: C_3  and  C_4 
REMARK       I    between atoms: C_4  and  N_5 
REMARK    2  A    between atoms: N_5  and  C_6 
REMARK    3  A    between atoms: C_13  and  C_14 
REMARK       I    between atoms: C_14  and  N_15 
REMARK    4  A    between atoms: C_25  and  O_26 
ROOT
HETATM    1  C   UNL     1      40.833 -14.465   1.193  1.00  0.00     0.280 C 
HETATM    2  N   UNL     1      42.154 -14.759   1.485  1.00  0.00    -0.321 N 
HETATM    3  O   UNL     1      39.857 -14.937   1.764  1.00  0.00    -0.265 OA
HETATM    4  H   UNL     1      42.827 -14.285   0.892  1.00  0.00     0.169 HD
ENDROOT
BRANCH   2   5
HETATM    5  C   UNL     1      42.666 -15.574   2.512  1.00  0.00     0.036 A 
HETATM    6  C   UNL     1      42.936 -16.941   2.362  1.00  0.00     0.046 A 
HETATM    7  C   UNL     1      43.415 -17.683   3.464  1.00  0.00     0.030 A 
HETATM    8  C   UNL     1      43.615 -17.032   4.675  1.00  0.00     0.063 A 
HETATM    9  C   UNL     1      43.783 -19.042   3.710  1.00  0.00     0.156 A 
HETATM   10  N   UNL     1      44.067 -17.993   5.535  1.00  0.00    -0.277 N 
HETATM   11  C   UNL     1      43.368 -15.670   4.858  1.00  0.00     0.034 A 
HETATM   12  H   UNL     1      44.314 -17.877   6.510  1.00  0.00     0.189 HD
HETATM   13  N   UNL     1      44.180 -19.217   4.992  1.00  0.00    -0.168 NA
HETATM   14  C   UNL     1      42.889 -14.958   3.752  1.00  0.00     0.032 A 
BRANCH   9  15
HETATM   15  C   UNL     1      43.756 -20.163   2.763  1.00  0.00     0.270 C 
HETATM   16  N   UNL     1      44.060 -21.375   3.323  1.00  0.00    -0.365 N 
HETATM   17  H   UNL     1      44.269 -21.412   4.313  1.00  0.00     0.159 HD
HETATM   18  H   UNL     1      44.064 -22.203   2.750  1.00  0.00     0.159 HD
HETATM   19  O   UNL     1      43.491 -20.066   1.570  1.00  0.00    -0.266 OA
ENDBRANCH   9  15
ENDBRANCH   2   5
BRANCH   1  20
HETATM   20  C   UNL     1      40.708 -13.489   0.119  1.00  0.00     0.150 A 
HETATM   21  C   UNL     1      40.026 -13.537  -1.092  1.00  0.00    -0.009 A 
HETATM   22  C   UNL     1      39.235 -14.680  -1.617  1.00  0.00     0.052 C 
HETATM   23  C   UNL     1      40.212 -12.259  -1.702  1.00  0.00     0.009 A 
HETATM   24  C   UNL     1      41.017 -11.532  -0.836  1.00  0.00     0.087 A 
HETATM   25  C   UNL     1      39.782 -11.633  -2.887  1.00  0.00     0.051 A 
HETATM   26  O   UNL     1      41.322 -12.271   0.261  1.00  0.00    -0.304 OA
HETATM   27  C   UNL     1      41.436 -10.225  -1.070  1.00  0.00     0.041 A 
HETATM   28  C   UNL     1      40.989  -9.622  -2.253  1.00  0.00     0.039 A 
HETATM   29  C   UNL     1      40.163 -10.308  -3.149  1.00  0.00     0.069 A 
BRANCH  29  30
HETATM   30  O   UNL     1      39.664  -9.802  -4.320  1.00  0.00    -0.356 OA
HETATM   31  C   UNL     1      38.318  -9.342  -4.302  1.00  0.00     0.210 C 
ENDBRANCH  29  30
ENDBRANCH   1  20
TORSDOF 4
ENDMDL
MODEL 7
REMARK VINA RESULT:      -8.2      3.992      9.131
REMARK  4 active torsions:
REMARK  status: ('A' for Active; 'I' for Inactive)
REMARK    1  A    between atoms: C_3  and  C_4 
REMARK       I    between atoms: C_4  and  N_5 
REMARK    2  A    between atoms: N_5  and  C_6 
REMARK    3  A    between atoms: C_13  and  C_14 
REMARK       I    between atoms: C_14  and  N_15 
REMARK    4  A    between atoms: C_25  and  O_26 
ROOT
HETATM    1  C   UNL     1      42.340 -13.851   3.680  1.00  0.00     0.280 C 
HETATM    2  N   UNL     1      41.021 -13.720   4.080  1.00  0.00    -0.321 N 
HETATM    3  O   UNL     1      43.078 -12.928   3.355  1.00  0.00    -0.265 OA
HETATM    4  H   UNL     1      40.561 -14.600   4.291  1.00  0.00     0.169 HD
ENDROOT
BRANCH   2   5
HETATM    5  C   UNL     1      40.274 -12.543   4.274  1.00  0.00     0.036 A 
HETATM    6  C   UNL     1      40.182 -11.871   5.500  1.00  0.00     0.046 A 
HETATM    7  C   UNL     1      39.375 -10.715   5.603  1.00  0.00     0.030 A 
HETATM    8  C   UNL     1      38.696 -10.269   4.477  1.00  0.00     0.063 A 
HETATM    9  C   UNL     1      39.025  -9.793   6.636  1.00  0.00     0.156 A 
HETATM   10  N   UNL     1      38.009  -9.159   4.883  1.00  0.00    -0.277 N 
HETATM   11  C   UNL     1      38.772 -10.907   3.238  1.00  0.00     0.034 A 
HETATM   12  H   UNL     1      37.401  -8.575   4.322  1.00  0.00     0.189 HD
HETATM   13  N   UNL     1      38.181  -8.841   6.176  1.00  0.00    -0.168 NA
HETATM   14  C   UNL     1      39.574 -12.052   3.162  1.00  0.00     0.032 A 
BRANCH   9  15
HETATM   15  C   UNL     1      39.468  -9.804   8.036  1.00  0.00     0.270 C 
HETATM   16  N   UNL     1      40.824  -9.694   8.194  1.00  0.00    -0.365 N 
HETATM   17  H   UNL     1      41.402  -9.613   7.367  1.00  0.00     0.159 HD
HETATM   18  H   UNL     1      41.220  -9.690   9.119  1.00  0.00     0.159 HD
HETATM   19  O   UNL     1      38.724  -9.901   9.006  1.00  0.00    -0.266 OA
ENDBRANCH   9  15
ENDBRANCH   2   5
BRANCH   1  20
HETATM   20  C   UNL     1      42.791 -15.235   3.702  1.00  0.00     0.150 A 
HETATM   21  C   UNL     1      43.372 -15.998   4.709  1.00  0.00    -0.009 A 
HETATM   22  C   UNL     1      43.713 -15.539   6.080  1.00  0.00     0.052 C 
HETATM   23  C   UNL     1      43.537 -17.309   4.168  1.00  0.00     0.009 A 
HETATM   24  C   UNL     1      43.072 -17.249   2.861  1.00  0.00     0.087 A 
HETATM   25  C   UNL     1      44.019 -18.544   4.641  1.00  0.00     0.051 A 
HETATM   26  O   UNL     1      42.626 -15.999   2.574  1.00  0.00    -0.304 OA
HETATM   27  C   UNL     1      43.064 -18.329   1.984  1.00  0.00     0.041 A 
HETATM   28  C   UNL     1      43.543 -19.549   2.481  1.00  0.00     0.039 A 
HETATM   29  C   UNL     1      44.006 -19.664   3.795  1.00  0.00     0.069 A 
BRANCH  29  30
HETATM   30  O   UNL     1      44.478 -20.811   4.376  1.00  0.00    -0.356 OA
HETATM   31  C   UNL     1      44.036 -21.093   5.698  1.00  0.00     0.210 C 
ENDBRANCH  29  30
ENDBRANCH   1  20
TORSDOF 4
ENDMDL
MODEL 8
REMARK VINA RESULT:      -8.2      2.035      2.798
REMARK  4 active torsions:
REMARK  status: ('A' for Active; 'I' for Inactive)
REMARK    1  A    between atoms: C_3  and  C_4 
REMARK       I    between atoms: C_4  and  N_5 
REMARK    2  A    between atoms: N_5  and  C_6 
REMARK    3  A    between atoms: C_13  and  C_14 
REMARK       I    between atoms: C_14  and  N_15 
REMARK    4  A    between atoms: C_25  and  O_26 
ROOT
HETATM    1  C   UNL     1      44.234 -11.974   6.889  1.00  0.00     0.280 C 
HETATM    2  N   UNL     1      43.184 -12.792   6.509  1.00  0.00    -0.321 N 
HETATM    3  O   UNL     1      45.366 -12.007   6.421  1.00  0.00    -0.265 OA
HETATM    4  H   UNL     1      42.325 -12.632   7.023  1.00  0.00     0.169 HD
ENDROOT
BRANCH   2   5
HETATM    5  C   UNL     1      43.149 -13.757   5.485  1.00  0.00     0.036 A 
HETATM    6  C   UNL     1      43.327 -15.131   5.701  1.00  0.00     0.046 A 
HETATM    7  C   UNL     1      43.311 -16.017   4.602  1.00  0.00     0.030 A 
HETATM    8  C   UNL     1      43.111 -15.503   3.328  1.00  0.00     0.063 A 
HETATM    9  C   UNL     1      43.461 -17.426   4.412  1.00  0.00     0.156 A 
HETATM   10  N   UNL     1      43.152 -16.582   2.489  1.00  0.00    -0.277 N 
HETATM   11  C   UNL     1      42.919 -14.143   3.076  1.00  0.00     0.034 A 
HETATM   12  H   UNL     1      43.047 -16.580   1.481  1.00  0.00     0.189 HD
HETATM   13  N   UNL     1      43.363 -17.757   3.104  1.00  0.00    -0.168 NA
HETATM   14  C   UNL     1      42.944 -13.284   4.181  1.00  0.00     0.032 A 
BRANCH   9  15
HETATM   15  C   UNL     1      43.700 -18.448   5.439  1.00  0.00     0.270 C 
HETATM   16  N   UNL     1      44.348 -19.562   4.977  1.00  0.00    -0.365 N 
HETATM   17  H   UNL     1      44.609 -19.600   4.000  1.00  0.00     0.159 HD
HETATM   18  H   UNL     1      44.557 -20.316   5.611  1.00  0.00     0.159 HD
HETATM   19  O   UNL     1      43.366 -18.352   6.615  1.00  0.00    -0.266 OA
ENDBRANCH   9  15
ENDBRANCH   2   5
BRANCH   1  20
HETATM   20  C   UNL     1      43.849 -11.022   7.922  1.00  0.00     0.150 A 
HETATM   21  C   UNL     1      42.998  -9.922   7.888  1.00  0.00    -0.009 A 
HETATM   22  C   UNL     1      42.256  -9.415   6.705  1.00  0.00     0.052 C 
HETATM   23  C   UNL     1      42.960  -9.410   9.220  1.00  0.00     0.009 A 
HETATM   24  C   UNL     1      43.809 -10.214   9.968  1.00  0.00     0.087 A 
HETATM   25  C   UNL     1      42.292  -8.361   9.880  1.00  0.00     0.051 A 
HETATM   26  O   UNL     1      44.352 -11.185   9.188  1.00  0.00    -0.304 OA
HETATM   27  C   UNL     1      44.054 -10.042  11.327  1.00  0.00     0.041 A 
HETATM   28  C   UNL     1      43.373  -8.996  11.963  1.00  0.00     0.039 A 
HETATM   29  C   UNL     1      42.493  -8.168  11.257  1.00  0.00     0.069 A 
BRANCH  29  30
HETATM   30  O   UNL     1      41.773  -7.132  11.788  1.00  0.00    -0.356 OA
HETATM   31  C   UNL     1      40.774  -7.465  12.744  1.00  0.00     0.210 C 
ENDBRANCH  29  30
ENDBRANCH   1  20
TORSDOF 4
ENDMDL
MODEL 9
REMARK VINA RESULT:      -8.2      2.912      4.721
REMARK  4 active torsions:
REMARK  status: ('A' for Active; 'I' for Inactive)
REMARK    1  A    between atoms: C_3  and  C_4 
REMARK       I    between atoms: C_4  and  N_5 
REMARK    2  A    between atoms: N_5  and  C_6 
REMARK    3  A    between atoms: C_13  and  C_14 
REMARK       I    between atoms: C_14  and  N_15 
REMARK    4  A    between atoms: C_25  and  O_26 
ROOT
HETATM    1  C   UNL     1      44.366 -11.031   8.224  1.00  0.00     0.280 C 
HETATM    2  N   UNL     1      43.267 -11.335   7.439  1.00  0.00    -0.321 N 
HETATM    3  O   UNL     1      45.528 -11.313   7.959  1.00  0.00    -0.265 OA
HETATM    4  H   UNL     1      42.380 -11.038   7.832  1.00  0.00     0.169 HD
ENDROOT
BRANCH   2   5
HETATM    5  C   UNL     1      43.235 -11.943   6.170  1.00  0.00     0.036 A 
HETATM    6  C   UNL     1      43.018 -13.313   5.966  1.00  0.00     0.046 A 
HETATM    7  C   UNL     1      43.041 -13.835   4.654  1.00  0.00     0.030 A 
HETATM    8  C   UNL     1      43.271 -12.970   3.592  1.00  0.00     0.063 A 
HETATM    9  C   UNL     1      42.883 -15.122   4.055  1.00  0.00     0.156 A 
HETATM   10  N   UNL     1      43.241 -13.754   2.472  1.00  0.00    -0.277 N 
HETATM   11  C   UNL     1      43.480 -11.600   3.756  1.00  0.00     0.034 A 
HETATM   12  H   UNL     1      43.375 -13.458   1.512  1.00  0.00     0.189 HD
HETATM   13  N   UNL     1      43.011 -15.056   2.710  1.00  0.00    -0.168 NA
HETATM   14  C   UNL     1      43.458 -11.107   5.066  1.00  0.00     0.032 A 
BRANCH   9  15
HETATM   15  C   UNL     1      42.622 -16.400   4.731  1.00  0.00     0.270 C 
HETATM   16  N   UNL     1      43.647 -17.302   4.634  1.00  0.00    -0.365 N 
HETATM   17  H   UNL     1      44.481 -17.035   4.126  1.00  0.00     0.159 HD
HETATM   18  H   UNL     1      43.559 -18.206   5.070  1.00  0.00     0.159 HD
HETATM   19  O   UNL     1      41.593 -16.674   5.339  1.00  0.00    -0.266 OA
ENDBRANCH   9  15
ENDBRANCH   2   5
BRANCH   1  20
HETATM   20  C   UNL     1      44.000 -10.299   9.429  1.00  0.00     0.150 A 
HETATM   21  C   UNL     1      43.970  -8.937   9.704  1.00  0.00    -0.009 A 
HETATM   22  C   UNL     1      44.353  -7.839   8.779  1.00  0.00     0.052 C 
HETATM   23  C   UNL     1      43.465  -8.812  11.034  1.00  0.00     0.009 A 
HETATM   24  C   UNL     1      43.250 -10.106  11.488  1.00  0.00     0.087 A 
HETATM   25  C   UNL     1      43.157  -7.748  11.902  1.00  0.00     0.051 A 
HETATM   26  O   UNL     1      43.576 -11.007  10.525  1.00  0.00    -0.304 OA
HETATM   27  C   UNL     1      42.759 -10.420  12.752  1.00  0.00     0.041 A 
HETATM   28  C   UNL     1      42.454  -9.344  13.595  1.00  0.00     0.039 A 
HETATM   29  C   UNL     1      42.638  -8.021  13.178  1.00  0.00     0.069 A 
BRANCH  29  30
HETATM   30  O   UNL     1      42.357  -6.905  13.920  1.00  0.00    -0.356 OA
HETATM   31  C   UNL     1      40.986  -6.636  14.187  1.00  0.00     0.210 C 
ENDBRANCH  29  30
ENDBRANCH   1  20
TORSDOF 4
ENDMDL
MODEL 10
REMARK VINA RESULT:      -8.1      5.146      7.787
REMARK  4 active torsions:
REMARK  status: ('A' for Active; 'I' for Inactive)
REMARK    1  A    between atoms: C_3  and  C_4 
REMARK       I    between atoms: C_4  and  N_5 
REMARK    2  A    between atoms: N_5  and  C_6 
REMARK    3  A    between atoms: C_13  and  C_14 
REMARK       I    between atoms: C_14  and  N_15 
REMARK    4  A    between atoms: C_25  and  O_26 
ROOT
HETATM    1  C   UNL     1      41.271 -13.979   2.015  1.00  0.00     0.280 C 
HETATM    2  N   UNL     1      40.682 -14.706   3.035  1.00  0.00    -0.321 N 
HETATM    3  O   UNL     1      42.451 -13.653   1.963  1.00  0.00    -0.265 OA
HETATM    4  H   UNL     1      39.688 -14.863   2.915  1.00  0.00     0.169 HD
ENDROOT
BRANCH   2   5
HETATM    5  C   UNL     1      41.290 -15.283   4.166  1.00  0.00     0.036 A 
HETATM    6  C   UNL     1      42.119 -16.413   4.116  1.00  0.00     0.046 A 
HETATM    7  C   UNL     1      42.653 -16.940   5.312  1.00  0.00     0.030 A 
HETATM    8  C   UNL     1      42.347 -16.317   6.515  1.00  0.00     0.063 A 
HETATM    9  C   UNL     1      43.495 -18.039   5.668  1.00  0.00     0.156 A 
HETATM   10  N   UNL     1      42.992 -17.045   7.476  1.00  0.00    -0.277 N 
HETATM   11  C   UNL     1      41.535 -15.185   6.603  1.00  0.00     0.034 A 
HETATM   12  H   UNL     1      42.989 -16.881   8.476  1.00  0.00     0.189 HD
HETATM   13  N   UNL     1      43.691 -18.091   7.006  1.00  0.00    -0.168 NA
HETATM   14  C   UNL     1      41.014 -14.684   5.403  1.00  0.00     0.032 A 
BRANCH   9  15
HETATM   15  C   UNL     1      44.101 -19.030   4.771  1.00  0.00     0.270 C 
HETATM   16  N   UNL     1      44.177 -20.290   5.302  1.00  0.00    -0.365 N 
HETATM   17  H   UNL     1      43.822 -20.444   6.237  1.00  0.00     0.159 HD
HETATM   18  H   UNL     1      44.577 -21.038   4.758  1.00  0.00     0.159 HD
HETATM   19  O   UNL     1      44.515 -18.794   3.642  1.00  0.00    -0.266 OA
ENDBRANCH   9  15
ENDBRANCH   2   5
BRANCH   1  20
HETATM   20  C   UNL     1      40.326 -13.643   0.959  1.00  0.00     0.150 A 
HETATM   21  C   UNL     1      39.480 -12.552   0.794  1.00  0.00    -0.009 A 
HETATM   22  C   UNL     1      39.315 -11.412   1.732  1.00  0.00     0.052 C 
HETATM   23  C   UNL     1      38.837 -12.736  -0.468  1.00  0.00     0.009 A 
HETATM   24  C   UNL     1      39.312 -13.938  -0.972  1.00  0.00     0.087 A 
HETATM   25  C   UNL     1      37.912 -12.014  -1.245  1.00  0.00     0.051 A 
HETATM   26  O   UNL     1      40.207 -14.492  -0.113  1.00  0.00    -0.304 OA
HETATM   27  C   UNL     1      38.924 -14.483  -2.192  1.00  0.00     0.041 A 
HETATM   28  C   UNL     1      38.007 -13.742  -2.950  1.00  0.00     0.039 A 
HETATM   29  C   UNL     1      37.512 -12.516  -2.493  1.00  0.00     0.069 A 
BRANCH  29  30
HETATM   30  O   UNL     1      36.627 -11.714  -3.164  1.00  0.00    -0.356 OA
HETATM   31  C   UNL     1      36.266 -10.489  -2.538  1.00  0.00     0.210 C 
ENDBRANCH  29  30
ENDBRANCH   1  20
TORSDOF 4
ENDMDL
