MODEL 1
REMARK VINA RESULT:      -7.7      0.000      0.000
REMARK  6 active torsions:
REMARK  status: ('A' for Active; 'I' for Inactive)
REMARK    1  A    between atoms: C_2  and  N_3 
REMARK    2  A    between atoms: C_2  and  C_18 
REMARK    3  A    between atoms: N_3  and  C_6 
REMARK    4  A    between atoms: C_6  and  C_7 
REMARK    5  A    between atoms: C_10  and  N_11 
REMARK       I    between atoms: N_11  and  C_12 
REMARK    6  A    between atoms: C_12  and  O_13 
ROOT
HETATM    1  N   UNL     1      41.695 -14.654   3.651  1.00  0.00    -0.063 N 
HETATM    2  H   UNL     1      41.310 -13.988   2.971  1.00  0.00     0.278 HD
HETATM    3  H   UNL     1      41.122 -15.502   3.537  1.00  0.00     0.278 HD
ENDROOT
BRANCH   1   4
HETATM    4  C   UNL     1      43.115 -14.988   3.306  1.00  0.00     0.216 C 
HETATM    5  C   UNL     1      43.367 -14.684   1.829  1.00  0.00     0.045 C 
BRANCH   4   6
HETATM    6  C   UNL     1      43.419 -16.428   3.640  1.00  0.00    -0.009 A 
HETATM    7  C   UNL     1      43.865 -16.770   4.915  1.00  0.00     0.126 A 
HETATM    8  N   UNL     1      44.140 -18.013   5.341  1.00  0.00    -0.259 NA
HETATM    9  C   UNL     1      43.984 -19.010   4.431  1.00  0.00     0.074 A 
HETATM   10  C   UNL     1      43.554 -18.772   3.127  1.00  0.00     0.034 A 
HETATM   11  C   UNL     1      44.227 -20.393   4.669  1.00  0.00     0.040 A 
HETATM   12  S   UNL     1      43.458 -20.233   2.226  1.00  0.00    -0.100 SA
HETATM   13  C   UNL     1      43.263 -17.463   2.707  1.00  0.00     0.032 A 
HETATM   14  C   UNL     1      43.981 -21.168   3.559  1.00  0.00     0.053 A 
ENDBRANCH   4   6
ENDBRANCH   1   4
BRANCH   1  15
HETATM   15  C   UNL     1      41.449 -14.135   5.026  1.00  0.00     0.271 C 
BRANCH  15  16
HETATM   16  C   UNL     1      42.581 -13.247   5.457  1.00  0.00    -0.033 A 
HETATM   17  C   UNL     1      43.366 -13.579   6.567  1.00  0.00     0.011 A 
HETATM   18  C   UNL     1      44.385 -12.724   7.007  1.00  0.00     0.030 A 
HETATM   19  C   UNL     1      44.639 -11.520   6.351  1.00  0.00     0.036 A 
HETATM   20  C   UNL     1      43.857 -11.194   5.235  1.00  0.00     0.030 A 
HETATM   21  C   UNL     1      42.835 -12.041   4.794  1.00  0.00     0.011 A 
BRANCH  19  22
HETATM   22  N   UNL     1      45.630 -10.595   6.716  1.00  0.00    -0.303 N 
HETATM   23  C   UNL     1      45.764  -9.753   7.787  1.00  0.00     0.364 C 
HETATM   24  O   UNL     1      46.753  -9.033   7.880  1.00  0.00    -0.238 OA
HETATM   25  H   UNL     1      46.422 -10.489   6.092  1.00  0.00     0.171 HD
BRANCH  23  26
HETATM   26  O   UNL     1      44.747  -9.771   8.683  1.00  0.00    -0.309 OA
HETATM   27  C   UNL     1      45.165  -9.960  10.036  1.00  0.00     0.215 C 
ENDBRANCH  23  26
ENDBRANCH  19  22
ENDBRANCH  15  16
ENDBRANCH   1  15
TORSDOF 6
ENDMDL
MODEL 2
REMARK VINA RESULT:      -7.6      5.162      7.964
REMARK  6 active torsions:
REMARK  status: ('A' for Active; 'I' for Inactive)
REMARK    1  A    between atoms: C_2  and  N_3 
REMARK    2  A    between atoms: C_2  and  C_18 
REMARK    3  A    between atoms: N_3  and  C_6 
REMARK    4  A    between atoms: C_6  and  C_7 
REMARK    5  A    between atoms: C_10  and  N_11 
REMARK       I    between atoms: N_11  and  C_12 
REMARK    6  A    between atoms: C_12  and  O_13 
ROOT
HETATM    1  N   UNL     1      42.239 -12.375   2.330  1.00  0.00    -0.063 N 
HETATM    2  H   UNL     1      42.650 -12.817   1.498  1.00  0.00     0.278 HD
HETATM    3  H   UNL     1      42.702 -11.457   2.391  1.00  0.00     0.278 HD
ENDROOT
BRANCH   1   4
HETATM    4  C   UNL     1      40.769 -12.156   2.130  1.00  0.00     0.216 C 
HETATM    5  C   UNL     1      40.015 -12.573   3.392  1.00  0.00     0.045 C 
BRANCH   4   6
HETATM    6  C   UNL     1      40.280 -12.904   0.914  1.00  0.00    -0.009 A 
HETATM    7  C   UNL     1      40.173 -14.292   0.944  1.00  0.00     0.126 A 
HETATM    8  N   UNL     1      39.726 -15.066  -0.059  1.00  0.00    -0.259 NA
HETATM    9  C   UNL     1      39.370 -14.422  -1.202  1.00  0.00     0.074 A 
HETATM   10  C   UNL     1      39.451 -13.038  -1.338  1.00  0.00     0.034 A 
HETATM   11  C   UNL     1      38.881 -15.048  -2.384  1.00  0.00     0.040 A 
HETATM   12  S   UNL     1      38.932 -12.534  -2.897  1.00  0.00    -0.100 SA
HETATM   13  C   UNL     1      39.913 -12.250  -0.271  1.00  0.00     0.032 A 
HETATM   14  C   UNL     1      38.603 -14.141  -3.382  1.00  0.00     0.053 A 
ENDBRANCH   4   6
ENDBRANCH   1   4
BRANCH   1  15
HETATM   15  C   UNL     1      42.638 -13.153   3.536  1.00  0.00     0.271 C 
BRANCH  15  16
HETATM   16  C   UNL     1      42.816 -14.602   3.184  1.00  0.00    -0.033 A 
HETATM   17  C   UNL     1      43.367 -14.975   1.951  1.00  0.00     0.011 A 
HETATM   18  C   UNL     1      43.481 -16.325   1.595  1.00  0.00     0.030 A 
HETATM   19  C   UNL     1      43.046 -17.330   2.458  1.00  0.00     0.036 A 
HETATM   20  C   UNL     1      42.502 -16.955   3.694  1.00  0.00     0.030 A 
HETATM   21  C   UNL     1      42.381 -15.608   4.054  1.00  0.00     0.011 A 
BRANCH  19  22
HETATM   22  N   UNL     1      43.111 -18.707   2.192  1.00  0.00    -0.303 N 
HETATM   23  C   UNL     1      43.741 -19.745   2.826  1.00  0.00     0.364 C 
HETATM   24  O   UNL     1      43.631 -20.886   2.388  1.00  0.00    -0.238 OA
HETATM   25  H   UNL     1      42.614 -19.050   1.378  1.00  0.00     0.171 HD
BRANCH  23  26
HETATM   26  O   UNL     1      44.474 -19.413   3.916  1.00  0.00    -0.309 OA
HETATM   27  C   UNL     1      44.238 -20.245   5.054  1.00  0.00     0.215 C 
ENDBRANCH  23  26
ENDBRANCH  19  22
ENDBRANCH  15  16
ENDBRANCH   1  15
TORSDOF 6
ENDMDL
MODEL 3
REMARK VINA RESULT:      -7.5      4.807      6.892
REMARK  6 active torsions:
REMARK  status: ('A' for Active; 'I' for Inactive)
REMARK    1  A    between atoms: C_2  and  N_3 
REMARK    2  A    between atoms: C_2  and  C_18 
REMARK    3  A    between atoms: N_3  and  C_6 
REMARK    4  A    between atoms: C_6  and  C_7 
REMARK    5  A    between atoms: C_10  and  N_11 
REMARK       I    between atoms: N_11  and  C_12 
REMARK    6  A    between atoms: C_12  and  O_13 
ROOT
HETATM    1  N   UNL     1      42.284 -13.894   4.718  1.00  0.00    -0.063 N 
HETATM    2  H   UNL     1      42.681 -12.948   4.657  1.00  0.00     0.278 HD
HETATM    3  H   UNL     1      42.763 -14.424   3.975  1.00  0.00     0.278 HD
ENDROOT
BRANCH   1   4
HETATM    4  C   UNL     1      42.619 -14.516   6.040  1.00  0.00     0.216 C 
HETATM    5  C   UNL     1      43.734 -13.717   6.713  1.00  0.00     0.045 C 
BRANCH   4   6
HETATM    6  C   UNL     1      42.997 -15.966   5.865  1.00  0.00    -0.009 A 
HETATM    7  C   UNL     1      43.060 -16.810   6.972  1.00  0.00     0.126 A 
HETATM    8  N   UNL     1      43.356 -18.120   6.942  1.00  0.00    -0.259 NA
HETATM    9  C   UNL     1      43.634 -18.647   5.720  1.00  0.00     0.074 A 
HETATM   10  C   UNL     1      43.610 -17.885   4.554  1.00  0.00     0.034 A 
HETATM   11  C   UNL     1      43.978 -20.004   5.465  1.00  0.00     0.040 A 
HETATM   12  S   UNL     1      44.007 -18.838   3.180  1.00  0.00    -0.100 SA
HETATM   13  C   UNL     1      43.289 -16.518   4.610  1.00  0.00     0.032 A 
HETATM   14  C   UNL     1      44.206 -20.246   4.129  1.00  0.00     0.053 A 
ENDBRANCH   4   6
ENDBRANCH   1   4
BRANCH   1  15
HETATM   15  C   UNL     1      40.839 -13.834   4.357  1.00  0.00     0.271 C 
BRANCH  15  16
HETATM   16  C   UNL     1      40.671 -13.933   2.868  1.00  0.00    -0.033 A 
HETATM   17  C   UNL     1      40.193 -15.112   2.281  1.00  0.00     0.011 A 
HETATM   18  C   UNL     1      40.090 -15.229   0.889  1.00  0.00     0.030 A 
HETATM   19  C   UNL     1      40.464 -14.177   0.054  1.00  0.00     0.036 A 
HETATM   20  C   UNL     1      40.935 -12.996   0.644  1.00  0.00     0.030 A 
HETATM   21  C   UNL     1      41.045 -12.874   2.034  1.00  0.00     0.011 A 
BRANCH  19  22
HETATM   22  N   UNL     1      40.404 -14.197  -1.348  1.00  0.00    -0.303 N 
HETATM   23  C   UNL     1      39.425 -13.849  -2.240  1.00  0.00     0.364 C 
HETATM   24  O   UNL     1      39.630 -13.954  -3.445  1.00  0.00    -0.238 OA
HETATM   25  H   UNL     1      41.221 -14.533  -1.846  1.00  0.00     0.171 HD
BRANCH  23  26
HETATM   26  O   UNL     1      38.260 -13.417  -1.699  1.00  0.00    -0.309 OA
HETATM   27  C   UNL     1      37.219 -13.199  -2.653  1.00  0.00     0.215 C 
ENDBRANCH  23  26
ENDBRANCH  19  22
ENDBRANCH  15  16
ENDBRANCH   1  15
TORSDOF 6
ENDMDL
MODEL 4
REMARK VINA RESULT:      -7.5      4.595      8.583
REMARK  6 active torsions:
REMARK  status: ('A' for Active; 'I' for Inactive)
REMARK    1  A    between atoms: C_2  and  N_3 
REMARK    2  A    between atoms: C_2  and  C_18 
REMARK    3  A    between atoms: N_3  and  C_6 
REMARK    4  A    between atoms: C_6  and  C_7 
REMARK    5  A    between atoms: C_10  and  N_11 
REMARK       I    between atoms: N_11  and  C_12 
REMARK    6  A    between atoms: C_12  and  O_13 
ROOT
HETATM    1  N   UNL     1      42.211 -12.944   5.026  1.00  0.00    -0.063 N 
HETATM    2  H   UNL     1      41.483 -13.562   5.405  1.00  0.00     0.278 HD
HETATM    3  H   UNL     1      41.887 -11.993   5.253  1.00  0.00     0.278 HD
ENDROOT
BRANCH   1   4
HETATM    4  C   UNL     1      43.515 -13.184   5.725  1.00  0.00     0.216 C 
HETATM    5  C   UNL     1      43.394 -14.414   6.623  1.00  0.00     0.045 C 
BRANCH   4   6
HETATM    6  C   UNL     1      43.934 -11.961   6.504  1.00  0.00    -0.009 A 
HETATM    7  C   UNL     1      45.267 -11.791   6.873  1.00  0.00     0.126 A 
HETATM    8  N   UNL     1      45.767 -10.738   7.539  1.00  0.00    -0.259 NA
HETATM    9  C   UNL     1      44.877  -9.773   7.894  1.00  0.00     0.074 A 
HETATM   10  C   UNL     1      43.522  -9.854   7.582  1.00  0.00     0.034 A 
HETATM   11  C   UNL     1      45.191  -8.582   8.608  1.00  0.00     0.040 A 
HETATM   12  S   UNL     1      42.666  -8.483   8.167  1.00  0.00    -0.100 SA
HETATM   13  C   UNL     1      43.024 -10.962   6.876  1.00  0.00     0.032 A 
HETATM   14  C   UNL     1      44.085  -7.792   8.824  1.00  0.00     0.053 A 
ENDBRANCH   4   6
ENDBRANCH   1   4
BRANCH   1  15
HETATM   15  C   UNL     1      42.220 -13.065   3.540  1.00  0.00     0.271 C 
BRANCH  15  16
HETATM   16  C   UNL     1      42.337 -14.507   3.137  1.00  0.00    -0.033 A 
HETATM   17  C   UNL     1      41.508 -15.478   3.712  1.00  0.00     0.011 A 
HETATM   18  C   UNL     1      41.654 -16.832   3.382  1.00  0.00     0.030 A 
HETATM   19  C   UNL     1      42.630 -17.245   2.477  1.00  0.00     0.036 A 
HETATM   20  C   UNL     1      43.454 -16.270   1.897  1.00  0.00     0.030 A 
HETATM   21  C   UNL     1      43.316 -14.917   2.226  1.00  0.00     0.011 A 
BRANCH  19  22
HETATM   22  N   UNL     1      42.859 -18.574   2.086  1.00  0.00    -0.303 N 
HETATM   23  C   UNL     1      43.602 -19.587   2.633  1.00  0.00     0.364 C 
HETATM   24  O   UNL     1      43.631 -20.686   2.089  1.00  0.00    -0.238 OA
HETATM   25  H   UNL     1      42.413 -18.893   1.234  1.00  0.00     0.171 HD
BRANCH  23  26
HETATM   26  O   UNL     1      44.282 -19.276   3.763  1.00  0.00    -0.309 OA
HETATM   27  C   UNL     1      44.239 -20.292   4.767  1.00  0.00     0.215 C 
ENDBRANCH  23  26
ENDBRANCH  19  22
ENDBRANCH  15  16
ENDBRANCH   1  15
TORSDOF 6
ENDMDL
MODEL 5
REMARK VINA RESULT:      -7.1      4.984      7.846
REMARK  6 active torsions:
REMARK  status: ('A' for Active; 'I' for Inactive)
REMARK    1  A    between atoms: C_2  and  N_3 
REMARK    2  A    between atoms: C_2  and  C_18 
REMARK    3  A    between atoms: N_3  and  C_6 
REMARK    4  A    between atoms: C_6  and  C_7 
REMARK    5  A    between atoms: C_10  and  N_11 
REMARK       I    between atoms: N_11  and  C_12 
REMARK    6  A    between atoms: C_12  and  O_13 
ROOT
HETATM    1  N   UNL     1      42.865 -17.168   4.965  1.00  0.00    -0.063 N 
HETATM    2  H   UNL     1      43.138 -18.075   5.362  1.00  0.00     0.278 HD
HETATM    3  H   UNL     1      41.835 -17.186   4.963  1.00  0.00     0.278 HD
ENDROOT
BRANCH   1   4
HETATM    4  C   UNL     1      43.321 -16.050   5.855  1.00  0.00     0.216 C 
HETATM    5  C   UNL     1      43.602 -16.595   7.255  1.00  0.00     0.045 C 
BRANCH   4   6
HETATM    6  C   UNL     1      42.299 -14.940   5.881  1.00  0.00    -0.009 A 
HETATM    7  C   UNL     1      41.000 -15.197   6.317  1.00  0.00     0.126 A 
HETATM    8  N   UNL     1      40.013 -14.292   6.413  1.00  0.00    -0.259 NA
HETATM    9  C   UNL     1      40.320 -13.024   6.029  1.00  0.00     0.074 A 
HETATM   10  C   UNL     1      41.585 -12.668   5.568  1.00  0.00     0.034 A 
HETATM   11  C   UNL     1      39.424 -11.918   6.043  1.00  0.00     0.040 A 
HETATM   12  S   UNL     1      41.652 -10.998   5.163  1.00  0.00    -0.100 SA
HETATM   13  C   UNL     1      42.604 -13.631   5.485  1.00  0.00     0.032 A 
HETATM   14  C   UNL     1      40.016 -10.757   5.599  1.00  0.00     0.053 A 
ENDBRANCH   4   6
ENDBRANCH   1   4
BRANCH   1  15
HETATM   15  C   UNL     1      43.309 -17.111   3.544  1.00  0.00     0.271 C 
BRANCH  15  16
HETATM   16  C   UNL     1      42.376 -16.250   2.742  1.00  0.00    -0.033 A 
HETATM   17  C   UNL     1      42.844 -15.099   2.096  1.00  0.00     0.011 A 
HETATM   18  C   UNL     1      41.965 -14.261   1.396  1.00  0.00     0.030 A 
HETATM   19  C   UNL     1      40.603 -14.552   1.328  1.00  0.00     0.036 A 
HETATM   20  C   UNL     1      40.139 -15.709   1.970  1.00  0.00     0.030 A 
HETATM   21  C   UNL     1      41.010 -16.547   2.674  1.00  0.00     0.011 A 
BRANCH  19  22
HETATM   22  N   UNL     1      39.644 -13.776   0.659  1.00  0.00    -0.303 N 
HETATM   23  C   UNL     1      39.406 -13.537  -0.668  1.00  0.00     0.364 C 
HETATM   24  O   UNL     1      38.475 -12.811  -1.001  1.00  0.00    -0.238 OA
HETATM   25  H   UNL     1      38.974 -13.270   1.227  1.00  0.00     0.171 HD
BRANCH  23  26
HETATM   26  O   UNL     1      40.259 -14.131  -1.537  1.00  0.00    -0.309 OA
HETATM   27  C   UNL     1      40.404 -13.437  -2.778  1.00  0.00     0.215 C 
ENDBRANCH  23  26
ENDBRANCH  19  22
ENDBRANCH  15  16
ENDBRANCH   1  15
TORSDOF 6
ENDMDL
MODEL 6
REMARK VINA RESULT:      -7.0      1.733      2.112
REMARK  6 active torsions:
REMARK  status: ('A' for Active; 'I' for Inactive)
REMARK    1  A    between atoms: C_2  and  N_3 
REMARK    2  A    between atoms: C_2  and  C_18 
REMARK    3  A    between atoms: N_3  and  C_6 
REMARK    4  A    between atoms: C_6  and  C_7 
REMARK    5  A    between atoms: C_10  and  N_11 
REMARK       I    between atoms: N_11  and  C_12 
REMARK    6  A    between atoms: C_12  and  O_13 
ROOT
HETATM    1  N   UNL     1      43.474 -14.189   2.027  1.00  0.00    -0.063 N 
HETATM    2  H   UNL     1      44.118 -14.366   2.808  1.00  0.00     0.278 HD
HETATM    3  H   UNL     1      44.086 -13.922   1.242  1.00  0.00     0.278 HD
ENDROOT
BRANCH   1   4
HETATM    4  C   UNL     1      42.746 -15.447   1.657  1.00  0.00     0.216 C 
HETATM    5  C   UNL     1      41.240 -15.184   1.663  1.00  0.00     0.045 C 
BRANCH   4   6
HETATM    6  C   UNL     1      43.121 -16.572   2.590  1.00  0.00    -0.009 A 
HETATM    7  C   UNL     1      43.383 -16.309   3.932  1.00  0.00     0.126 A 
HETATM    8  N   UNL     1      43.697 -17.224   4.863  1.00  0.00    -0.259 NA
HETATM    9  C   UNL     1      43.782 -18.512   4.437  1.00  0.00     0.074 A 
HETATM   10  C   UNL     1      43.549 -18.878   3.113  1.00  0.00     0.034 A 
HETATM   11  C   UNL     1      44.107 -19.632   5.252  1.00  0.00     0.040 A 
HETATM   12  S   UNL     1      43.734 -20.573   2.894  1.00  0.00    -0.100 SA
HETATM   13  C   UNL     1      43.213 -17.903   2.159  1.00  0.00     0.032 A 
HETATM   14  C   UNL     1      44.117 -20.813   4.544  1.00  0.00     0.053 A 
ENDBRANCH   4   6
ENDBRANCH   1   4
BRANCH   1  15
HETATM   15  C   UNL     1      42.632 -13.004   2.354  1.00  0.00     0.271 C 
BRANCH  15  16
HETATM   16  C   UNL     1      42.869 -12.575   3.774  1.00  0.00    -0.033 A 
HETATM   17  C   UNL     1      42.012 -12.994   4.799  1.00  0.00     0.011 A 
HETATM   18  C   UNL     1      42.195 -12.549   6.115  1.00  0.00     0.030 A 
HETATM   19  C   UNL     1      43.234 -11.676   6.435  1.00  0.00     0.036 A 
HETATM   20  C   UNL     1      44.096 -11.264   5.408  1.00  0.00     0.030 A 
HETATM   21  C   UNL     1      43.915 -11.702   4.091  1.00  0.00     0.011 A 
BRANCH  19  22
HETATM   22  N   UNL     1      43.498 -11.169   7.717  1.00  0.00    -0.303 N 
HETATM   23  C   UNL     1      43.023 -10.082   8.401  1.00  0.00     0.364 C 
HETATM   24  O   UNL     1      43.415  -9.858   9.541  1.00  0.00    -0.238 OA
HETATM   25  H   UNL     1      44.171 -11.669   8.287  1.00  0.00     0.171 HD
BRANCH  23  26
HETATM   26  O   UNL     1      42.138  -9.304   7.732  1.00  0.00    -0.309 OA
HETATM   27  C   UNL     1      40.891  -9.126   8.407  1.00  0.00     0.215 C 
ENDBRANCH  23  26
ENDBRANCH  19  22
ENDBRANCH  15  16
ENDBRANCH   1  15
TORSDOF 6
ENDMDL
MODEL 7
REMARK VINA RESULT:      -7.0      5.904      7.789
REMARK  6 active torsions:
REMARK  status: ('A' for Active; 'I' for Inactive)
REMARK    1  A    between atoms: C_2  and  N_3 
REMARK    2  A    between atoms: C_2  and  C_18 
REMARK    3  A    between atoms: N_3  and  C_6 
REMARK    4  A    between atoms: C_6  and  C_7 
REMARK    5  A    between atoms: C_10  and  N_11 
REMARK       I    between atoms: N_11  and  C_12 
REMARK    6  A    between atoms: C_12  and  O_13 
ROOT
HETATM    1  N   UNL     1      41.827 -15.059   0.823  1.00  0.00    -0.063 N 
HETATM    2  H   UNL     1      42.266 -14.347   0.227  1.00  0.00     0.278 HD
HETATM    3  H   UNL     1      42.197 -15.955   0.473  1.00  0.00     0.278 HD
ENDROOT
BRANCH   1   4
HETATM    4  C   UNL     1      42.264 -14.888   2.247  1.00  0.00     0.216 C 
HETATM    5  C   UNL     1      43.303 -13.771   2.331  1.00  0.00     0.045 C 
BRANCH   4   6
HETATM    6  C   UNL     1      42.793 -16.187   2.802  1.00  0.00    -0.009 A 
HETATM    7  C   UNL     1      43.343 -16.228   4.081  1.00  0.00     0.126 A 
HETATM    8  N   UNL     1      43.819 -17.324   4.694  1.00  0.00    -0.259 NA
HETATM    9  C   UNL     1      43.771 -18.481   3.983  1.00  0.00     0.074 A 
HETATM   10  C   UNL     1      43.251 -18.543   2.691  1.00  0.00     0.034 A 
HETATM   11  C   UNL     1      44.227 -19.750   4.437  1.00  0.00     0.040 A 
HETATM   12  S   UNL     1      43.332 -20.142   2.065  1.00  0.00    -0.100 SA
HETATM   13  C   UNL     1      42.750 -17.385   2.074  1.00  0.00     0.032 A 
HETATM   14  C   UNL     1      44.049 -20.740   3.498  1.00  0.00     0.053 A 
ENDBRANCH   4   6
ENDBRANCH   1   4
BRANCH   1  15
HETATM   15  C   UNL     1      40.358 -15.058   0.572  1.00  0.00     0.271 C 
BRANCH  15  16
HETATM   16  C   UNL     1      40.010 -14.035  -0.470  1.00  0.00    -0.033 A 
HETATM   17  C   UNL     1      40.483 -12.721  -0.366  1.00  0.00     0.011 A 
HETATM   18  C   UNL     1      40.113 -11.748  -1.305  1.00  0.00     0.030 A 
HETATM   19  C   UNL     1      39.262 -12.065  -2.362  1.00  0.00     0.036 A 
HETATM   20  C   UNL     1      38.796 -13.383  -2.469  1.00  0.00     0.030 A 
HETATM   21  C   UNL     1      39.158 -14.357  -1.532  1.00  0.00     0.011 A 
BRANCH  19  22
HETATM   22  N   UNL     1      38.828 -11.164  -3.349  1.00  0.00    -0.303 N 
HETATM   23  C   UNL     1      37.924 -10.136  -3.333  1.00  0.00     0.364 C 
HETATM   24  O   UNL     1      37.728  -9.479  -4.350  1.00  0.00    -0.238 OA
HETATM   25  H   UNL     1      39.232 -11.256  -4.274  1.00  0.00     0.171 HD
BRANCH  23  26
HETATM   26  O   UNL     1      37.284  -9.931  -2.156  1.00  0.00    -0.309 OA
HETATM   27  C   UNL     1      35.869  -9.774  -2.282  1.00  0.00     0.215 C 
ENDBRANCH  23  26
ENDBRANCH  19  22
ENDBRANCH  15  16
ENDBRANCH   1  15
TORSDOF 6
ENDMDL
MODEL 8
REMARK VINA RESULT:      -7.0      2.179      2.787
REMARK  6 active torsions:
REMARK  status: ('A' for Active; 'I' for Inactive)
REMARK    1  A    between atoms: C_2  and  N_3 
REMARK    2  A    between atoms: C_2  and  C_18 
REMARK    3  A    between atoms: N_3  and  C_6 
REMARK    4  A    between atoms: C_6  and  C_7 
REMARK    5  A    between atoms: C_10  and  N_11 
REMARK       I    between atoms: N_11  and  C_12 
REMARK    6  A    between atoms: C_12  and  O_13 
ROOT
HETATM    1  N   UNL     1      42.311 -13.708   1.369  1.00  0.00    -0.063 N 
HETATM    2  H   UNL     1      43.241 -13.794   1.796  1.00  0.00     0.278 HD
HETATM    3  H   UNL     1      42.497 -13.411   0.401  1.00  0.00     0.278 HD
ENDROOT
BRANCH   1   4
HETATM    4  C   UNL     1      41.627 -15.043   1.335  1.00  0.00     0.216 C 
HETATM    5  C   UNL     1      40.127 -14.853   1.558  1.00  0.00     0.045 C 
BRANCH   4   6
HETATM    6  C   UNL     1      42.231 -15.975   2.357  1.00  0.00    -0.009 A 
HETATM    7  C   UNL     1      43.100 -16.986   1.952  1.00  0.00     0.126 A 
HETATM    8  N   UNL     1      43.721 -17.857   2.764  1.00  0.00    -0.259 NA
HETATM    9  C   UNL     1      43.451 -17.740   4.091  1.00  0.00     0.074 A 
HETATM   10  C   UNL     1      42.587 -16.770   4.596  1.00  0.00     0.034 A 
HETATM   11  C   UNL     1      43.992 -18.562   5.120  1.00  0.00     0.040 A 
HETATM   12  S   UNL     1      42.456 -16.884   6.306  1.00  0.00    -0.100 SA
HETATM   13  C   UNL     1      41.956 -15.864   3.727  1.00  0.00     0.032 A 
HETATM   14  C   UNL     1      43.537 -18.207   6.370  1.00  0.00     0.053 A 
ENDBRANCH   4   6
ENDBRANCH   1   4
BRANCH   1  15
HETATM   15  C   UNL     1      41.574 -12.600   2.039  1.00  0.00     0.271 C 
BRANCH  15  16
HETATM   16  C   UNL     1      42.107 -12.385   3.426  1.00  0.00    -0.033 A 
HETATM   17  C   UNL     1      43.468 -12.129   3.635  1.00  0.00     0.011 A 
HETATM   18  C   UNL     1      43.980 -11.986   4.932  1.00  0.00     0.030 A 
HETATM   19  C   UNL     1      43.148 -12.098   6.044  1.00  0.00     0.036 A 
HETATM   20  C   UNL     1      41.785 -12.346   5.832  1.00  0.00     0.030 A 
HETATM   21  C   UNL     1      41.268 -12.495   4.540  1.00  0.00     0.011 A 
BRANCH  19  22
HETATM   22  N   UNL     1      43.563 -11.977   7.380  1.00  0.00    -0.303 N 
HETATM   23  C   UNL     1      43.853 -10.894   8.167  1.00  0.00     0.364 C 
HETATM   24  O   UNL     1      44.193 -11.060   9.333  1.00  0.00    -0.238 OA
HETATM   25  H   UNL     1      43.692 -12.833   7.908  1.00  0.00     0.171 HD
BRANCH  23  26
HETATM   26  O   UNL     1      43.754  -9.684   7.565  1.00  0.00    -0.309 OA
HETATM   27  C   UNL     1      42.912  -8.758   8.254  1.00  0.00     0.215 C 
ENDBRANCH  23  26
ENDBRANCH  19  22
ENDBRANCH  15  16
ENDBRANCH   1  15
TORSDOF 6
ENDMDL
MODEL 9
REMARK VINA RESULT:      -7.0      3.301      5.193
REMARK  6 active torsions:
REMARK  status: ('A' for Active; 'I' for Inactive)
REMARK    1  A    between atoms: C_2  and  N_3 
REMARK    2  A    between atoms: C_2  and  C_18 
REMARK    3  A    between atoms: N_3  and  C_6 
REMARK    4  A    between atoms: C_6  and  C_7 
REMARK    5  A    between atoms: C_10  and  N_11 
REMARK       I    between atoms: N_11  and  C_12 
REMARK    6  A    between atoms: C_12  and  O_13 
ROOT
HETATM    1  N   UNL     1      40.158 -14.836   3.747  1.00  0.00    -0.063 N 
HETATM    2  H   UNL     1      40.476 -13.868   3.621  1.00  0.00     0.278 HD
HETATM    3  H   UNL     1      39.171 -14.750   4.029  1.00  0.00     0.278 HD
ENDROOT
BRANCH   1   4
HETATM    4  C   UNL     1      40.220 -15.579   2.446  1.00  0.00     0.216 C 
HETATM    5  C   UNL     1      41.374 -16.580   2.485  1.00  0.00     0.045 C 
BRANCH   4   6
HETATM    6  C   UNL     1      40.351 -14.618   1.290  1.00  0.00    -0.009 A 
HETATM    7  C   UNL     1      40.964 -13.381   1.477  1.00  0.00     0.126 A 
HETATM    8  N   UNL     1      41.166 -12.456   0.526  1.00  0.00    -0.259 NA
HETATM    9  C   UNL     1      40.708 -12.760  -0.718  1.00  0.00     0.074 A 
HETATM   10  C   UNL     1      40.071 -13.966  -1.005  1.00  0.00     0.034 A 
HETATM   11  C   UNL     1      40.810 -11.923  -1.864  1.00  0.00     0.040 A 
HETATM   12  S   UNL     1      39.612 -14.048  -2.659  1.00  0.00    -0.100 SA
HETATM   13  C   UNL     1      39.880 -14.922   0.006  1.00  0.00     0.032 A 
HETATM   14  C   UNL     1      40.256 -12.497  -2.986  1.00  0.00     0.053 A 
ENDBRANCH   4   6
ENDBRANCH   1   4
BRANCH   1  15
HETATM   15  C   UNL     1      40.894 -15.439   4.894  1.00  0.00     0.271 C 
BRANCH  15  16
HETATM   16  C   UNL     1      42.002 -14.527   5.338  1.00  0.00    -0.033 A 
HETATM   17  C   UNL     1      42.954 -14.960   6.268  1.00  0.00     0.011 A 
HETATM   18  C   UNL     1      43.954 -14.093   6.728  1.00  0.00     0.030 A 
HETATM   19  C   UNL     1      44.022 -12.777   6.274  1.00  0.00     0.036 A 
HETATM   20  C   UNL     1      43.072 -12.348   5.337  1.00  0.00     0.030 A 
HETATM   21  C   UNL     1      42.068 -13.207   4.877  1.00  0.00     0.011 A 
BRANCH  19  22
HETATM   22  N   UNL     1      44.978 -11.831   6.677  1.00  0.00    -0.303 N 
HETATM   23  C   UNL     1      45.159 -11.133   7.841  1.00  0.00     0.364 C 
HETATM   24  O   UNL     1      46.101 -10.354   7.947  1.00  0.00    -0.238 OA
HETATM   25  H   UNL     1      45.695 -11.578   6.007  1.00  0.00     0.171 HD
BRANCH  23  26
HETATM   26  O   UNL     1      44.240 -11.356   8.812  1.00  0.00    -0.309 OA
HETATM   27  C   UNL     1      43.746 -10.166   9.431  1.00  0.00     0.215 C 
ENDBRANCH  23  26
ENDBRANCH  19  22
ENDBRANCH  15  16
ENDBRANCH   1  15
TORSDOF 6
ENDMDL
MODEL 10
REMARK VINA RESULT:      -6.9      4.511      6.386
REMARK  6 active torsions:
REMARK  status: ('A' for Active; 'I' for Inactive)
REMARK    1  A    between atoms: C_2  and  N_3 
REMARK    2  A    between atoms: C_2  and  C_18 
REMARK    3  A    between atoms: N_3  and  C_6 
REMARK    4  A    between atoms: C_6  and  C_7 
REMARK    5  A    between atoms: C_10  and  N_11 
REMARK       I    between atoms: N_11  and  C_12 
REMARK    6  A    between atoms: C_12  and  O_13 
ROOT
HETATM    1  N   UNL     1      43.343 -14.036   4.697  1.00  0.00    -0.063 N 
HETATM    2  H   UNL     1      44.203 -13.642   5.097  1.00  0.00     0.278 HD
HETATM    3  H   UNL     1      43.613 -14.336   3.749  1.00  0.00     0.278 HD
ENDROOT
BRANCH   1   4
HETATM    4  C   UNL     1      42.911 -15.243   5.475  1.00  0.00     0.216 C 
HETATM    5  C   UNL     1      43.691 -15.309   6.788  1.00  0.00     0.045 C 
BRANCH   4   6
HETATM    6  C   UNL     1      43.089 -16.497   4.655  1.00  0.00    -0.009 A 
HETATM    7  C   UNL     1      42.829 -16.479   3.286  1.00  0.00     0.126 A 
HETATM    8  N   UNL     1      42.976 -17.517   2.447  1.00  0.00    -0.259 NA
HETATM    9  C   UNL     1      43.399 -18.684   3.002  1.00  0.00     0.074 A 
HETATM   10  C   UNL     1      43.675 -18.808   4.361  1.00  0.00     0.034 A 
HETATM   11  C   UNL     1      43.612 -19.903   2.298  1.00  0.00     0.040 A 
HETATM   12  S   UNL     1      44.186 -20.403   4.749  1.00  0.00    -0.100 SA
HETATM   13  C   UNL     1      43.522 -17.705   5.218  1.00  0.00     0.032 A 
HETATM   14  C   UNL     1      44.041 -20.918   3.124  1.00  0.00     0.053 A 
ENDBRANCH   4   6
ENDBRANCH   1   4
BRANCH   1  15
HETATM   15  C   UNL     1      42.338 -12.946   4.547  1.00  0.00     0.271 C 
BRANCH  15  16
HETATM   16  C   UNL     1      41.516 -13.164   3.309  1.00  0.00    -0.033 A 
HETATM   17  C   UNL     1      40.160 -13.498   3.402  1.00  0.00     0.011 A 
HETATM   18  C   UNL     1      39.404 -13.760   2.252  1.00  0.00     0.030 A 
HETATM   19  C   UNL     1      39.986 -13.697   0.986  1.00  0.00     0.036 A 
HETATM   20  C   UNL     1      41.342 -13.355   0.895  1.00  0.00     0.030 A 
HETATM   21  C   UNL     1      42.103 -13.097   2.040  1.00  0.00     0.011 A 
BRANCH  19  22
HETATM   22  N   UNL     1      39.318 -13.946  -0.223  1.00  0.00    -0.303 N 
HETATM   23  C   UNL     1      38.755 -13.120  -1.159  1.00  0.00     0.364 C 
HETATM   24  O   UNL     1      38.227 -13.598  -2.158  1.00  0.00    -0.238 OA
HETATM   25  H   UNL     1      39.200 -14.914  -0.500  1.00  0.00     0.171 HD
BRANCH  23  26
HETATM   26  O   UNL     1      38.813 -11.794  -0.888  1.00  0.00    -0.309 OA
HETATM   27  C   UNL     1      37.569 -11.229  -0.469  1.00  0.00     0.215 C 
ENDBRANCH  23  26
ENDBRANCH  19  22
ENDBRANCH  15  16
ENDBRANCH   1  15
TORSDOF 6
ENDMDL
