MODEL 1
REMARK VINA RESULT:      -7.8      0.000      0.000
REMARK  5 active torsions:
REMARK  status: ('A' for Active; 'I' for Inactive)
REMARK    1  A    between atoms: C_5  and  C_6 
REMARK    2  A    between atoms: C_6  and  C_7 
REMARK       I    between atoms: C_7  and  N_8 
REMARK    3  A    between atoms: N_8  and  C_9 
REMARK    4  A    between atoms: C_12  and  O_13 
REMARK    5  A    between atoms: O_13  and  C_14 
ROOT
HETATM    1  C   UNL     1      42.163 -14.573   2.926  1.00  0.00     0.076 A 
HETATM    2  C   UNL     1      42.823 -15.006   1.775  1.00  0.00     0.039 A 
HETATM    3  C   UNL     1      43.279 -16.322   1.689  1.00  0.00     0.025 A 
HETATM    4  C   UNL     1      43.089 -17.201   2.763  1.00  0.00     0.044 A 
HETATM    5  C   UNL     1      43.560 -18.553   2.676  1.00  0.00     0.099 C 
HETATM    6  N   UNL     1      43.940 -19.648   2.602  1.00  0.00    -0.191 NA
HETATM    7  C   UNL     1      42.446 -16.754   3.924  1.00  0.00     0.025 A 
HETATM    8  C   UNL     1      41.991 -15.435   4.010  1.00  0.00     0.039 A 
ENDROOT
BRANCH   1   9
HETATM    9  O   UNL     1      41.789 -13.254   2.982  1.00  0.00    -0.311 OA
BRANCH   9  10
HETATM   10  C   UNL     1      42.130 -12.517   4.094  1.00  0.00     0.076 A 
HETATM   11  C   UNL     1      43.475 -12.163   4.191  1.00  0.00     0.039 A 
HETATM   12  C   UNL     1      43.929 -11.365   5.246  1.00  0.00     0.032 A 
HETATM   13  C   UNL     1      43.041 -10.904   6.217  1.00  0.00     0.034 A 
HETATM   14  C   UNL     1      41.689 -11.261   6.116  1.00  0.00     0.032 A 
HETATM   15  C   UNL     1      41.231 -12.052   5.054  1.00  0.00     0.039 A 
BRANCH  13  16
HETATM   16  N   UNL     1      43.410 -10.076   7.300  1.00  0.00    -0.327 N 
HETATM   17  C   UNL     1      44.007 -10.461   8.490  1.00  0.00     0.227 C 
HETATM   18  O   UNL     1      44.300 -11.611   8.814  1.00  0.00    -0.273 OA
HETATM   19  H   UNL     1      43.224  -9.089   7.178  1.00  0.00     0.169 HD
BRANCH  17  20
HETATM   20  C   UNL     1      44.323  -9.280   9.411  1.00  0.00     0.159 C 
BRANCH  20  21
HETATM   21  C   UNL     1      43.565  -9.344  10.701  1.00  0.00     0.017 A 
HETATM   22  N   UNL     1      42.691 -10.369  10.992  1.00  0.00    -0.369 N 
HETATM   23  C   UNL     1      42.160 -10.183  12.240  1.00  0.00     0.088 A 
HETATM   24  H   UNL     1      42.464 -11.129  10.356  1.00  0.00     0.165 HD
HETATM   25  C   UNL     1      42.704  -9.035  12.767  1.00  0.00     0.019 A 
HETATM   26  C   UNL     1      43.591  -8.506  11.800  1.00  0.00     0.027 A 
ENDBRANCH  20  21
ENDBRANCH  17  20
ENDBRANCH  13  16
ENDBRANCH   9  10
ENDBRANCH   1   9
TORSDOF 5
ENDMDL
MODEL 2
REMARK VINA RESULT:      -7.4      2.044      9.326
REMARK  5 active torsions:
REMARK  status: ('A' for Active; 'I' for Inactive)
REMARK    1  A    between atoms: C_5  and  C_6 
REMARK    2  A    between atoms: C_6  and  C_7 
REMARK       I    between atoms: C_7  and  N_8 
REMARK    3  A    between atoms: N_8  and  C_9 
REMARK    4  A    between atoms: C_12  and  O_13 
REMARK    5  A    between atoms: O_13  and  C_14 
ROOT
HETATM    1  C   UNL     1      44.052  -9.356   9.634  1.00  0.00     0.076 A 
HETATM    2  C   UNL     1      44.019 -10.442  10.508  1.00  0.00     0.039 A 
HETATM    3  C   UNL     1      43.475 -10.291  11.785  1.00  0.00     0.025 A 
HETATM    4  C   UNL     1      42.979  -9.047  12.193  1.00  0.00     0.044 A 
HETATM    5  C   UNL     1      42.422  -8.890  13.505  1.00  0.00     0.099 C 
HETATM    6  N   UNL     1      41.970  -8.766  14.567  1.00  0.00    -0.191 NA
HETATM    7  C   UNL     1      43.036  -7.954  11.318  1.00  0.00     0.025 A 
HETATM    8  C   UNL     1      43.583  -8.106  10.041  1.00  0.00     0.039 A 
ENDROOT
BRANCH   1   9
HETATM    9  O   UNL     1      44.652  -9.543   8.414  1.00  0.00    -0.311 OA
BRANCH   9  10
HETATM   10  C   UNL     1      44.125 -10.481   7.554  1.00  0.00     0.076 A 
HETATM   11  C   UNL     1      44.964 -11.552   7.248  1.00  0.00     0.039 A 
HETATM   12  C   UNL     1      44.516 -12.597   6.432  1.00  0.00     0.032 A 
HETATM   13  C   UNL     1      43.221 -12.586   5.915  1.00  0.00     0.034 A 
HETATM   14  C   UNL     1      42.382 -11.508   6.227  1.00  0.00     0.032 A 
HETATM   15  C   UNL     1      42.825 -10.466   7.052  1.00  0.00     0.039 A 
BRANCH  13  16
HETATM   16  N   UNL     1      42.683 -13.610   5.105  1.00  0.00    -0.327 N 
HETATM   17  C   UNL     1      42.171 -14.830   5.517  1.00  0.00     0.227 C 
HETATM   18  O   UNL     1      42.116 -15.237   6.677  1.00  0.00    -0.273 OA
HETATM   19  H   UNL     1      42.665 -13.417   4.111  1.00  0.00     0.169 HD
BRANCH  17  20
HETATM   20  C   UNL     1      41.613 -15.667   4.363  1.00  0.00     0.159 C 
BRANCH  20  21
HETATM   21  C   UNL     1      42.550 -16.761   3.949  1.00  0.00     0.017 A 
HETATM   22  N   UNL     1      43.464 -17.317   4.817  1.00  0.00    -0.369 N 
HETATM   23  C   UNL     1      44.167 -18.302   4.179  1.00  0.00     0.088 A 
HETATM   24  H   UNL     1      43.603 -17.014   5.778  1.00  0.00     0.165 HD
HETATM   25  C   UNL     1      43.696 -18.394   2.890  1.00  0.00     0.019 A 
HETATM   26  C   UNL     1      42.676 -17.425   2.744  1.00  0.00     0.027 A 
ENDBRANCH  20  21
ENDBRANCH  17  20
ENDBRANCH  13  16
ENDBRANCH   9  10
ENDBRANCH   1   9
TORSDOF 5
ENDMDL
MODEL 3
REMARK VINA RESULT:      -7.2     17.793     19.188
REMARK  5 active torsions:
REMARK  status: ('A' for Active; 'I' for Inactive)
REMARK    1  A    between atoms: C_5  and  C_6 
REMARK    2  A    between atoms: C_6  and  C_7 
REMARK       I    between atoms: C_7  and  N_8 
REMARK    3  A    between atoms: N_8  and  C_9 
REMARK    4  A    between atoms: C_12  and  O_13 
REMARK    5  A    between atoms: O_13  and  C_14 
ROOT
HETATM    1  C   UNL     1      44.917 -28.537  -2.160  1.00  0.00     0.076 A 
HETATM    2  C   UNL     1      45.199 -27.992  -3.413  1.00  0.00     0.039 A 
HETATM    3  C   UNL     1      44.864 -28.698  -4.570  1.00  0.00     0.025 A 
HETATM    4  C   UNL     1      44.261 -29.958  -4.472  1.00  0.00     0.044 A 
HETATM    5  C   UNL     1      43.918 -30.684  -5.660  1.00  0.00     0.099 C 
HETATM    6  N   UNL     1      43.640 -31.269  -6.623  1.00  0.00    -0.191 NA
HETATM    7  C   UNL     1      44.001 -30.510  -3.211  1.00  0.00     0.025 A 
HETATM    8  C   UNL     1      44.339 -29.804  -2.053  1.00  0.00     0.039 A 
ENDROOT
BRANCH   1   9
HETATM    9  O   UNL     1      45.322 -27.830  -1.056  1.00  0.00    -0.311 OA
BRANCH   9  10
HETATM   10  C   UNL     1      46.426 -28.267  -0.358  1.00  0.00     0.076 A 
HETATM   11  C   UNL     1      46.213 -28.539   0.993  1.00  0.00     0.039 A 
HETATM   12  C   UNL     1      47.245 -29.046   1.790  1.00  0.00     0.032 A 
HETATM   13  C   UNL     1      48.504 -29.292   1.244  1.00  0.00     0.034 A 
HETATM   14  C   UNL     1      48.713 -29.019  -0.115  1.00  0.00     0.032 A 
HETATM   15  C   UNL     1      47.678 -28.521  -0.917  1.00  0.00     0.039 A 
BRANCH  13  16
HETATM   16  N   UNL     1      49.592 -29.824   1.970  1.00  0.00    -0.327 N 
HETATM   17  C   UNL     1      49.874 -29.648   3.315  1.00  0.00     0.227 C 
HETATM   18  O   UNL     1      49.223 -28.970   4.109  1.00  0.00    -0.273 OA
HETATM   19  H   UNL     1      50.227 -30.409   1.441  1.00  0.00     0.169 HD
BRANCH  17  20
HETATM   20  C   UNL     1      51.107 -30.429   3.777  1.00  0.00     0.159 C 
BRANCH  20  21
HETATM   21  C   UNL     1      50.807 -31.338   4.929  1.00  0.00     0.017 A 
HETATM   22  N   UNL     1      49.547 -31.846   5.158  1.00  0.00    -0.369 N 
HETATM   23  C   UNL     1      49.569 -32.658   6.260  1.00  0.00     0.088 A 
HETATM   24  H   UNL     1      48.726 -31.622   4.601  1.00  0.00     0.165 HD
HETATM   25  C   UNL     1      50.858 -32.687   6.740  1.00  0.00     0.019 A 
HETATM   26  C   UNL     1      51.639 -31.857   5.903  1.00  0.00     0.027 A 
ENDBRANCH  20  21
ENDBRANCH  17  20
ENDBRANCH  13  16
ENDBRANCH   9  10
ENDBRANCH   1   9
TORSDOF 5
ENDMDL
MODEL 4
REMARK VINA RESULT:      -7.1      4.843     12.653
REMARK  5 active torsions:
REMARK  status: ('A' for Active; 'I' for Inactive)
REMARK    1  A    between atoms: C_5  and  C_6 
REMARK    2  A    between atoms: C_6  and  C_7 
REMARK       I    between atoms: C_7  and  N_8 
REMARK    3  A    between atoms: N_8  and  C_9 
REMARK    4  A    between atoms: C_12  and  O_13 
REMARK    5  A    between atoms: O_13  and  C_14 
ROOT
HETATM    1  C   UNL     1      40.310  -6.936  16.516  1.00  0.00     0.076 A 
HETATM    2  C   UNL     1      40.795  -6.176  17.581  1.00  0.00     0.039 A 
HETATM    3  C   UNL     1      40.201  -4.949  17.886  1.00  0.00     0.025 A 
HETATM    4  C   UNL     1      39.132  -4.476  17.115  1.00  0.00     0.044 A 
HETATM    5  C   UNL     1      38.524  -3.216  17.427  1.00  0.00     0.099 C 
HETATM    6  N   UNL     1      38.031  -2.197  17.682  1.00  0.00    -0.191 NA
HETATM    7  C   UNL     1      38.665  -5.234  16.033  1.00  0.00     0.025 A 
HETATM    8  C   UNL     1      39.262  -6.461  15.727  1.00  0.00     0.039 A 
ENDROOT
BRANCH   1   9
HETATM    9  O   UNL     1      40.968  -8.104  16.222  1.00  0.00    -0.311 OA
BRANCH   9  10
HETATM   10  C   UNL     1      41.712  -8.170  15.065  1.00  0.00     0.076 A 
HETATM   11  C   UNL     1      41.318  -9.149  14.153  1.00  0.00     0.039 A 
HETATM   12  C   UNL     1      41.961  -9.272  12.917  1.00  0.00     0.032 A 
HETATM   13  C   UNL     1      43.005  -8.414  12.574  1.00  0.00     0.034 A 
HETATM   14  C   UNL     1      43.397  -7.431  13.493  1.00  0.00     0.032 A 
HETATM   15  C   UNL     1      42.747  -7.299  14.728  1.00  0.00     0.039 A 
BRANCH  13  16
HETATM   16  N   UNL     1      43.691  -8.454  11.340  1.00  0.00    -0.327 N 
HETATM   17  C   UNL     1      44.289  -9.553  10.743  1.00  0.00     0.227 C 
HETATM   18  O   UNL     1      44.339 -10.691  11.208  1.00  0.00    -0.273 OA
HETATM   19  H   UNL     1      43.736  -7.577  10.836  1.00  0.00     0.169 HD
BRANCH  17  20
HETATM   20  C   UNL     1      44.887  -9.238   9.370  1.00  0.00     0.159 C 
BRANCH  20  21
HETATM   21  C   UNL     1      44.769 -10.389   8.419  1.00  0.00     0.017 A 
HETATM   22  N   UNL     1      43.629 -11.159   8.332  1.00  0.00    -0.369 N 
HETATM   23  C   UNL     1      43.794 -12.120   7.371  1.00  0.00     0.088 A 
HETATM   24  H   UNL     1      42.807 -11.037   8.917  1.00  0.00     0.165 HD
HETATM   25  C   UNL     1      45.045 -11.964   6.823  1.00  0.00     0.019 A 
HETATM   26  C   UNL     1      45.661 -10.873   7.481  1.00  0.00     0.027 A 
ENDBRANCH  20  21
ENDBRANCH  17  20
ENDBRANCH  13  16
ENDBRANCH   9  10
ENDBRANCH   1   9
TORSDOF 5
ENDMDL
MODEL 5
REMARK VINA RESULT:      -7.0      5.315      9.455
REMARK  5 active torsions:
REMARK  status: ('A' for Active; 'I' for Inactive)
REMARK    1  A    between atoms: C_5  and  C_6 
REMARK    2  A    between atoms: C_6  and  C_7 
REMARK       I    between atoms: C_7  and  N_8 
REMARK    3  A    between atoms: N_8  and  C_9 
REMARK    4  A    between atoms: C_12  and  O_13 
REMARK    5  A    between atoms: O_13  and  C_14 
ROOT
HETATM    1  C   UNL     1      43.463  -8.497  10.535  1.00  0.00     0.076 A 
HETATM    2  C   UNL     1      42.671  -8.654   9.398  1.00  0.00     0.039 A 
HETATM    3  C   UNL     1      42.980  -9.646   8.466  1.00  0.00     0.025 A 
HETATM    4  C   UNL     1      44.094 -10.472   8.665  1.00  0.00     0.044 A 
HETATM    5  C   UNL     1      44.413 -11.490   7.707  1.00  0.00     0.099 C 
HETATM    6  N   UNL     1      44.669 -12.315   6.932  1.00  0.00    -0.191 NA
HETATM    7  C   UNL     1      44.899 -10.295   9.798  1.00  0.00     0.025 A 
HETATM    8  C   UNL     1      44.590  -9.299  10.729  1.00  0.00     0.039 A 
ENDROOT
BRANCH   1   9
HETATM    9  O   UNL     1      43.151  -7.467  11.387  1.00  0.00    -0.311 OA
BRANCH   9  10
HETATM   10  C   UNL     1      42.671  -7.769  12.642  1.00  0.00     0.076 A 
HETATM   11  C   UNL     1      43.141  -6.959  13.675  1.00  0.00     0.039 A 
HETATM   12  C   UNL     1      42.678  -7.133  14.984  1.00  0.00     0.032 A 
HETATM   13  C   UNL     1      41.734  -8.117  15.276  1.00  0.00     0.034 A 
HETATM   14  C   UNL     1      41.264  -8.928  14.234  1.00  0.00     0.032 A 
HETATM   15  C   UNL     1      41.719  -8.749  12.920  1.00  0.00     0.039 A 
BRANCH  13  16
HETATM   16  N   UNL     1      41.197  -8.343  16.562  1.00  0.00    -0.327 N 
HETATM   17  C   UNL     1      40.460  -7.460  17.335  1.00  0.00     0.227 C 
HETATM   18  O   UNL     1      40.162  -6.306  17.030  1.00  0.00    -0.273 OA
HETATM   19  H   UNL     1      41.368  -9.262  16.951  1.00  0.00     0.169 HD
BRANCH  17  20
HETATM   20  C   UNL     1      39.986  -8.071  18.657  1.00  0.00     0.159 C 
BRANCH  20  21
HETATM   21  C   UNL     1      41.127  -8.469  19.542  1.00  0.00     0.017 A 
HETATM   22  N   UNL     1      41.266  -9.748  20.035  1.00  0.00    -0.369 N 
HETATM   23  C   UNL     1      42.404  -9.830  20.791  1.00  0.00     0.088 A 
HETATM   24  H   UNL     1      40.603 -10.502  19.875  1.00  0.00     0.165 HD
HETATM   25  C   UNL     1      43.014  -8.598  20.778  1.00  0.00     0.019 A 
HETATM   26  C   UNL     1      42.212  -7.739  19.990  1.00  0.00     0.027 A 
ENDBRANCH  20  21
ENDBRANCH  17  20
ENDBRANCH  13  16
ENDBRANCH   9  10
ENDBRANCH   1   9
TORSDOF 5
ENDMDL
MODEL 6
REMARK VINA RESULT:      -7.0      2.405      9.177
REMARK  5 active torsions:
REMARK  status: ('A' for Active; 'I' for Inactive)
REMARK    1  A    between atoms: C_5  and  C_6 
REMARK    2  A    between atoms: C_6  and  C_7 
REMARK       I    between atoms: C_7  and  N_8 
REMARK    3  A    between atoms: N_8  and  C_9 
REMARK    4  A    between atoms: C_12  and  O_13 
REMARK    5  A    between atoms: O_13  and  C_14 
ROOT
HETATM    1  C   UNL     1      43.136  -9.291   9.289  1.00  0.00     0.076 A 
HETATM    2  C   UNL     1      44.174  -9.082  10.197  1.00  0.00     0.039 A 
HETATM    3  C   UNL     1      43.894  -8.981  11.561  1.00  0.00     0.025 A 
HETATM    4  C   UNL     1      42.572  -9.073  12.014  1.00  0.00     0.044 A 
HETATM    5  C   UNL     1      42.284  -8.967  13.415  1.00  0.00     0.099 C 
HETATM    6  N   UNL     1      42.052  -8.883  14.549  1.00  0.00    -0.191 NA
HETATM    7  C   UNL     1      41.532  -9.260  11.094  1.00  0.00     0.025 A 
HETATM    8  C   UNL     1      41.813  -9.358   9.729  1.00  0.00     0.039 A 
ENDROOT
BRANCH   1   9
HETATM    9  O   UNL     1      43.459  -9.322   7.955  1.00  0.00    -0.311 OA
BRANCH   9  10
HETATM   10  C   UNL     1      43.298 -10.501   7.262  1.00  0.00     0.076 A 
HETATM   11  C   UNL     1      44.275 -11.470   7.492  1.00  0.00     0.039 A 
HETATM   12  C   UNL     1      44.185 -12.730   6.890  1.00  0.00     0.032 A 
HETATM   13  C   UNL     1      43.113 -13.038   6.053  1.00  0.00     0.034 A 
HETATM   14  C   UNL     1      42.133 -12.062   5.826  1.00  0.00     0.032 A 
HETATM   15  C   UNL     1      42.217 -10.803   6.436  1.00  0.00     0.039 A 
BRANCH  13  16
HETATM   16  N   UNL     1      42.933 -14.291   5.425  1.00  0.00    -0.327 N 
HETATM   17  C   UNL     1      42.242 -15.387   5.914  1.00  0.00     0.227 C 
HETATM   18  O   UNL     1      41.676 -15.459   7.005  1.00  0.00    -0.273 OA
HETATM   19  H   UNL     1      43.353 -14.384   4.509  1.00  0.00     0.169 HD
BRANCH  17  20
HETATM   20  C   UNL     1      42.201 -16.559   4.930  1.00  0.00     0.159 C 
BRANCH  20  21
HETATM   21  C   UNL     1      41.458 -16.222   3.674  1.00  0.00     0.017 A 
HETATM   22  N   UNL     1      40.136 -15.835   3.680  1.00  0.00    -0.369 N 
HETATM   23  C   UNL     1      39.726 -15.570   2.402  1.00  0.00     0.088 A 
HETATM   24  H   UNL     1      39.556 -15.782   4.514  1.00  0.00     0.165 HD
HETATM   25  C   UNL     1      40.794 -15.775   1.561  1.00  0.00     0.019 A 
HETATM   26  C   UNL     1      41.888 -16.184   2.360  1.00  0.00     0.027 A 
ENDBRANCH  20  21
ENDBRANCH  17  20
ENDBRANCH  13  16
ENDBRANCH   9  10
ENDBRANCH   1   9
TORSDOF 5
ENDMDL
MODEL 7
REMARK VINA RESULT:      -6.8      4.596     11.830
REMARK  5 active torsions:
REMARK  status: ('A' for Active; 'I' for Inactive)
REMARK    1  A    between atoms: C_5  and  C_6 
REMARK    2  A    between atoms: C_6  and  C_7 
REMARK       I    between atoms: C_7  and  N_8 
REMARK    3  A    between atoms: N_8  and  C_9 
REMARK    4  A    between atoms: C_12  and  O_13 
REMARK    5  A    between atoms: O_13  and  C_14 
ROOT
HETATM    1  C   UNL     1      40.131  -7.096  15.470  1.00  0.00     0.076 A 
HETATM    2  C   UNL     1      39.378  -6.887  14.315  1.00  0.00     0.039 A 
HETATM    3  C   UNL     1      38.439  -5.854  14.274  1.00  0.00     0.025 A 
HETATM    4  C   UNL     1      38.244  -5.040  15.396  1.00  0.00     0.044 A 
HETATM    5  C   UNL     1      37.279  -3.980  15.355  1.00  0.00     0.099 C 
HETATM    6  N   UNL     1      36.499  -3.122  15.319  1.00  0.00    -0.191 NA
HETATM    7  C   UNL     1      38.987  -5.269  16.561  1.00  0.00     0.025 A 
HETATM    8  C   UNL     1      39.924  -6.306  16.602  1.00  0.00     0.039 A 
ENDROOT
BRANCH   1   9
HETATM    9  O   UNL     1      40.995  -8.163  15.478  1.00  0.00    -0.311 OA
BRANCH   9  10
HETATM   10  C   UNL     1      41.739  -8.419  14.349  1.00  0.00     0.076 A 
HETATM   11  C   UNL     1      42.740  -7.490  14.066  1.00  0.00     0.039 A 
HETATM   12  C   UNL     1      43.600  -7.677  12.977  1.00  0.00     0.032 A 
HETATM   13  C   UNL     1      43.472  -8.799  12.160  1.00  0.00     0.034 A 
HETATM   14  C   UNL     1      42.465  -9.731  12.448  1.00  0.00     0.032 A 
HETATM   15  C   UNL     1      41.610  -9.551  13.544  1.00  0.00     0.039 A 
BRANCH  13  16
HETATM   16  N   UNL     1      44.310  -9.076  11.058  1.00  0.00    -0.327 N 
HETATM   17  C   UNL     1      44.065  -8.801   9.722  1.00  0.00     0.227 C 
HETATM   18  O   UNL     1      43.049  -8.278   9.265  1.00  0.00    -0.273 OA
HETATM   19  H   UNL     1      45.194  -9.516  11.281  1.00  0.00     0.169 HD
BRANCH  17  20
HETATM   20  C   UNL     1      45.231  -9.185   8.806  1.00  0.00     0.159 C 
BRANCH  20  21
HETATM   21  C   UNL     1      44.956 -10.434   8.027  1.00  0.00     0.017 A 
HETATM   22  N   UNL     1      43.783 -11.144   8.163  1.00  0.00    -0.369 N 
HETATM   23  C   UNL     1      43.795 -12.222   7.319  1.00  0.00     0.088 A 
HETATM   24  H   UNL     1      43.039 -10.907   8.815  1.00  0.00     0.165 HD
HETATM   25  C   UNL     1      44.980 -12.203   6.621  1.00  0.00     0.019 A 
HETATM   26  C   UNL     1      45.712 -11.076   7.065  1.00  0.00     0.027 A 
ENDBRANCH  20  21
ENDBRANCH  17  20
ENDBRANCH  13  16
ENDBRANCH   9  10
ENDBRANCH   1   9
TORSDOF 5
ENDMDL
MODEL 8
REMARK VINA RESULT:      -6.8      6.022     12.592
REMARK  5 active torsions:
REMARK  status: ('A' for Active; 'I' for Inactive)
REMARK    1  A    between atoms: C_5  and  C_6 
REMARK    2  A    between atoms: C_6  and  C_7 
REMARK       I    between atoms: C_7  and  N_8 
REMARK    3  A    between atoms: N_8  and  C_9 
REMARK    4  A    between atoms: C_12  and  O_13 
REMARK    5  A    between atoms: O_13  and  C_14 
ROOT
HETATM    1  C   UNL     1      41.379  -6.677  17.505  1.00  0.00     0.076 A 
HETATM    2  C   UNL     1      40.043  -7.061  17.613  1.00  0.00     0.039 A 
HETATM    3  C   UNL     1      39.654  -7.952  18.615  1.00  0.00     0.025 A 
HETATM    4  C   UNL     1      40.608  -8.471  19.500  1.00  0.00     0.044 A 
HETATM    5  C   UNL     1      40.209  -9.388  20.529  1.00  0.00     0.099 C 
HETATM    6  N   UNL     1      39.885 -10.128  21.362  1.00  0.00    -0.191 NA
HETATM    7  C   UNL     1      41.952  -8.099  19.372  1.00  0.00     0.025 A 
HETATM    8  C   UNL     1      42.340  -7.209  18.366  1.00  0.00     0.039 A 
ENDROOT
BRANCH   1   9
HETATM    9  O   UNL     1      41.717  -5.848  16.465  1.00  0.00    -0.311 OA
BRANCH   9  10
HETATM   10  C   UNL     1      41.897  -6.395  15.214  1.00  0.00     0.076 A 
HETATM   11  C   UNL     1      40.841  -6.212  14.321  1.00  0.00     0.039 A 
HETATM   12  C   UNL     1      40.934  -6.672  13.003  1.00  0.00     0.032 A 
HETATM   13  C   UNL     1      42.087  -7.318  12.559  1.00  0.00     0.034 A 
HETATM   14  C   UNL     1      43.146  -7.499  13.460  1.00  0.00     0.032 A 
HETATM   15  C   UNL     1      43.059  -7.030  14.777  1.00  0.00     0.039 A 
BRANCH  13  16
HETATM   16  N   UNL     1      42.272  -7.791  11.242  1.00  0.00    -0.327 N 
HETATM   17  C   UNL     1      42.332  -9.109  10.820  1.00  0.00     0.227 C 
HETATM   18  O   UNL     1      42.251 -10.104  11.540  1.00  0.00    -0.273 OA
HETATM   19  H   UNL     1      42.360  -7.076  10.529  1.00  0.00     0.169 HD
BRANCH  17  20
HETATM   20  C   UNL     1      42.479  -9.248   9.302  1.00  0.00     0.159 C 
BRANCH  20  21
HETATM   21  C   UNL     1      43.903  -9.453   8.884  1.00  0.00     0.017 A 
HETATM   22  N   UNL     1      44.421 -10.702   8.621  1.00  0.00    -0.369 N 
HETATM   23  C   UNL     1      45.731 -10.588   8.242  1.00  0.00     0.088 A 
HETATM   24  H   UNL     1      43.904 -11.572   8.722  1.00  0.00     0.165 HD
HETATM   25  C   UNL     1      46.062  -9.253   8.247  1.00  0.00     0.019 A 
HETATM   26  C   UNL     1      44.911  -8.536   8.650  1.00  0.00     0.027 A 
ENDBRANCH  20  21
ENDBRANCH  17  20
ENDBRANCH  13  16
ENDBRANCH   9  10
ENDBRANCH   1   9
TORSDOF 5
ENDMDL
MODEL 9
REMARK VINA RESULT:      -6.8     17.378     19.911
REMARK  5 active torsions:
REMARK  status: ('A' for Active; 'I' for Inactive)
REMARK    1  A    between atoms: C_5  and  C_6 
REMARK    2  A    between atoms: C_6  and  C_7 
REMARK       I    between atoms: C_7  and  N_8 
REMARK    3  A    between atoms: N_8  and  C_9 
REMARK    4  A    between atoms: C_12  and  O_13 
REMARK    5  A    between atoms: O_13  and  C_14 
ROOT
HETATM    1  C   UNL     1      44.394 -30.738  -5.884  1.00  0.00     0.076 A 
HETATM    2  C   UNL     1      43.865 -30.982  -7.151  1.00  0.00     0.039 A 
HETATM    3  C   UNL     1      44.590 -31.739  -8.073  1.00  0.00     0.025 A 
HETATM    4  C   UNL     1      45.852 -32.239  -7.731  1.00  0.00     0.044 A 
HETATM    5  C   UNL     1      46.599 -33.015  -8.679  1.00  0.00     0.099 C 
HETATM    6  N   UNL     1      47.200 -33.645  -9.446  1.00  0.00    -0.191 NA
HETATM    7  C   UNL     1      46.387 -31.972  -6.465  1.00  0.00     0.025 A 
HETATM    8  C   UNL     1      45.662 -31.211  -5.543  1.00  0.00     0.039 A 
ENDROOT
BRANCH   1   9
HETATM    9  O   UNL     1      43.667 -29.938  -5.038  1.00  0.00    -0.311 OA
BRANCH   9  10
HETATM   10  C   UNL     1      44.156 -29.694  -3.775  1.00  0.00     0.076 A 
HETATM   11  C   UNL     1      44.746 -28.444  -3.590  1.00  0.00     0.039 A 
HETATM   12  C   UNL     1      45.225 -28.059  -2.333  1.00  0.00     0.032 A 
HETATM   13  C   UNL     1      45.117 -28.921  -1.242  1.00  0.00     0.034 A 
HETATM   14  C   UNL     1      44.523 -30.176  -1.432  1.00  0.00     0.032 A 
HETATM   15  C   UNL     1      44.033 -30.558  -2.688  1.00  0.00     0.039 A 
BRANCH  13  16
HETATM   16  N   UNL     1      45.553 -28.604   0.063  1.00  0.00    -0.327 N 
HETATM   17  C   UNL     1      46.851 -28.627   0.548  1.00  0.00     0.227 C 
HETATM   18  O   UNL     1      47.854 -28.952  -0.086  1.00  0.00    -0.273 OA
HETATM   19  H   UNL     1      44.827 -28.318   0.709  1.00  0.00     0.169 HD
BRANCH  17  20
HETATM   20  C   UNL     1      46.957 -28.158   2.002  1.00  0.00     0.159 C 
BRANCH  20  21
HETATM   21  C   UNL     1      47.941 -28.967   2.790  1.00  0.00     0.017 A 
HETATM   22  N   UNL     1      49.296 -28.928   2.540  1.00  0.00    -0.369 N 
HETATM   23  C   UNL     1      49.952 -29.744   3.422  1.00  0.00     0.088 A 
HETATM   24  H   UNL     1      49.728 -28.389   1.794  1.00  0.00     0.165 HD
HETATM   25  C   UNL     1      49.016 -30.307   4.258  1.00  0.00     0.019 A 
HETATM   26  C   UNL     1      47.749 -29.817   3.863  1.00  0.00     0.027 A 
ENDBRANCH  20  21
ENDBRANCH  17  20
ENDBRANCH  13  16
ENDBRANCH   9  10
ENDBRANCH   1   9
TORSDOF 5
ENDMDL
MODEL 10
REMARK VINA RESULT:      -6.7      2.667      9.489
REMARK  5 active torsions:
REMARK  status: ('A' for Active; 'I' for Inactive)
REMARK    1  A    between atoms: C_5  and  C_6 
REMARK    2  A    between atoms: C_6  and  C_7 
REMARK       I    between atoms: C_7  and  N_8 
REMARK    3  A    between atoms: N_8  and  C_9 
REMARK    4  A    between atoms: C_12  and  O_13 
REMARK    5  A    between atoms: O_13  and  C_14 
ROOT
HETATM    1  C   UNL     1      44.153  -9.141  10.106  1.00  0.00     0.076 A 
HETATM    2  C   UNL     1      43.521  -7.956  10.480  1.00  0.00     0.039 A 
HETATM    3  C   UNL     1      42.775  -7.907  11.659  1.00  0.00     0.025 A 
HETATM    4  C   UNL     1      42.648  -9.052  12.456  1.00  0.00     0.044 A 
HETATM    5  C   UNL     1      41.881  -9.003  13.666  1.00  0.00     0.099 C 
HETATM    6  N   UNL     1      41.260  -8.961  14.646  1.00  0.00    -0.191 NA
HETATM    7  C   UNL     1      43.267 -10.245  12.064  1.00  0.00     0.025 A 
HETATM    8  C   UNL     1      44.012 -10.294  10.881  1.00  0.00     0.039 A 
ENDROOT
BRANCH   1   9
HETATM    9  O   UNL     1      44.822  -9.151   8.908  1.00  0.00    -0.311 OA
BRANCH   9  10
HETATM   10  C   UNL     1      44.499 -10.113   7.978  1.00  0.00     0.076 A 
HETATM   11  C   UNL     1      43.242  -9.981   7.389  1.00  0.00     0.039 A 
HETATM   12  C   UNL     1      42.827 -10.864   6.386  1.00  0.00     0.032 A 
HETATM   13  C   UNL     1      43.668 -11.891   5.956  1.00  0.00     0.034 A 
HETATM   14  C   UNL     1      44.930 -12.020   6.551  1.00  0.00     0.032 A 
HETATM   15  C   UNL     1      45.352 -11.130   7.547  1.00  0.00     0.039 A 
BRANCH  13  16
HETATM   16  N   UNL     1      43.337 -12.810   4.937  1.00  0.00    -0.327 N 
HETATM   17  C   UNL     1      43.332 -12.586   3.569  1.00  0.00     0.227 C 
HETATM   18  O   UNL     1      43.600 -11.523   3.009  1.00  0.00    -0.273 OA
HETATM   19  H   UNL     1      43.086 -13.739   5.250  1.00  0.00     0.169 HD
BRANCH  17  20
HETATM   20  C   UNL     1      42.980 -13.835   2.757  1.00  0.00     0.159 C 
BRANCH  20  21
HETATM   21  C   UNL     1      41.765 -13.638   1.905  1.00  0.00     0.017 A 
HETATM   22  N   UNL     1      41.069 -12.448   1.877  1.00  0.00    -0.369 N 
HETATM   23  C   UNL     1      40.023 -12.546   1.000  1.00  0.00     0.088 A 
HETATM   24  H   UNL     1      41.294 -11.637   2.446  1.00  0.00     0.165 HD
HETATM   25  C   UNL     1      40.048 -13.804   0.445  1.00  0.00     0.019 A 
HETATM   26  C   UNL     1      41.146 -14.493   1.013  1.00  0.00     0.027 A 
ENDBRANCH  20  21
ENDBRANCH  17  20
ENDBRANCH  13  16
ENDBRANCH   9  10
ENDBRANCH   1   9
TORSDOF 5
ENDMDL
