MODEL 1
REMARK VINA RESULT:      -8.4      0.000      0.000
REMARK  7 active torsions:
REMARK  status: ('A' for Active; 'I' for Inactive)
REMARK    1  A    between atoms: C_3  and  C_4 
REMARK       I    between atoms: C_4  and  N_5 
REMARK    2  A    between atoms: N_8  and  C_9 
REMARK    3  A    between atoms: C_12  and  N_13 
REMARK    4  A    between atoms: N_13  and  C_14 
REMARK    5  A    between atoms: C_14  and  N_15 
REMARK       I    between atoms: N_15  and  C_16 
REMARK    6  A    between atoms: C_16  and  C_17 
REMARK    7  A    between atoms: C_19  and  O_20 
ROOT
HETATM    1  C   UNL     1      42.236 -11.464   4.335  1.00  0.00     0.030 A 
HETATM    2  C   UNL     1      40.838 -11.394   4.253  1.00  0.00     0.031 A 
HETATM    3  C   UNL     1      40.162 -11.621   3.049  1.00  0.00     0.026 A 
HETATM    4  C   UNL     1      40.874 -11.930   1.889  1.00  0.00     0.014 A 
HETATM    5  C   UNL     1      42.256 -12.094   1.970  1.00  0.00     0.026 A 
HETATM    6  C   UNL     1      42.927 -11.850   3.179  1.00  0.00     0.031 A 
ENDROOT
BRANCH   4   7
HETATM    7  N   UNL     1      40.151 -11.954   0.655  1.00  0.00    -0.236 NA
HETATM    8  H   UNL     1      40.546 -11.252   0.033  1.00  0.00     0.136 HD
BRANCH   7   9
HETATM    9  C   UNL     1      39.932 -13.135   0.002  1.00  0.00     0.157 C 
HETATM   10  S   UNL     1      40.181 -13.280  -1.643  1.00  0.00    -0.047 SA
BRANCH   9  11
HETATM   11  N   UNL     1      39.417 -14.197   0.704  1.00  0.00    -0.304 N 
HETATM   12  C   UNL     1      39.961 -15.445   0.944  1.00  0.00     0.257 C 
HETATM   13  O   UNL     1      39.404 -16.454   0.517  1.00  0.00    -0.267 OA
HETATM   14  H   UNL     1      38.413 -14.242   0.577  1.00  0.00     0.171 HD
BRANCH  12  15
HETATM   15  C   UNL     1      41.112 -15.547   1.903  1.00  0.00     0.035 A 
HETATM   16  C   UNL     1      40.844 -15.302   3.262  1.00  0.00     0.053 A 
HETATM   17  C   UNL     1      41.884 -15.259   4.195  1.00  0.00     0.069 A 
HETATM   18  C   UNL     1      43.190 -15.527   3.787  1.00  0.00     0.037 A 
HETATM   19  C   UNL     1      43.468 -15.771   2.444  1.00  0.00     0.004 A 
HETATM   20  C   UNL     1      42.438 -15.757   1.503  1.00  0.00     0.017 A 
BRANCH  17  21
HETATM   21  O   UNL     1      41.739 -14.977   5.526  1.00  0.00    -0.356 OA
HETATM   22  C   UNL     1      40.434 -14.568   5.925  1.00  0.00     0.210 C 
ENDBRANCH  17  21
ENDBRANCH  12  15
ENDBRANCH   9  11
ENDBRANCH   7   9
ENDBRANCH   4   7
BRANCH   1  23
HETATM   23  N   UNL     1      42.859 -11.085   5.526  1.00  0.00    -0.378 N 
HETATM   24  C   UNL     1      44.051 -11.838   5.965  1.00  0.00     0.143 C 
HETATM   25  C   UNL     1      44.818 -11.025   7.021  1.00  0.00     0.146 C 
HETATM   26  N   UNL     1      43.970 -10.572   8.131  1.00  0.00    -0.345 N 
HETATM   27  C   UNL     1      44.613 -10.291   9.337  1.00  0.00     0.254 C 
HETATM   28  C   UNL     1      42.675  -9.990   7.741  1.00  0.00     0.146 C 
HETATM   29  O   UNL     1      45.785 -10.576   9.571  1.00  0.00    -0.267 OA
HETATM   30  C   UNL     1      41.939 -10.787   6.643  1.00  0.00     0.143 C 
BRANCH  27  31
HETATM   31  C   UNL     1      43.839  -9.645  10.418  1.00  0.00     0.038 A 
HETATM   32  C   UNL     1      43.607  -8.259  10.446  1.00  0.00    -0.046 A 
HETATM   33  C   UNL     1      44.090  -7.332   9.369  1.00  0.00     0.049 C 
HETATM   34  C   UNL     1      42.861  -7.734  11.512  1.00  0.00     0.007 A 
HETATM   35  C   UNL     1      42.400  -8.562  12.540  1.00  0.00     0.001 A 
HETATM   36  C   UNL     1      42.672  -9.929  12.518  1.00  0.00     0.001 A 
HETATM   37  C   UNL     1      43.392 -10.473  11.456  1.00  0.00     0.017 A 
ENDBRANCH  27  31
ENDBRANCH   1  23
TORSDOF 7
ENDMDL
MODEL 2
REMARK VINA RESULT:      -8.3      4.636     10.437
REMARK  7 active torsions:
REMARK  status: ('A' for Active; 'I' for Inactive)
REMARK    1  A    between atoms: C_3  and  C_4 
REMARK       I    between atoms: C_4  and  N_5 
REMARK    2  A    between atoms: N_8  and  C_9 
REMARK    3  A    between atoms: C_12  and  N_13 
REMARK    4  A    between atoms: N_13  and  C_14 
REMARK    5  A    between atoms: C_14  and  N_15 
REMARK       I    between atoms: N_15  and  C_16 
REMARK    6  A    between atoms: C_16  and  C_17 
REMARK    7  A    between atoms: C_19  and  O_20 
ROOT
HETATM    1  C   UNL     1      42.333  -7.230   9.616  1.00  0.00     0.030 A 
HETATM    2  C   UNL     1      41.038  -7.357  10.139  1.00  0.00     0.031 A 
HETATM    3  C   UNL     1      40.483  -6.378  10.971  1.00  0.00     0.026 A 
HETATM    4  C   UNL     1      41.216  -5.235  11.299  1.00  0.00     0.014 A 
HETATM    5  C   UNL     1      42.467  -5.046  10.715  1.00  0.00     0.026 A 
HETATM    6  C   UNL     1      43.021  -6.042   9.893  1.00  0.00     0.031 A 
ENDROOT
BRANCH   4   7
HETATM    7  N   UNL     1      40.680  -4.372  12.305  1.00  0.00    -0.236 NA
HETATM    8  H   UNL     1      39.759  -4.058  12.007  1.00  0.00     0.136 HD
BRANCH   7   9
HETATM    9  C   UNL     1      40.679  -4.752  13.618  1.00  0.00     0.157 C 
HETATM   10  S   UNL     1      39.336  -4.536  14.587  1.00  0.00    -0.047 SA
BRANCH   9  11
HETATM   11  N   UNL     1      41.838  -5.243  14.167  1.00  0.00    -0.304 N 
HETATM   12  C   UNL     1      42.076  -6.457  14.788  1.00  0.00     0.257 C 
HETATM   13  O   UNL     1      42.414  -6.490  15.968  1.00  0.00    -0.267 OA
HETATM   14  H   UNL     1      42.364  -4.492  14.596  1.00  0.00     0.171 HD
BRANCH  12  15
HETATM   15  C   UNL     1      42.116  -7.694  13.939  1.00  0.00     0.035 A 
HETATM   16  C   UNL     1      41.043  -8.595  14.058  1.00  0.00     0.053 A 
HETATM   17  C   UNL     1      41.068  -9.824  13.393  1.00  0.00     0.069 A 
HETATM   18  C   UNL     1      42.136 -10.131  12.551  1.00  0.00     0.037 A 
HETATM   19  C   UNL     1      43.206  -9.248  12.424  1.00  0.00     0.004 A 
HETATM   20  C   UNL     1      43.207  -8.046  13.134  1.00  0.00     0.017 A 
BRANCH  17  21
HETATM   21  O   UNL     1      40.104 -10.791  13.483  1.00  0.00    -0.356 OA
HETATM   22  C   UNL     1      39.168 -10.822  12.410  1.00  0.00     0.210 C 
ENDBRANCH  17  21
ENDBRANCH  12  15
ENDBRANCH   9  11
ENDBRANCH   7   9
ENDBRANCH   4   7
BRANCH   1  23
HETATM   23  N   UNL     1      42.882  -8.305   8.914  1.00  0.00    -0.378 N 
HETATM   24  C   UNL     1      44.347  -8.346   8.728  1.00  0.00     0.143 C 
HETATM   25  C   UNL     1      44.779  -9.768   8.334  1.00  0.00     0.146 C 
HETATM   26  N   UNL     1      44.029 -10.305   7.191  1.00  0.00    -0.345 N 
HETATM   27  C   UNL     1      44.647 -11.315   6.454  1.00  0.00     0.254 C 
HETATM   28  C   UNL     1      42.570 -10.107   7.242  1.00  0.00     0.146 C 
HETATM   29  O   UNL     1      45.825 -11.637   6.586  1.00  0.00    -0.267 OA
HETATM   30  C   UNL     1      42.149  -8.691   7.691  1.00  0.00     0.143 C 
BRANCH  27  31
HETATM   31  C   UNL     1      43.858 -12.023   5.423  1.00  0.00     0.038 A 
HETATM   32  C   UNL     1      43.251 -13.266   5.670  1.00  0.00    -0.046 A 
HETATM   33  C   UNL     1      43.320 -13.955   7.003  1.00  0.00     0.049 C 
HETATM   34  C   UNL     1      42.521 -13.865   4.632  1.00  0.00     0.007 A 
HETATM   35  C   UNL     1      42.439 -13.260   3.374  1.00  0.00     0.001 A 
HETATM   36  C   UNL     1      43.080 -12.047   3.134  1.00  0.00     0.001 A 
HETATM   37  C   UNL     1      43.791 -11.425   4.158  1.00  0.00     0.017 A 
ENDBRANCH  27  31
ENDBRANCH   1  23
TORSDOF 7
ENDMDL
MODEL 3
REMARK VINA RESULT:      -8.1      1.375      1.818
REMARK  7 active torsions:
REMARK  status: ('A' for Active; 'I' for Inactive)
REMARK    1  A    between atoms: C_3  and  C_4 
REMARK       I    between atoms: C_4  and  N_5 
REMARK    2  A    between atoms: N_8  and  C_9 
REMARK    3  A    between atoms: C_12  and  N_13 
REMARK    4  A    between atoms: N_13  and  C_14 
REMARK    5  A    between atoms: C_14  and  N_15 
REMARK       I    between atoms: N_15  and  C_16 
REMARK    6  A    between atoms: C_16  and  C_17 
REMARK    7  A    between atoms: C_19  and  O_20 
ROOT
HETATM    1  C   UNL     1      42.897 -11.697   4.828  1.00  0.00     0.030 A 
HETATM    2  C   UNL     1      41.592 -11.449   4.380  1.00  0.00     0.031 A 
HETATM    3  C   UNL     1      41.123 -11.965   3.166  1.00  0.00     0.026 A 
HETATM    4  C   UNL     1      41.956 -12.750   2.366  1.00  0.00     0.014 A 
HETATM    5  C   UNL     1      43.225 -13.083   2.838  1.00  0.00     0.026 A 
HETATM    6  C   UNL     1      43.691 -12.549   4.051  1.00  0.00     0.031 A 
ENDROOT
BRANCH   4   7
HETATM    7  N   UNL     1      41.494 -13.080   1.054  1.00  0.00    -0.236 NA
HETATM    8  H   UNL     1      41.999 -13.900   0.728  1.00  0.00     0.136 HD
BRANCH   7   9
HETATM    9  C   UNL     1      40.156 -13.180   0.794  1.00  0.00     0.157 C 
HETATM   10  S   UNL     1      39.300 -11.909   0.126  1.00  0.00    -0.047 SA
BRANCH   9  11
HETATM   11  N   UNL     1      39.490 -14.321   1.168  1.00  0.00    -0.304 N 
HETATM   12  C   UNL     1      39.959 -15.616   1.296  1.00  0.00     0.257 C 
HETATM   13  O   UNL     1      39.503 -16.510   0.587  1.00  0.00    -0.267 OA
HETATM   14  H   UNL     1      38.539 -14.297   0.820  1.00  0.00     0.171 HD
BRANCH  12  15
HETATM   15  C   UNL     1      40.866 -15.933   2.449  1.00  0.00     0.035 A 
HETATM   16  C   UNL     1      42.020 -16.690   2.173  1.00  0.00     0.053 A 
HETATM   17  C   UNL     1      42.848 -17.127   3.211  1.00  0.00     0.069 A 
HETATM   18  C   UNL     1      42.565 -16.754   4.524  1.00  0.00     0.037 A 
HETATM   19  C   UNL     1      41.426 -16.005   4.810  1.00  0.00     0.004 A 
HETATM   20  C   UNL     1      40.568 -15.618   3.781  1.00  0.00     0.017 A 
BRANCH  17  21
HETATM   21  O   UNL     1      43.960 -17.910   3.057  1.00  0.00    -0.356 OA
HETATM   22  C   UNL     1      44.352 -18.647   4.211  1.00  0.00     0.210 C 
ENDBRANCH  17  21
ENDBRANCH  12  15
ENDBRANCH   9  11
ENDBRANCH   7   9
ENDBRANCH   4   7
BRANCH   1  23
HETATM   23  N   UNL     1      43.350 -11.036   5.973  1.00  0.00    -0.378 N 
HETATM   24  C   UNL     1      44.674 -11.402   6.516  1.00  0.00     0.143 C 
HETATM   25  C   UNL     1      45.163 -10.303   7.474  1.00  0.00     0.146 C 
HETATM   26  N   UNL     1      44.181  -9.960   8.510  1.00  0.00    -0.345 N 
HETATM   27  C   UNL     1      44.678  -9.387   9.680  1.00  0.00     0.254 C 
HETATM   28  C   UNL     1      42.798  -9.780   8.035  1.00  0.00     0.146 C 
HETATM   29  O   UNL     1      45.872  -9.332   9.962  1.00  0.00    -0.267 OA
HETATM   30  C   UNL     1      42.337 -10.860   7.034  1.00  0.00     0.143 C 
BRANCH  27  31
HETATM   31  C   UNL     1      43.719  -8.843  10.665  1.00  0.00     0.038 A 
HETATM   32  C   UNL     1      43.184  -7.548  10.551  1.00  0.00    -0.046 A 
HETATM   33  C   UNL     1      43.510  -6.631   9.407  1.00  0.00     0.049 C 
HETATM   34  C   UNL     1      42.279  -7.116  11.533  1.00  0.00     0.007 A 
HETATM   35  C   UNL     1      41.956  -7.936  12.618  1.00  0.00     0.001 A 
HETATM   36  C   UNL     1      42.524  -9.202  12.737  1.00  0.00     0.001 A 
HETATM   37  C   UNL     1      43.407  -9.659  11.760  1.00  0.00     0.017 A 
ENDBRANCH  27  31
ENDBRANCH   1  23
TORSDOF 7
ENDMDL
MODEL 4
REMARK VINA RESULT:      -8.0      4.738     10.008
REMARK  7 active torsions:
REMARK  status: ('A' for Active; 'I' for Inactive)
REMARK    1  A    between atoms: C_3  and  C_4 
REMARK       I    between atoms: C_4  and  N_5 
REMARK    2  A    between atoms: N_8  and  C_9 
REMARK    3  A    between atoms: C_12  and  N_13 
REMARK    4  A    between atoms: N_13  and  C_14 
REMARK    5  A    between atoms: C_14  and  N_15 
REMARK       I    between atoms: N_15  and  C_16 
REMARK    6  A    between atoms: C_16  and  C_17 
REMARK    7  A    between atoms: C_19  and  O_20 
ROOT
HETATM    1  C   UNL     1      43.388  -8.173  10.935  1.00  0.00     0.030 A 
HETATM    2  C   UNL     1      42.779  -6.953  10.608  1.00  0.00     0.031 A 
HETATM    3  C   UNL     1      42.286  -6.091  11.595  1.00  0.00     0.026 A 
HETATM    4  C   UNL     1      42.396  -6.431  12.945  1.00  0.00     0.014 A 
HETATM    5  C   UNL     1      43.080  -7.594  13.294  1.00  0.00     0.026 A 
HETATM    6  C   UNL     1      43.558  -8.459  12.296  1.00  0.00     0.031 A 
ENDROOT
BRANCH   4   7
HETATM    7  N   UNL     1      41.702  -5.614  13.891  1.00  0.00    -0.236 NA
HETATM    8  H   UNL     1      42.241  -4.765  14.045  1.00  0.00     0.136 HD
BRANCH   7   9
HETATM    9  C   UNL     1      40.373  -5.339  13.729  1.00  0.00     0.157 C 
HETATM   10  S   UNL     1      39.844  -3.814  13.297  1.00  0.00    -0.047 SA
BRANCH   9  11
HETATM   11  N   UNL     1      39.453  -6.319  14.009  1.00  0.00    -0.304 N 
HETATM   12  C   UNL     1      38.509  -6.907  13.186  1.00  0.00     0.257 C 
HETATM   13  O   UNL     1      37.312  -6.791  13.438  1.00  0.00    -0.267 OA
HETATM   14  H   UNL     1      39.112  -6.214  14.957  1.00  0.00     0.171 HD
BRANCH  12  15
HETATM   15  C   UNL     1      38.985  -7.851  12.120  1.00  0.00     0.035 A 
HETATM   16  C   UNL     1      38.653  -7.541  10.788  1.00  0.00     0.053 A 
HETATM   17  C   UNL     1      38.954  -8.432   9.754  1.00  0.00     0.069 A 
HETATM   18  C   UNL     1      39.649  -9.608  10.036  1.00  0.00     0.037 A 
HETATM   19  C   UNL     1      39.983  -9.927  11.351  1.00  0.00     0.004 A 
HETATM   20  C   UNL     1      39.631  -9.064  12.390  1.00  0.00     0.017 A 
BRANCH  17  21
HETATM   21  O   UNL     1      38.629  -8.253   8.437  1.00  0.00    -0.356 OA
HETATM   22  C   UNL     1      39.344  -9.068   7.515  1.00  0.00     0.210 C 
ENDBRANCH  17  21
ENDBRANCH  12  15
ENDBRANCH   9  11
ENDBRANCH   7   9
ENDBRANCH   4   7
BRANCH   1  23
HETATM   23  N   UNL     1      43.726  -9.052   9.904  1.00  0.00    -0.378 N 
HETATM   24  C   UNL     1      45.104  -9.014   9.374  1.00  0.00     0.143 C 
HETATM   25  C   UNL     1      45.391 -10.302   8.584  1.00  0.00     0.146 C 
HETATM   26  N   UNL     1      44.379 -10.591   7.561  1.00  0.00    -0.345 N 
HETATM   27  C   UNL     1      44.777 -11.398   6.495  1.00  0.00     0.254 C 
HETATM   28  C   UNL     1      42.979 -10.447   7.998  1.00  0.00     0.146 C 
HETATM   29  O   UNL     1      45.944 -11.710   6.272  1.00  0.00    -0.267 OA
HETATM   30  C   UNL     1      42.716  -9.177   8.834  1.00  0.00     0.143 C 
BRANCH  27  31
HETATM   31  C   UNL     1      43.748 -11.880   5.550  1.00  0.00     0.038 A 
HETATM   32  C   UNL     1      43.105 -13.119   5.713  1.00  0.00    -0.046 A 
HETATM   33  C   UNL     1      43.379 -14.031   6.874  1.00  0.00     0.049 C 
HETATM   34  C   UNL     1      42.140 -13.495   4.766  1.00  0.00     0.007 A 
HETATM   35  C   UNL     1      41.862 -12.678   3.666  1.00  0.00     0.001 A 
HETATM   36  C   UNL     1      42.537 -11.471   3.496  1.00  0.00     0.001 A 
HETATM   37  C   UNL     1      43.482 -11.069   4.439  1.00  0.00     0.017 A 
ENDBRANCH  27  31
ENDBRANCH   1  23
TORSDOF 7
ENDMDL
MODEL 5
REMARK VINA RESULT:      -7.9      2.141      2.954
REMARK  7 active torsions:
REMARK  status: ('A' for Active; 'I' for Inactive)
REMARK    1  A    between atoms: C_3  and  C_4 
REMARK       I    between atoms: C_4  and  N_5 
REMARK    2  A    between atoms: N_8  and  C_9 
REMARK    3  A    between atoms: C_12  and  N_13 
REMARK    4  A    between atoms: N_13  and  C_14 
REMARK    5  A    between atoms: C_14  and  N_15 
REMARK       I    between atoms: N_15  and  C_16 
REMARK    6  A    between atoms: C_16  and  C_17 
REMARK    7  A    between atoms: C_19  and  O_20 
ROOT
HETATM    1  C   UNL     1      42.271 -11.258   4.855  1.00  0.00     0.030 A 
HETATM    2  C   UNL     1      43.093 -11.503   3.745  1.00  0.00     0.031 A 
HETATM    3  C   UNL     1      42.610 -12.156   2.605  1.00  0.00     0.026 A 
HETATM    4  C   UNL     1      41.281 -12.580   2.547  1.00  0.00     0.014 A 
HETATM    5  C   UNL     1      40.426 -12.265   3.601  1.00  0.00     0.026 A 
HETATM    6  C   UNL     1      40.923 -11.622   4.747  1.00  0.00     0.031 A 
ENDROOT
BRANCH   4   7
HETATM    7  N   UNL     1      40.900 -13.412   1.448  1.00  0.00    -0.236 NA
HETATM    8  H   UNL     1      41.378 -13.085   0.611  1.00  0.00     0.136 HD
BRANCH   7   9
HETATM    9  C   UNL     1      40.957 -14.774   1.555  1.00  0.00     0.157 C 
HETATM   10  S   UNL     1      39.720 -15.645   2.263  1.00  0.00    -0.047 SA
BRANCH   9  11
HETATM   11  N   UNL     1      42.095 -15.425   1.147  1.00  0.00    -0.304 N 
HETATM   12  C   UNL     1      43.335 -15.503   1.756  1.00  0.00     0.257 C 
HETATM   13  O   UNL     1      44.327 -15.043   1.195  1.00  0.00    -0.267 OA
HETATM   14  H   UNL     1      42.173 -15.389   0.138  1.00  0.00     0.171 HD
BRANCH  12  15
HETATM   15  C   UNL     1      43.468 -16.338   2.996  1.00  0.00     0.035 A 
HETATM   16  C   UNL     1      43.748 -17.706   2.828  1.00  0.00     0.053 A 
HETATM   17  C   UNL     1      43.766 -18.570   3.927  1.00  0.00     0.069 A 
HETATM   18  C   UNL     1      43.569 -18.059   5.209  1.00  0.00     0.037 A 
HETATM   19  C   UNL     1      43.289 -16.706   5.390  1.00  0.00     0.004 A 
HETATM   20  C   UNL     1      43.215 -15.855   4.287  1.00  0.00     0.017 A 
BRANCH  17  21
HETATM   21  O   UNL     1      43.975 -19.921   3.866  1.00  0.00    -0.356 OA
HETATM   22  C   UNL     1      44.297 -20.545   5.105  1.00  0.00     0.210 C 
ENDBRANCH  17  21
ENDBRANCH  12  15
ENDBRANCH   9  11
ENDBRANCH   7   9
ENDBRANCH   4   7
BRANCH   1  23
HETATM   23  N   UNL     1      42.848 -10.735   6.015  1.00  0.00    -0.378 N 
HETATM   24  C   UNL     1      44.133 -11.300   6.475  1.00  0.00     0.143 C 
HETATM   25  C   UNL     1      44.795 -10.335   7.473  1.00  0.00     0.146 C 
HETATM   26  N   UNL     1      43.904  -9.938   8.571  1.00  0.00    -0.345 N 
HETATM   27  C   UNL     1      44.514  -9.508   9.750  1.00  0.00     0.254 C 
HETATM   28  C   UNL     1      42.539  -9.554   8.170  1.00  0.00     0.146 C 
HETATM   29  O   UNL     1      45.715  -9.623   9.980  1.00  0.00    -0.267 OA
HETATM   30  C   UNL     1      41.906 -10.501   7.128  1.00  0.00     0.143 C 
BRANCH  27  31
HETATM   31  C   UNL     1      43.670  -8.912  10.806  1.00  0.00     0.038 A 
HETATM   32  C   UNL     1      43.194  -9.662  11.895  1.00  0.00    -0.046 A 
HETATM   33  C   UNL     1      43.533 -11.112  12.094  1.00  0.00     0.049 C 
HETATM   34  C   UNL     1      42.399  -9.012  12.851  1.00  0.00     0.007 A 
HETATM   35  C   UNL     1      42.055  -7.666  12.699  1.00  0.00     0.001 A 
HETATM   36  C   UNL     1      42.502  -6.946  11.594  1.00  0.00     0.001 A 
HETATM   37  C   UNL     1      43.311  -7.567  10.645  1.00  0.00     0.017 A 
ENDBRANCH  27  31
ENDBRANCH   1  23
TORSDOF 7
ENDMDL
MODEL 6
REMARK VINA RESULT:      -7.9      3.229      9.443
REMARK  7 active torsions:
REMARK  status: ('A' for Active; 'I' for Inactive)
REMARK    1  A    between atoms: C_3  and  C_4 
REMARK       I    between atoms: C_4  and  N_5 
REMARK    2  A    between atoms: N_8  and  C_9 
REMARK    3  A    between atoms: C_12  and  N_13 
REMARK    4  A    between atoms: N_13  and  C_14 
REMARK    5  A    between atoms: C_14  and  N_15 
REMARK       I    between atoms: N_15  and  C_16 
REMARK    6  A    between atoms: C_16  and  C_17 
REMARK    7  A    between atoms: C_19  and  O_20 
ROOT
HETATM    1  C   UNL     1      41.611 -10.371   5.873  1.00  0.00     0.030 A 
HETATM    2  C   UNL     1      41.868 -10.229   7.244  1.00  0.00     0.031 A 
HETATM    3  C   UNL     1      42.083  -8.973   7.823  1.00  0.00     0.026 A 
HETATM    4  C   UNL     1      42.041  -7.819   7.038  1.00  0.00     0.014 A 
HETATM    5  C   UNL     1      41.696  -7.932   5.693  1.00  0.00     0.026 A 
HETATM    6  C   UNL     1      41.497  -9.198   5.117  1.00  0.00     0.031 A 
ENDROOT
BRANCH   4   7
HETATM    7  N   UNL     1      42.462  -6.593   7.642  1.00  0.00    -0.236 NA
HETATM    8  H   UNL     1      42.449  -5.862   6.934  1.00  0.00     0.136 HD
BRANCH   7   9
HETATM    9  C   UNL     1      41.900  -6.166   8.812  1.00  0.00     0.157 C 
HETATM   10  S   UNL     1      40.279  -5.771   8.908  1.00  0.00    -0.047 SA
BRANCH   9  11
HETATM   11  N   UNL     1      42.707  -5.980   9.907  1.00  0.00    -0.304 N 
HETATM   12  C   UNL     1      42.597  -6.500  11.184  1.00  0.00     0.257 C 
HETATM   13  O   UNL     1      42.433  -5.750  12.144  1.00  0.00    -0.267 OA
HETATM   14  H   UNL     1      43.067  -5.033   9.916  1.00  0.00     0.171 HD
BRANCH  12  15
HETATM   15  C   UNL     1      42.893  -7.958  11.387  1.00  0.00     0.035 A 
HETATM   16  C   UNL     1      44.032  -8.481  10.749  1.00  0.00     0.053 A 
HETATM   17  C   UNL     1      44.305  -9.851  10.791  1.00  0.00     0.069 A 
HETATM   18  C   UNL     1      43.476 -10.698  11.526  1.00  0.00     0.037 A 
HETATM   19  C   UNL     1      42.344 -10.193  12.162  1.00  0.00     0.004 A 
HETATM   20  C   UNL     1      42.041  -8.834  12.072  1.00  0.00     0.017 A 
BRANCH  17  21
HETATM   21  O   UNL     1      45.353 -10.467  10.162  1.00  0.00    -0.356 OA
HETATM   22  C   UNL     1      45.397 -10.304   8.748  1.00  0.00     0.210 C 
ENDBRANCH  17  21
ENDBRANCH  12  15
ENDBRANCH   9  11
ENDBRANCH   7   9
ENDBRANCH   4   7
BRANCH   1  23
HETATM   23  N   UNL     1      41.551 -11.657   5.331  1.00  0.00    -0.378 N 
HETATM   24  C   UNL     1      40.223 -12.267   5.118  1.00  0.00     0.143 C 
HETATM   25  C   UNL     1      40.347 -13.453   4.147  1.00  0.00     0.146 C 
HETATM   26  N   UNL     1      41.377 -14.421   4.545  1.00  0.00    -0.345 N 
HETATM   27  C   UNL     1      41.237 -15.722   4.061  1.00  0.00     0.254 C 
HETATM   28  C   UNL     1      42.666 -13.838   4.959  1.00  0.00     0.146 C 
HETATM   29  O   UNL     1      40.227 -16.137   3.498  1.00  0.00    -0.267 OA
HETATM   30  C   UNL     1      42.526 -12.616   5.891  1.00  0.00     0.143 C 
BRANCH  27  31
HETATM   31  C   UNL     1      42.345 -16.677   4.266  1.00  0.00     0.038 A 
HETATM   32  C   UNL     1      43.196 -17.071   3.219  1.00  0.00    -0.046 A 
HETATM   33  C   UNL     1      43.073 -16.529   1.824  1.00  0.00     0.049 C 
HETATM   34  C   UNL     1      44.223 -17.983   3.506  1.00  0.00     0.007 A 
HETATM   35  C   UNL     1      44.366 -18.518   4.790  1.00  0.00     0.001 A 
HETATM   36  C   UNL     1      43.491 -18.147   5.809  1.00  0.00     0.001 A 
HETATM   37  C   UNL     1      42.478 -17.225   5.549  1.00  0.00     0.017 A 
ENDBRANCH  27  31
ENDBRANCH   1  23
TORSDOF 7
ENDMDL
MODEL 7
REMARK VINA RESULT:      -7.9      3.456      9.513
REMARK  7 active torsions:
REMARK  status: ('A' for Active; 'I' for Inactive)
REMARK    1  A    between atoms: C_3  and  C_4 
REMARK       I    between atoms: C_4  and  N_5 
REMARK    2  A    between atoms: N_8  and  C_9 
REMARK    3  A    between atoms: C_12  and  N_13 
REMARK    4  A    between atoms: N_13  and  C_14 
REMARK    5  A    between atoms: C_14  and  N_15 
REMARK       I    between atoms: N_15  and  C_16 
REMARK    6  A    between atoms: C_16  and  C_17 
REMARK    7  A    between atoms: C_19  and  O_20 
ROOT
HETATM    1  C   UNL     1      41.612 -10.357   5.903  1.00  0.00     0.030 A 
HETATM    2  C   UNL     1      42.260 -10.173   7.133  1.00  0.00     0.031 A 
HETATM    3  C   UNL     1      42.482  -8.896   7.662  1.00  0.00     0.026 A 
HETATM    4  C   UNL     1      42.053  -7.763   6.968  1.00  0.00     0.014 A 
HETATM    5  C   UNL     1      41.326  -7.929   5.790  1.00  0.00     0.026 A 
HETATM    6  C   UNL     1      41.122  -9.214   5.261  1.00  0.00     0.031 A 
ENDROOT
BRANCH   4   7
HETATM    7  N   UNL     1      42.480  -6.488   7.455  1.00  0.00    -0.236 NA
HETATM    8  H   UNL     1      42.488  -5.830   6.679  1.00  0.00     0.136 HD
BRANCH   7   9
HETATM    9  C   UNL     1      41.906  -5.942   8.568  1.00  0.00     0.157 C 
HETATM   10  S   UNL     1      40.331  -5.388   8.554  1.00  0.00    -0.047 SA
BRANCH   9  11
HETATM   11  N   UNL     1      42.673  -5.772   9.695  1.00  0.00    -0.304 N 
HETATM   12  C   UNL     1      42.466  -6.233  10.983  1.00  0.00     0.257 C 
HETATM   13  O   UNL     1      42.312  -5.436  11.906  1.00  0.00    -0.267 OA
HETATM   14  H   UNL     1      43.100  -4.854   9.688  1.00  0.00     0.171 HD
BRANCH  12  15
HETATM   15  C   UNL     1      42.643  -7.699  11.251  1.00  0.00     0.035 A 
HETATM   16  C   UNL     1      41.636  -8.348  11.987  1.00  0.00     0.053 A 
HETATM   17  C   UNL     1      41.788  -9.681  12.380  1.00  0.00     0.069 A 
HETATM   18  C   UNL     1      42.919 -10.393  11.982  1.00  0.00     0.037 A 
HETATM   19  C   UNL     1      43.924  -9.762  11.253  1.00  0.00     0.004 A 
HETATM   20  C   UNL     1      43.798  -8.415  10.910  1.00  0.00     0.017 A 
BRANCH  17  21
HETATM   21  O   UNL     1      40.896 -10.387  13.141  1.00  0.00    -0.356 OA
HETATM   22  C   UNL     1      39.543 -10.335  12.700  1.00  0.00     0.210 C 
ENDBRANCH  17  21
ENDBRANCH  12  15
ENDBRANCH   9  11
ENDBRANCH   7   9
ENDBRANCH   4   7
BRANCH   1  23
HETATM   23  N   UNL     1      41.552 -11.643   5.362  1.00  0.00    -0.378 N 
HETATM   24  C   UNL     1      40.223 -12.246   5.133  1.00  0.00     0.143 C 
HETATM   25  C   UNL     1      40.353 -13.433   4.165  1.00  0.00     0.146 C 
HETATM   26  N   UNL     1      41.373 -14.406   4.576  1.00  0.00    -0.345 N 
HETATM   27  C   UNL     1      41.230 -15.707   4.092  1.00  0.00     0.254 C 
HETATM   28  C   UNL     1      42.659 -13.831   5.006  1.00  0.00     0.146 C 
HETATM   29  O   UNL     1      40.226 -16.117   3.517  1.00  0.00    -0.267 OA
HETATM   30  C   UNL     1      42.514 -12.607   5.935  1.00  0.00     0.143 C 
BRANCH  27  31
HETATM   31  C   UNL     1      42.331 -16.668   4.312  1.00  0.00     0.038 A 
HETATM   32  C   UNL     1      43.174 -17.090   3.270  1.00  0.00    -0.046 A 
HETATM   33  C   UNL     1      43.052 -16.573   1.865  1.00  0.00     0.049 C 
HETATM   34  C   UNL     1      44.194 -18.006   3.571  1.00  0.00     0.007 A 
HETATM   35  C   UNL     1      44.337 -18.517   4.864  1.00  0.00     0.001 A 
HETATM   36  C   UNL     1      43.468 -18.119   5.878  1.00  0.00     0.001 A 
HETATM   37  C   UNL     1      42.463 -17.193   5.604  1.00  0.00     0.017 A 
ENDBRANCH  27  31
ENDBRANCH   1  23
TORSDOF 7
ENDMDL
MODEL 8
REMARK VINA RESULT:      -7.9      5.129      8.112
REMARK  7 active torsions:
REMARK  status: ('A' for Active; 'I' for Inactive)
REMARK    1  A    between atoms: C_3  and  C_4 
REMARK       I    between atoms: C_4  and  N_5 
REMARK    2  A    between atoms: N_8  and  C_9 
REMARK    3  A    between atoms: C_12  and  N_13 
REMARK    4  A    between atoms: N_13  and  C_14 
REMARK    5  A    between atoms: C_14  and  N_15 
REMARK       I    between atoms: N_15  and  C_16 
REMARK    6  A    between atoms: C_16  and  C_17 
REMARK    7  A    between atoms: C_19  and  O_20 
ROOT
HETATM    1  C   UNL     1      40.223 -13.250   2.776  1.00  0.00     0.030 A 
HETATM    2  C   UNL     1      39.591 -12.314   3.606  1.00  0.00     0.031 A 
HETATM    3  C   UNL     1      38.843 -11.254   3.081  1.00  0.00     0.026 A 
HETATM    4  C   UNL     1      38.706 -11.106   1.699  1.00  0.00     0.014 A 
HETATM    5  C   UNL     1      39.249 -12.077   0.860  1.00  0.00     0.026 A 
HETATM    6  C   UNL     1      40.010 -13.130   1.397  1.00  0.00     0.031 A 
ENDROOT
BRANCH   4   7
HETATM    7  N   UNL     1      38.103  -9.901   1.219  1.00  0.00    -0.236 NA
HETATM    8  H   UNL     1      37.624  -9.447   1.993  1.00  0.00     0.136 HD
BRANCH   7   9
HETATM    9  C   UNL     1      38.830  -9.006   0.486  1.00  0.00     0.157 C 
HETATM   10  S   UNL     1      40.008  -8.054   1.191  1.00  0.00    -0.047 SA
BRANCH   9  11
HETATM   11  N   UNL     1      38.524  -8.830  -0.842  1.00  0.00    -0.304 N 
HETATM   12  C   UNL     1      39.311  -9.024  -1.963  1.00  0.00     0.257 C 
HETATM   13  O   UNL     1      39.581  -8.076  -2.697  1.00  0.00    -0.267 OA
HETATM   14  H   UNL     1      37.899  -8.041  -0.952  1.00  0.00     0.171 HD
BRANCH  12  15
HETATM   15  C   UNL     1      39.640 -10.431  -2.367  1.00  0.00     0.035 A 
HETATM   16  C   UNL     1      38.564 -11.312  -2.574  1.00  0.00     0.053 A 
HETATM   17  C   UNL     1      38.793 -12.667  -2.834  1.00  0.00     0.069 A 
HETATM   18  C   UNL     1      40.101 -13.135  -2.953  1.00  0.00     0.037 A 
HETATM   19  C   UNL     1      41.176 -12.273  -2.749  1.00  0.00     0.004 A 
HETATM   20  C   UNL     1      40.947 -10.933  -2.434  1.00  0.00     0.017 A 
BRANCH  17  21
HETATM   21  O   UNL     1      37.821 -13.615  -2.996  1.00  0.00    -0.356 OA
HETATM   22  C   UNL     1      38.282 -14.898  -3.409  1.00  0.00     0.210 C 
ENDBRANCH  17  21
ENDBRANCH  12  15
ENDBRANCH   9  11
ENDBRANCH   7   9
ENDBRANCH   4   7
BRANCH   1  23
HETATM   23  N   UNL     1      41.072 -14.195   3.355  1.00  0.00    -0.378 N 
HETATM   24  C   UNL     1      42.370 -13.737   3.892  1.00  0.00     0.143 C 
HETATM   25  C   UNL     1      42.942 -14.802   4.842  1.00  0.00     0.146 C 
HETATM   26  N   UNL     1      42.997 -16.142   4.243  1.00  0.00    -0.345 N 
HETATM   27  C   UNL     1      43.923 -17.034   4.785  1.00  0.00     0.254 C 
HETATM   28  C   UNL     1      41.784 -16.563   3.521  1.00  0.00     0.146 C 
HETATM   29  O   UNL     1      44.800 -16.710   5.583  1.00  0.00    -0.267 OA
HETATM   30  C   UNL     1      41.190 -15.467   2.611  1.00  0.00     0.143 C 
BRANCH  27  31
HETATM   31  C   UNL     1      43.880 -18.447   4.355  1.00  0.00     0.038 A 
HETATM   32  C   UNL     1      43.693 -19.501   5.266  1.00  0.00    -0.046 A 
HETATM   33  C   UNL     1      43.484 -19.277   6.736  1.00  0.00     0.049 C 
HETATM   34  C   UNL     1      43.666 -20.812   4.767  1.00  0.00     0.007 A 
HETATM   35  C   UNL     1      43.865 -21.063   3.406  1.00  0.00     0.001 A 
HETATM   36  C   UNL     1      44.088 -20.011   2.521  1.00  0.00     0.001 A 
HETATM   37  C   UNL     1      44.096 -18.700   2.994  1.00  0.00     0.017 A 
ENDBRANCH  27  31
ENDBRANCH   1  23
TORSDOF 7
ENDMDL
MODEL 9
REMARK VINA RESULT:      -7.9      2.294      3.190
REMARK  7 active torsions:
REMARK  status: ('A' for Active; 'I' for Inactive)
REMARK    1  A    between atoms: C_3  and  C_4 
REMARK       I    between atoms: C_4  and  N_5 
REMARK    2  A    between atoms: N_8  and  C_9 
REMARK    3  A    between atoms: C_12  and  N_13 
REMARK    4  A    between atoms: N_13  and  C_14 
REMARK    5  A    between atoms: C_14  and  N_15 
REMARK       I    between atoms: N_15  and  C_16 
REMARK    6  A    between atoms: C_16  and  C_17 
REMARK    7  A    between atoms: C_19  and  O_20 
ROOT
HETATM    1  C   UNL     1      39.375 -10.172   4.106  1.00  0.00     0.030 A 
HETATM    2  C   UNL     1      38.520  -9.402   3.304  1.00  0.00     0.031 A 
HETATM    3  C   UNL     1      37.857  -9.952   2.200  1.00  0.00     0.026 A 
HETATM    4  C   UNL     1      38.031 -11.298   1.873  1.00  0.00     0.014 A 
HETATM    5  C   UNL     1      38.803 -12.101   2.711  1.00  0.00     0.026 A 
HETATM    6  C   UNL     1      39.476 -11.537   3.808  1.00  0.00     0.031 A 
ENDROOT
BRANCH   4   7
HETATM    7  N   UNL     1      37.491 -11.752   0.629  1.00  0.00    -0.236 NA
HETATM    8  H   UNL     1      36.685 -11.177   0.396  1.00  0.00     0.136 HD
BRANCH   7   9
HETATM    9  C   UNL     1      38.303 -11.938  -0.454  1.00  0.00     0.157 C 
HETATM   10  S   UNL     1      38.901 -10.645  -1.327  1.00  0.00    -0.047 SA
BRANCH   9  11
HETATM   11  N   UNL     1      38.562 -13.218  -0.878  1.00  0.00    -0.304 N 
HETATM   12  C   UNL     1      39.758 -13.912  -0.915  1.00  0.00     0.257 C 
HETATM   13  O   UNL     1      40.220 -14.289  -1.990  1.00  0.00    -0.267 OA
HETATM   14  H   UNL     1      37.969 -13.449  -1.666  1.00  0.00     0.171 HD
BRANCH  12  15
HETATM   15  C   UNL     1      40.356 -14.369   0.384  1.00  0.00     0.035 A 
HETATM   16  C   UNL     1      41.408 -13.602   0.917  1.00  0.00     0.053 A 
HETATM   17  C   UNL     1      42.094 -14.031   2.057  1.00  0.00     0.069 A 
HETATM   18  C   UNL     1      41.689 -15.195   2.710  1.00  0.00     0.037 A 
HETATM   19  C   UNL     1      40.649 -15.963   2.192  1.00  0.00     0.004 A 
HETATM   20  C   UNL     1      40.002 -15.566   1.021  1.00  0.00     0.017 A 
BRANCH  17  21
HETATM   21  O   UNL     1      43.162 -13.390   2.623  1.00  0.00    -0.356 OA
HETATM   22  C   UNL     1      43.060 -13.154   4.024  1.00  0.00     0.210 C 
ENDBRANCH  17  21
ENDBRANCH  12  15
ENDBRANCH   9  11
ENDBRANCH   7   9
ENDBRANCH   4   7
BRANCH   1  23
HETATM   23  N   UNL     1      40.118  -9.533   5.100  1.00  0.00    -0.378 N 
HETATM   24  C   UNL     1      40.547  -8.139   4.869  1.00  0.00     0.143 C 
HETATM   25  C   UNL     1      40.955  -7.494   6.204  1.00  0.00     0.146 C 
HETATM   26  N   UNL     1      41.934  -8.289   6.955  1.00  0.00    -0.345 N 
HETATM   27  C   UNL     1      42.726  -7.603   7.876  1.00  0.00     0.254 C 
HETATM   28  C   UNL     1      41.645  -9.731   7.042  1.00  0.00     0.146 C 
HETATM   29  O   UNL     1      42.782  -6.378   7.951  1.00  0.00    -0.267 OA
HETATM   30  C   UNL     1      41.185 -10.355   5.707  1.00  0.00     0.143 C 
BRANCH  27  31
HETATM   31  C   UNL     1      43.582  -8.383   8.794  1.00  0.00     0.038 A 
HETATM   32  C   UNL     1      43.155  -8.750  10.082  1.00  0.00    -0.046 A 
HETATM   33  C   UNL     1      41.791  -8.416  10.613  1.00  0.00     0.049 C 
HETATM   34  C   UNL     1      44.035  -9.492  10.885  1.00  0.00     0.007 A 
HETATM   35  C   UNL     1      45.317  -9.816  10.431  1.00  0.00     0.001 A 
HETATM   36  C   UNL     1      45.739  -9.411   9.167  1.00  0.00     0.001 A 
HETATM   37  C   UNL     1      44.872  -8.693   8.345  1.00  0.00     0.017 A 
ENDBRANCH  27  31
ENDBRANCH   1  23
TORSDOF 7
ENDMDL
MODEL 10
REMARK VINA RESULT:      -7.8      1.999      2.904
REMARK  7 active torsions:
REMARK  status: ('A' for Active; 'I' for Inactive)
REMARK    1  A    between atoms: C_3  and  C_4 
REMARK       I    between atoms: C_4  and  N_5 
REMARK    2  A    between atoms: N_8  and  C_9 
REMARK    3  A    between atoms: C_12  and  N_13 
REMARK    4  A    between atoms: N_13  and  C_14 
REMARK    5  A    between atoms: C_14  and  N_15 
REMARK       I    between atoms: N_15  and  C_16 
REMARK    6  A    between atoms: C_16  and  C_17 
REMARK    7  A    between atoms: C_19  and  O_20 
ROOT
HETATM    1  C   UNL     1      40.105 -10.815   5.027  1.00  0.00     0.030 A 
HETATM    2  C   UNL     1      39.912 -10.439   3.691  1.00  0.00     0.031 A 
HETATM    3  C   UNL     1      39.534 -11.368   2.714  1.00  0.00     0.026 A 
HETATM    4  C   UNL     1      39.335 -12.707   3.057  1.00  0.00     0.014 A 
HETATM    5  C   UNL     1      39.432 -13.082   4.396  1.00  0.00     0.026 A 
HETATM    6  C   UNL     1      39.826 -12.145   5.366  1.00  0.00     0.031 A 
ENDROOT
BRANCH   4   7
HETATM    7  N   UNL     1      39.147 -13.642   1.991  1.00  0.00    -0.236 NA
HETATM    8  H   UNL     1      38.399 -13.304   1.391  1.00  0.00     0.136 HD
BRANCH   7   9
HETATM    9  C   UNL     1      40.213 -14.086   1.261  1.00  0.00     0.157 C 
HETATM   10  S   UNL     1      40.404 -13.670  -0.345  1.00  0.00    -0.047 SA
BRANCH   9  11
HETATM   11  N   UNL     1      41.098 -14.961   1.842  1.00  0.00    -0.304 N 
HETATM   12  C   UNL     1      42.456 -14.826   2.066  1.00  0.00     0.257 C 
HETATM   13  O   UNL     1      43.250 -15.593   1.524  1.00  0.00    -0.267 OA
HETATM   14  H   UNL     1      40.848 -15.914   1.607  1.00  0.00     0.171 HD
BRANCH  12  15
HETATM   15  C   UNL     1      42.910 -13.873   3.133  1.00  0.00     0.035 A 
HETATM   16  C   UNL     1      42.916 -14.343   4.459  1.00  0.00     0.053 A 
HETATM   17  C   UNL     1      43.209 -13.480   5.519  1.00  0.00     0.069 A 
HETATM   18  C   UNL     1      43.564 -12.158   5.254  1.00  0.00     0.037 A 
HETATM   19  C   UNL     1      43.562 -11.680   3.946  1.00  0.00     0.004 A 
HETATM   20  C   UNL     1      43.213 -12.527   2.893  1.00  0.00     0.017 A 
BRANCH  17  21
HETATM   21  O   UNL     1      43.190 -13.821   6.844  1.00  0.00    -0.356 OA
HETATM   22  C   UNL     1      42.535 -15.049   7.148  1.00  0.00     0.210 C 
ENDBRANCH  17  21
ENDBRANCH  12  15
ENDBRANCH   9  11
ENDBRANCH   7   9
ENDBRANCH   4   7
BRANCH   1  23
HETATM   23  N   UNL     1      40.622  -9.874   5.921  1.00  0.00    -0.378 N 
HETATM   24  C   UNL     1      41.564  -8.860   5.405  1.00  0.00     0.143 C 
HETATM   25  C   UNL     1      41.672  -7.697   6.404  1.00  0.00     0.146 C 
HETATM   26  N   UNL     1      41.977  -8.135   7.772  1.00  0.00    -0.345 N 
HETATM   27  C   UNL     1      42.579  -7.198   8.612  1.00  0.00     0.254 C 
HETATM   28  C   UNL     1      41.190  -9.282   8.259  1.00  0.00     0.146 C 
HETATM   29  O   UNL     1      43.029  -6.123   8.226  1.00  0.00    -0.267 OA
HETATM   30  C   UNL     1      41.045 -10.420   7.227  1.00  0.00     0.143 C 
BRANCH  27  31
HETATM   31  C   UNL     1      42.722  -7.523  10.047  1.00  0.00     0.038 A 
HETATM   32  C   UNL     1      43.692  -8.426  10.516  1.00  0.00    -0.046 A 
HETATM   33  C   UNL     1      44.680  -9.101   9.609  1.00  0.00     0.049 C 
HETATM   34  C   UNL     1      43.755  -8.673  11.896  1.00  0.00     0.007 A 
HETATM   35  C   UNL     1      42.848  -8.071  12.773  1.00  0.00     0.001 A 
HETATM   36  C   UNL     1      41.867  -7.208  12.288  1.00  0.00     0.001 A 
HETATM   37  C   UNL     1      41.803  -6.932  10.923  1.00  0.00     0.017 A 
ENDBRANCH  27  31
ENDBRANCH   1  23
TORSDOF 7
ENDMDL
