MODEL 1
REMARK VINA RESULT:      -8.1      0.000      0.000
REMARK  5 active torsions:
REMARK  status: ('A' for Active; 'I' for Inactive)
REMARK    1  A    between atoms: C_8  and  C_9 
REMARK    2  A    between atoms: N_10  and  N_11 
REMARK       I    between atoms: N_11  and  C_12 
REMARK    3  A    between atoms: C_12  and  C_13 
REMARK    4  A    between atoms: C_13  and  N_14 
REMARK    5  A    between atoms: N_14  and  C_15 
ROOT
HETATM    1  N   UNL     1      43.518 -12.559   7.559  1.00  0.00    -0.246 N 
HETATM    2  C   UNL     1      44.372 -11.470   7.740  1.00  0.00     0.255 C 
HETATM    3  O   UNL     1      45.490 -11.348   7.244  1.00  0.00    -0.270 OA
HETATM    4  H   UNL     1      42.759 -12.687   8.222  1.00  0.00     0.192 HD
ENDROOT
BRANCH   1   5
HETATM    5  N   UNL     1      43.808 -13.688   6.826  1.00  0.00    -0.184 NA
HETATM    6  C   UNL     1      42.971 -14.677   6.879  1.00  0.00     0.152 C 
BRANCH   6   7
HETATM    7  C   UNL     1      43.217 -15.878   6.104  1.00  0.00     0.011 A 
HETATM    8  C   UNL     1      43.184 -15.995   4.677  1.00  0.00     0.004 A 
HETATM    9  C   UNL     1      42.936 -15.092   3.620  1.00  0.00     0.014 A 
HETATM   10  C   UNL     1      43.467 -17.325   4.358  1.00  0.00     0.043 A 
HETATM   11  C   UNL     1      42.976 -15.547   2.297  1.00  0.00     0.001 A 
HETATM   12  C   UNL     1      43.259 -16.881   2.015  1.00  0.00     0.002 A 
HETATM   13  C   UNL     1      43.512 -17.796   3.041  1.00  0.00     0.030 A 
HETATM   14  N   UNL     1      43.675 -17.989   5.546  1.00  0.00    -0.364 N 
HETATM   15  H   UNL     1      43.905 -18.970   5.620  1.00  0.00     0.165 HD
HETATM   16  C   UNL     1      43.527 -17.130   6.601  1.00  0.00     0.102 A 
ENDBRANCH   6   7
ENDBRANCH   1   5
BRANCH   2  17
HETATM   17  C   UNL     1      43.756 -10.386   8.625  1.00  0.00     0.224 C 
BRANCH  17  18
HETATM   18  N   UNL     1      43.510 -10.876   9.983  1.00  0.00    -0.381 N 
HETATM   19  H   UNL     1      43.042 -11.773  10.055  1.00  0.00     0.160 HD
BRANCH  18  20
HETATM   20  C   UNL     1      43.228  -9.983  11.014  1.00  0.00     0.028 A 
HETATM   21  C   UNL     1      42.738 -10.488  12.227  1.00  0.00     0.030 A 
HETATM   22  C   UNL     1      42.502  -9.652  13.325  1.00  0.00     0.021 A 
HETATM   23  C   UNL     1      42.781  -8.292  13.228  1.00  0.00     0.011 A 
HETATM   24 BR   UNL     1      42.480  -7.157  14.708  1.00  0.00    -0.051 Br
HETATM   25  C   UNL     1      43.299  -7.771  12.048  1.00  0.00     0.021 A 
HETATM   26  C   UNL     1      43.528  -8.615  10.955  1.00  0.00     0.030 A 
ENDBRANCH  18  20
ENDBRANCH  17  18
ENDBRANCH   2  17
TORSDOF 5
ENDMDL
MODEL 2
REMARK VINA RESULT:      -7.9      1.277      1.814
REMARK  5 active torsions:
REMARK  status: ('A' for Active; 'I' for Inactive)
REMARK    1  A    between atoms: C_8  and  C_9 
REMARK    2  A    between atoms: N_10  and  N_11 
REMARK       I    between atoms: N_11  and  C_12 
REMARK    3  A    between atoms: C_12  and  C_13 
REMARK    4  A    between atoms: C_13  and  N_14 
REMARK    5  A    between atoms: N_14  and  C_15 
ROOT
HETATM    1  N   UNL     1      43.287 -12.247   7.177  1.00  0.00    -0.246 N 
HETATM    2  C   UNL     1      44.397 -11.404   7.237  1.00  0.00     0.255 C 
HETATM    3  O   UNL     1      45.141 -11.132   6.297  1.00  0.00    -0.270 OA
HETATM    4  H   UNL     1      42.920 -12.618   8.049  1.00  0.00     0.192 HD
ENDROOT
BRANCH   1   5
HETATM    5  N   UNL     1      42.870 -12.940   6.062  1.00  0.00    -0.184 NA
HETATM    6  C   UNL     1      43.318 -14.146   5.894  1.00  0.00     0.152 C 
BRANCH   6   7
HETATM    7  C   UNL     1      42.887 -14.926   4.751  1.00  0.00     0.011 A 
HETATM    8  C   UNL     1      43.323 -16.247   4.405  1.00  0.00     0.004 A 
HETATM    9  C   UNL     1      44.218 -17.172   4.986  1.00  0.00     0.014 A 
HETATM   10  C   UNL     1      42.667 -16.610   3.228  1.00  0.00     0.043 A 
HETATM   11  C   UNL     1      44.427 -18.412   4.371  1.00  0.00     0.001 A 
HETATM   12  C   UNL     1      43.758 -18.740   3.194  1.00  0.00     0.002 A 
HETATM   13  C   UNL     1      42.864 -17.846   2.600  1.00  0.00     0.030 A 
HETATM   14  N   UNL     1      41.857 -15.554   2.875  1.00  0.00    -0.364 N 
HETATM   15  H   UNL     1      41.257 -15.541   2.061  1.00  0.00     0.165 HD
HETATM   16  C   UNL     1      41.981 -14.538   3.782  1.00  0.00     0.102 A 
ENDBRANCH   6   7
ENDBRANCH   1   5
BRANCH   2  17
HETATM   17  C   UNL     1      44.598 -10.801   8.628  1.00  0.00     0.224 C 
BRANCH  17  18
HETATM   18  N   UNL     1      43.362 -10.833   9.412  1.00  0.00    -0.381 N 
HETATM   19  H   UNL     1      42.517 -11.071   8.902  1.00  0.00     0.160 HD
BRANCH  18  20
HETATM   20  C   UNL     1      43.176  -9.951  10.473  1.00  0.00     0.028 A 
HETATM   21  C   UNL     1      43.032 -10.472  11.767  1.00  0.00     0.030 A 
HETATM   22  C   UNL     1      42.913  -9.636  12.883  1.00  0.00     0.021 A 
HETATM   23  C   UNL     1      42.964  -8.256  12.719  1.00  0.00     0.011 A 
HETATM   24 BR   UNL     1      42.820  -7.119  14.220  1.00  0.00    -0.051 Br
HETATM   25  C   UNL     1      43.140  -7.712  11.452  1.00  0.00     0.021 A 
HETATM   26  C   UNL     1      43.254  -8.557  10.341  1.00  0.00     0.030 A 
ENDBRANCH  18  20
ENDBRANCH  17  18
ENDBRANCH   2  17
TORSDOF 5
ENDMDL
MODEL 3
REMARK VINA RESULT:      -7.6      0.998      1.145
REMARK  5 active torsions:
REMARK  status: ('A' for Active; 'I' for Inactive)
REMARK    1  A    between atoms: C_8  and  C_9 
REMARK    2  A    between atoms: N_10  and  N_11 
REMARK       I    between atoms: N_11  and  C_12 
REMARK    3  A    between atoms: C_12  and  C_13 
REMARK    4  A    between atoms: C_13  and  N_14 
REMARK    5  A    between atoms: N_14  and  C_15 
ROOT
HETATM    1  N   UNL     1      43.461 -12.106   7.035  1.00  0.00    -0.246 N 
HETATM    2  C   UNL     1      44.229 -11.145   7.693  1.00  0.00     0.255 C 
HETATM    3  O   UNL     1      45.404 -11.276   8.029  1.00  0.00    -0.270 OA
HETATM    4  H   UNL     1      42.449 -12.007   7.058  1.00  0.00     0.192 HD
ENDROOT
BRANCH   1   5
HETATM    5  N   UNL     1      43.885 -13.369   6.689  1.00  0.00    -0.184 NA
HETATM    6  C   UNL     1      43.045 -14.146   6.080  1.00  0.00     0.152 C 
BRANCH   6   7
HETATM    7  C   UNL     1      43.453 -15.476   5.671  1.00  0.00     0.011 A 
HETATM    8  C   UNL     1      43.304 -16.053   4.369  1.00  0.00     0.004 A 
HETATM    9  C   UNL     1      42.776 -15.593   3.143  1.00  0.00     0.014 A 
HETATM   10  C   UNL     1      43.819 -17.350   4.422  1.00  0.00     0.043 A 
HETATM   11  C   UNL     1      42.777 -16.439   2.028  1.00  0.00     0.001 A 
HETATM   12  C   UNL     1      43.295 -17.728   2.117  1.00  0.00     0.002 A 
HETATM   13  C   UNL     1      43.828 -18.209   3.316  1.00  0.00     0.030 A 
HETATM   14  N   UNL     1      44.272 -17.551   5.706  1.00  0.00    -0.364 N 
HETATM   15  H   UNL     1      44.703 -18.405   6.033  1.00  0.00     0.165 HD
HETATM   16  C   UNL     1      44.058 -16.433   6.465  1.00  0.00     0.102 A 
ENDBRANCH   6   7
ENDBRANCH   1   5
BRANCH   2  17
HETATM   17  C   UNL     1      43.455  -9.851   7.948  1.00  0.00     0.224 C 
BRANCH  17  18
HETATM   18  N   UNL     1      44.224  -8.918   8.773  1.00  0.00    -0.381 N 
HETATM   19  H   UNL     1      45.232  -9.030   8.752  1.00  0.00     0.160 HD
BRANCH  18  20
HETATM   20  C   UNL     1      43.711  -8.460   9.984  1.00  0.00     0.028 A 
HETATM   21  C   UNL     1      43.957  -9.205  11.146  1.00  0.00     0.030 A 
HETATM   22  C   UNL     1      43.530  -8.763  12.404  1.00  0.00     0.021 A 
HETATM   23  C   UNL     1      42.868  -7.544  12.517  1.00  0.00     0.011 A 
HETATM   24 BR   UNL     1      42.300  -6.930  14.210  1.00  0.00    -0.051 Br
HETATM   25  C   UNL     1      42.640  -6.769  11.385  1.00  0.00     0.021 A 
HETATM   26  C   UNL     1      43.068  -7.223  10.132  1.00  0.00     0.030 A 
ENDBRANCH  18  20
ENDBRANCH  17  18
ENDBRANCH   2  17
TORSDOF 5
ENDMDL
MODEL 4
REMARK VINA RESULT:      -7.4      4.714      9.539
REMARK  5 active torsions:
REMARK  status: ('A' for Active; 'I' for Inactive)
REMARK    1  A    between atoms: C_8  and  C_9 
REMARK    2  A    between atoms: N_10  and  N_11 
REMARK       I    between atoms: N_11  and  C_12 
REMARK    3  A    between atoms: C_12  and  C_13 
REMARK    4  A    between atoms: C_13  and  N_14 
REMARK    5  A    between atoms: N_14  and  C_15 
ROOT
HETATM    1  N   UNL     1      41.948 -13.576   3.994  1.00  0.00    -0.246 N 
HETATM    2  C   UNL     1      41.184 -13.793   2.847  1.00  0.00     0.255 C 
HETATM    3  O   UNL     1      40.448 -12.968   2.311  1.00  0.00    -0.270 OA
HETATM    4  H   UNL     1      42.290 -14.387   4.502  1.00  0.00     0.192 HD
ENDROOT
BRANCH   1   5
HETATM    5  N   UNL     1      41.969 -12.414   4.732  1.00  0.00    -0.184 NA
HETATM    6  C   UNL     1      42.776 -12.352   5.745  1.00  0.00     0.152 C 
BRANCH   6   7
HETATM    7  C   UNL     1      42.854 -11.140   6.537  1.00  0.00     0.011 A 
HETATM    8  C   UNL     1      44.032 -10.585   7.135  1.00  0.00     0.004 A 
HETATM    9  C   UNL     1      45.393 -10.962   7.164  1.00  0.00     0.014 A 
HETATM   10  C   UNL     1      43.652  -9.426   7.814  1.00  0.00     0.043 A 
HETATM   11  C   UNL     1      46.313 -10.177   7.868  1.00  0.00     0.001 A 
HETATM   12  C   UNL     1      45.899  -9.028   8.537  1.00  0.00     0.002 A 
HETATM   13  C   UNL     1      44.560  -8.629   8.522  1.00  0.00     0.030 A 
HETATM   14  N   UNL     1      42.296  -9.276   7.628  1.00  0.00    -0.364 N 
HETATM   15  H   UNL     1      41.748  -8.515   8.004  1.00  0.00     0.165 HD
HETATM   16  C   UNL     1      41.806 -10.299   6.863  1.00  0.00     0.102 A 
ENDBRANCH   6   7
ENDBRANCH   1   5
BRANCH   2  17
HETATM   17  C   UNL     1      41.373 -15.199   2.276  1.00  0.00     0.224 C 
BRANCH  17  18
HETATM   18  N   UNL     1      42.786 -15.584   2.251  1.00  0.00    -0.381 N 
HETATM   19  H   UNL     1      43.305 -15.318   1.421  1.00  0.00     0.160 HD
BRANCH  18  20
HETATM   20  C   UNL     1      43.205 -16.770   2.849  1.00  0.00     0.028 A 
HETATM   21  C   UNL     1      43.521 -16.761   4.215  1.00  0.00     0.030 A 
HETATM   22  C   UNL     1      43.880 -17.934   4.890  1.00  0.00     0.021 A 
HETATM   23  C   UNL     1      43.902 -19.144   4.205  1.00  0.00     0.011 A 
HETATM   24 BR   UNL     1      44.371 -20.734   5.109  1.00  0.00    -0.051 Br
HETATM   25  C   UNL     1      43.561 -19.187   2.858  1.00  0.00     0.021 A 
HETATM   26  C   UNL     1      43.206 -18.008   2.191  1.00  0.00     0.030 A 
ENDBRANCH  18  20
ENDBRANCH  17  18
ENDBRANCH   2  17
TORSDOF 5
ENDMDL
MODEL 5
REMARK VINA RESULT:      -7.3      7.406      9.315
REMARK  5 active torsions:
REMARK  status: ('A' for Active; 'I' for Inactive)
REMARK    1  A    between atoms: C_8  and  C_9 
REMARK    2  A    between atoms: N_10  and  N_11 
REMARK       I    between atoms: N_11  and  C_12 
REMARK    3  A    between atoms: C_12  and  C_13 
REMARK    4  A    between atoms: C_13  and  N_14 
REMARK    5  A    between atoms: N_14  and  C_15 
ROOT
HETATM    1  N   UNL     1      40.293 -14.374   2.569  1.00  0.00    -0.246 N 
HETATM    2  C   UNL     1      39.627 -13.279   3.121  1.00  0.00     0.255 C 
HETATM    3  O   UNL     1      39.567 -13.008   4.318  1.00  0.00    -0.270 OA
HETATM    4  H   UNL     1      40.048 -14.656   1.624  1.00  0.00     0.192 HD
ENDROOT
BRANCH   1   5
HETATM    5  N   UNL     1      40.959 -15.346   3.281  1.00  0.00    -0.184 NA
HETATM    6  C   UNL     1      42.198 -15.579   2.977  1.00  0.00     0.152 C 
BRANCH   6   7
HETATM    7  C   UNL     1      42.951 -16.574   3.715  1.00  0.00     0.011 A 
HETATM    8  C   UNL     1      43.179 -17.934   3.326  1.00  0.00     0.004 A 
HETATM    9  C   UNL     1      42.809 -18.715   2.209  1.00  0.00     0.014 A 
HETATM   10  C   UNL     1      43.939 -18.536   4.331  1.00  0.00     0.043 A 
HETATM   11  C   UNL     1      43.203 -20.056   2.141  1.00  0.00     0.001 A 
HETATM   12  C   UNL     1      43.957 -20.626   3.163  1.00  0.00     0.002 A 
HETATM   13  C   UNL     1      44.342 -19.876   4.278  1.00  0.00     0.030 A 
HETATM   14  N   UNL     1      44.171 -17.577   5.291  1.00  0.00    -0.364 N 
HETATM   15  H   UNL     1      44.704 -17.730   6.136  1.00  0.00     0.165 HD
HETATM   16  C   UNL     1      43.583 -16.395   4.932  1.00  0.00     0.102 A 
ENDBRANCH   6   7
ENDBRANCH   1   5
BRANCH   2  17
HETATM   17  C   UNL     1      38.971 -12.397   2.058  1.00  0.00     0.224 C 
BRANCH  17  18
HETATM   18  N   UNL     1      39.213 -12.911   0.709  1.00  0.00    -0.381 N 
HETATM   19  H   UNL     1      39.601 -13.847   0.651  1.00  0.00     0.160 HD
BRANCH  18  20
HETATM   20  C   UNL     1      39.605 -12.051  -0.315  1.00  0.00     0.028 A 
HETATM   21  C   UNL     1      40.515 -12.516  -1.275  1.00  0.00     0.030 A 
HETATM   22  C   UNL     1      40.893 -11.726  -2.367  1.00  0.00     0.021 A 
HETATM   23  C   UNL     1      40.341 -10.459  -2.524  1.00  0.00     0.011 A 
HETATM   24 BR   UNL     1      40.834  -9.389  -4.001  1.00  0.00    -0.051 Br
HETATM   25  C   UNL     1      39.412  -9.985  -1.604  1.00  0.00     0.021 A 
HETATM   26  C   UNL     1      39.043 -10.783  -0.515  1.00  0.00     0.030 A 
ENDBRANCH  18  20
ENDBRANCH  17  18
ENDBRANCH   2  17
TORSDOF 5
ENDMDL
MODEL 6
REMARK VINA RESULT:      -7.3      3.857     10.251
REMARK  5 active torsions:
REMARK  status: ('A' for Active; 'I' for Inactive)
REMARK    1  A    between atoms: C_8  and  C_9 
REMARK    2  A    between atoms: N_10  and  N_11 
REMARK       I    between atoms: N_11  and  C_12 
REMARK    3  A    between atoms: C_12  and  C_13 
REMARK    4  A    between atoms: C_13  and  N_14 
REMARK    5  A    between atoms: N_14  and  C_15 
ROOT
HETATM    1  N   UNL     1      42.912 -10.482   8.051  1.00  0.00    -0.246 N 
HETATM    2  C   UNL     1      44.109 -11.199   8.068  1.00  0.00     0.255 C 
HETATM    3  O   UNL     1      44.997 -11.089   8.911  1.00  0.00    -0.270 OA
HETATM    4  H   UNL     1      42.390 -10.443   7.181  1.00  0.00     0.192 HD
ENDROOT
BRANCH   1   5
HETATM    5  N   UNL     1      42.551  -9.509   8.956  1.00  0.00    -0.184 NA
HETATM    6  C   UNL     1      43.007  -8.309   8.772  1.00  0.00     0.152 C 
BRANCH   6   7
HETATM    7  C   UNL     1      42.634  -7.244   9.682  1.00  0.00     0.011 A 
HETATM    8  C   UNL     1      42.758  -7.257  11.109  1.00  0.00     0.004 A 
HETATM    9  C   UNL     1      43.241  -8.196  12.047  1.00  0.00     0.014 A 
HETATM   10  C   UNL     1      42.270  -6.038  11.585  1.00  0.00     0.043 A 
HETATM   11  C   UNL     1      43.214  -7.888  13.412  1.00  0.00     0.001 A 
HETATM   12  C   UNL     1      42.717  -6.664  13.852  1.00  0.00     0.002 A 
HETATM   13  C   UNL     1      42.236  -5.714  12.946  1.00  0.00     0.030 A 
HETATM   14  N   UNL     1      41.872  -5.308  10.488  1.00  0.00    -0.364 N 
HETATM   15  H   UNL     1      41.481  -4.377  10.532  1.00  0.00     0.165 HD
HETATM   16  C   UNL     1      42.086  -6.021   9.340  1.00  0.00     0.102 A 
ENDBRANCH   6   7
ENDBRANCH   1   5
BRANCH   2  17
HETATM   17  C   UNL     1      44.211 -12.193   6.911  1.00  0.00     0.224 C 
BRANCH  17  18
HETATM   18  N   UNL     1      43.513 -13.444   7.215  1.00  0.00    -0.381 N 
HETATM   19  H   UNL     1      43.565 -13.762   8.177  1.00  0.00     0.160 HD
BRANCH  18  20
HETATM   20  C   UNL     1      43.442 -14.461   6.265  1.00  0.00     0.028 A 
HETATM   21  C   UNL     1      42.880 -14.176   5.012  1.00  0.00     0.030 A 
HETATM   22  C   UNL     1      42.844 -15.134   3.992  1.00  0.00     0.021 A 
HETATM   23  C   UNL     1      43.399 -16.391   4.208  1.00  0.00     0.011 A 
HETATM   24 BR   UNL     1      43.369 -17.687   2.834  1.00  0.00    -0.051 Br
HETATM   25  C   UNL     1      43.993 -16.689   5.429  1.00  0.00     0.021 A 
HETATM   26  C   UNL     1      44.020 -15.725   6.444  1.00  0.00     0.030 A 
ENDBRANCH  18  20
ENDBRANCH  17  18
ENDBRANCH   2  17
TORSDOF 5
ENDMDL
MODEL 7
REMARK VINA RESULT:      -7.2      3.294      4.561
REMARK  5 active torsions:
REMARK  status: ('A' for Active; 'I' for Inactive)
REMARK    1  A    between atoms: C_8  and  C_9 
REMARK    2  A    between atoms: N_10  and  N_11 
REMARK       I    between atoms: N_11  and  C_12 
REMARK    3  A    between atoms: C_12  and  C_13 
REMARK    4  A    between atoms: C_13  and  N_14 
REMARK    5  A    between atoms: N_14  and  C_15 
ROOT
HETATM    1  N   UNL     1      41.546 -14.325   5.195  1.00  0.00    -0.246 N 
HETATM    2  C   UNL     1      41.118 -13.223   4.453  1.00  0.00     0.255 C 
HETATM    3  O   UNL     1      40.856 -13.227   3.252  1.00  0.00    -0.270 OA
HETATM    4  H   UNL     1      41.996 -14.153   6.090  1.00  0.00     0.192 HD
ENDROOT
BRANCH   1   5
HETATM    5  N   UNL     1      41.780 -15.585   4.691  1.00  0.00    -0.184 NA
HETATM    6  C   UNL     1      42.920 -15.807   4.114  1.00  0.00     0.152 C 
BRANCH   6   7
HETATM    7  C   UNL     1      43.223 -17.124   3.592  1.00  0.00     0.011 A 
HETATM    8  C   UNL     1      43.468 -18.311   4.357  1.00  0.00     0.004 A 
HETATM    9  C   UNL     1      43.492 -18.605   5.737  1.00  0.00     0.014 A 
HETATM   10  C   UNL     1      43.731 -19.344   3.455  1.00  0.00     0.043 A 
HETATM   11  C   UNL     1      43.780 -19.907   6.163  1.00  0.00     0.001 A 
HETATM   12  C   UNL     1      44.041 -20.913   5.237  1.00  0.00     0.002 A 
HETATM   13  C   UNL     1      44.020 -20.652   3.864  1.00  0.00     0.030 A 
HETATM   14  N   UNL     1      43.641 -18.809   2.190  1.00  0.00    -0.364 N 
HETATM   15  H   UNL     1      43.778 -19.332   1.337  1.00  0.00     0.165 HD
HETATM   16  C   UNL     1      43.336 -17.477   2.260  1.00  0.00     0.102 A 
ENDBRANCH   6   7
ENDBRANCH   1   5
BRANCH   2  17
HETATM   17  C   UNL     1      40.973 -11.963   5.308  1.00  0.00     0.224 C 
BRANCH  17  18
HETATM   18  N   UNL     1      42.133 -11.081   5.166  1.00  0.00    -0.381 N 
HETATM   19  H   UNL     1      42.639 -11.146   4.289  1.00  0.00     0.160 HD
BRANCH  18  20
HETATM   20  C   UNL     1      42.918 -10.764   6.273  1.00  0.00     0.028 A 
HETATM   21  C   UNL     1      42.444  -9.810   7.185  1.00  0.00     0.030 A 
HETATM   22  C   UNL     1      43.152  -9.500   8.352  1.00  0.00     0.021 A 
HETATM   23  C   UNL     1      44.340 -10.166   8.635  1.00  0.00     0.011 A 
HETATM   24 BR   UNL     1      45.296  -9.765  10.214  1.00  0.00    -0.051 Br
HETATM   25  C   UNL     1      44.816 -11.140   7.764  1.00  0.00     0.021 A 
HETATM   26  C   UNL     1      44.102 -11.440   6.598  1.00  0.00     0.030 A 
ENDBRANCH  18  20
ENDBRANCH  17  18
ENDBRANCH   2  17
TORSDOF 5
ENDMDL
MODEL 8
REMARK VINA RESULT:      -7.1      4.706      9.912
REMARK  5 active torsions:
REMARK  status: ('A' for Active; 'I' for Inactive)
REMARK    1  A    between atoms: C_8  and  C_9 
REMARK    2  A    between atoms: N_10  and  N_11 
REMARK       I    between atoms: N_11  and  C_12 
REMARK    3  A    between atoms: C_12  and  C_13 
REMARK    4  A    between atoms: C_13  and  N_14 
REMARK    5  A    between atoms: N_14  and  C_15 
ROOT
HETATM    1  N   UNL     1      42.962 -12.612   5.394  1.00  0.00    -0.246 N 
HETATM    2  C   UNL     1      41.688 -13.179   5.404  1.00  0.00     0.255 C 
HETATM    3  O   UNL     1      40.682 -12.669   5.892  1.00  0.00    -0.270 OA
HETATM    4  H   UNL     1      43.757 -13.222   5.225  1.00  0.00     0.192 HD
ENDROOT
BRANCH   1   5
HETATM    5  N   UNL     1      43.304 -11.405   5.963  1.00  0.00    -0.184 NA
HETATM    6  C   UNL     1      43.887 -11.423   7.121  1.00  0.00     0.152 C 
BRANCH   6   7
HETATM    7  C   UNL     1      44.290 -10.180   7.749  1.00  0.00     0.011 A 
HETATM    8  C   UNL     1      43.426  -9.125   8.187  1.00  0.00     0.004 A 
HETATM    9  C   UNL     1      42.028  -8.931   8.181  1.00  0.00     0.014 A 
HETATM   10  C   UNL     1      44.232  -8.116   8.720  1.00  0.00     0.043 A 
HETATM   11  C   UNL     1      41.491  -7.745   8.696  1.00  0.00     0.001 A 
HETATM   12  C   UNL     1      42.324  -6.758   9.217  1.00  0.00     0.002 A 
HETATM   13  C   UNL     1      43.711  -6.925   9.241  1.00  0.00     0.030 A 
HETATM   14  N   UNL     1      45.535  -8.545   8.618  1.00  0.00    -0.364 N 
HETATM   15  H   UNL     1      46.338  -8.017   8.932  1.00  0.00     0.165 HD
HETATM   16  C   UNL     1      45.583  -9.783   8.036  1.00  0.00     0.102 A 
ENDBRANCH   6   7
ENDBRANCH   1   5
BRANCH   2  17
HETATM   17  C   UNL     1      41.647 -14.537   4.702  1.00  0.00     0.224 C 
BRANCH  17  18
HETATM   18  N   UNL     1      42.951 -15.203   4.745  1.00  0.00    -0.381 N 
HETATM   19  H   UNL     1      43.763 -14.597   4.701  1.00  0.00     0.160 HD
BRANCH  18  20
HETATM   20  C   UNL     1      43.122 -16.455   4.159  1.00  0.00     0.028 A 
HETATM   21  C   UNL     1      42.490 -16.720   2.936  1.00  0.00     0.030 A 
HETATM   22  C   UNL     1      42.680 -17.932   2.262  1.00  0.00     0.021 A 
HETATM   23  C   UNL     1      43.533 -18.892   2.797  1.00  0.00     0.011 A 
HETATM   24 BR   UNL     1      43.807 -20.525   1.889  1.00  0.00    -0.051 Br
HETATM   25  C   UNL     1      44.198 -18.643   3.992  1.00  0.00     0.021 A 
HETATM   26  C   UNL     1      43.998 -17.428   4.660  1.00  0.00     0.030 A 
ENDBRANCH  18  20
ENDBRANCH  17  18
ENDBRANCH   2  17
TORSDOF 5
ENDMDL
MODEL 9
REMARK VINA RESULT:      -7.0     18.198     19.792
REMARK  5 active torsions:
REMARK  status: ('A' for Active; 'I' for Inactive)
REMARK    1  A    between atoms: C_8  and  C_9 
REMARK    2  A    between atoms: N_10  and  N_11 
REMARK       I    between atoms: N_11  and  C_12 
REMARK    3  A    between atoms: C_12  and  C_13 
REMARK    4  A    between atoms: C_13  and  N_14 
REMARK    5  A    between atoms: N_14  and  C_15 
ROOT
HETATM    1  N   UNL     1      42.665 -29.847   3.448  1.00  0.00    -0.246 N 
HETATM    2  C   UNL     1      41.539 -30.490   2.932  1.00  0.00     0.255 C 
HETATM    3  O   UNL     1      41.245 -30.572   1.742  1.00  0.00    -0.270 OA
HETATM    4  H   UNL     1      42.664 -29.599   4.434  1.00  0.00     0.192 HD
ENDROOT
BRANCH   1   5
HETATM    5  N   UNL     1      43.607 -29.170   2.708  1.00  0.00    -0.184 NA
HETATM    6  C   UNL     1      44.740 -29.760   2.482  1.00  0.00     0.152 C 
BRANCH   6   7
HETATM    7  C   UNL     1      45.755 -29.099   1.685  1.00  0.00     0.011 A 
HETATM    8  C   UNL     1      45.704 -28.845   0.276  1.00  0.00     0.004 A 
HETATM    9  C   UNL     1      44.756 -29.105  -0.738  1.00  0.00     0.014 A 
HETATM   10  C   UNL     1      46.891 -28.200  -0.078  1.00  0.00     0.043 A 
HETATM   11  C   UNL     1      45.028 -28.720  -2.055  1.00  0.00     0.001 A 
HETATM   12  C   UNL     1      46.224 -28.082  -2.374  1.00  0.00     0.002 A 
HETATM   13  C   UNL     1      47.179 -27.808  -1.391  1.00  0.00     0.030 A 
HETATM   14  N   UNL     1      47.632 -28.059   1.074  1.00  0.00    -0.364 N 
HETATM   15  H   UNL     1      48.541 -27.619   1.119  1.00  0.00     0.165 HD
HETATM   16  C   UNL     1      46.960 -28.594   2.138  1.00  0.00     0.102 A 
ENDBRANCH   6   7
ENDBRANCH   1   5
BRANCH   2  17
HETATM   17  C   UNL     1      40.681 -31.132   4.023  1.00  0.00     0.224 C 
BRANCH  17  18
HETATM   18  N   UNL     1      39.754 -32.119   3.467  1.00  0.00    -0.381 N 
HETATM   19  H   UNL     1      39.394 -31.920   2.539  1.00  0.00     0.160 HD
BRANCH  18  20
HETATM   20  C   UNL     1      38.875 -32.810   4.299  1.00  0.00     0.028 A 
HETATM   21  C   UNL     1      39.112 -32.805   5.681  1.00  0.00     0.030 A 
HETATM   22  C   UNL     1      38.228 -33.420   6.576  1.00  0.00     0.021 A 
HETATM   23  C   UNL     1      37.074 -34.030   6.095  1.00  0.00     0.011 A 
HETATM   24 BR   UNL     1      35.867 -34.850   7.294  1.00  0.00    -0.051 Br
HETATM   25  C   UNL     1      36.798 -34.020   4.732  1.00  0.00     0.021 A 
HETATM   26  C   UNL     1      37.690 -33.405   3.846  1.00  0.00     0.030 A 
ENDBRANCH  18  20
ENDBRANCH  17  18
ENDBRANCH   2  17
TORSDOF 5
ENDMDL
MODEL 10
REMARK VINA RESULT:      -6.9      7.802     10.466
REMARK  5 active torsions:
REMARK  status: ('A' for Active; 'I' for Inactive)
REMARK    1  A    between atoms: C_8  and  C_9 
REMARK    2  A    between atoms: N_10  and  N_11 
REMARK       I    between atoms: N_11  and  C_12 
REMARK    3  A    between atoms: C_12  and  C_13 
REMARK    4  A    between atoms: C_13  and  N_14 
REMARK    5  A    between atoms: N_14  and  C_15 
ROOT
HETATM    1  N   UNL     1      41.635 -14.153   0.415  1.00  0.00    -0.246 N 
HETATM    2  C   UNL     1      40.567 -13.259   0.495  1.00  0.00     0.255 C 
HETATM    3  O   UNL     1      40.086 -12.810   1.533  1.00  0.00    -0.270 OA
HETATM    4  H   UNL     1      41.765 -14.667  -0.452  1.00  0.00     0.192 HD
ENDROOT
BRANCH   1   5
HETATM    5  N   UNL     1      42.297 -14.705   1.489  1.00  0.00    -0.184 NA
HETATM    6  C   UNL     1      42.087 -15.957   1.753  1.00  0.00     0.152 C 
BRANCH   6   7
HETATM    7  C   UNL     1      42.781 -16.591   2.857  1.00  0.00     0.011 A 
HETATM    8  C   UNL     1      43.149 -17.972   2.955  1.00  0.00     0.004 A 
HETATM    9  C   UNL     1      42.998 -19.093   2.110  1.00  0.00     0.014 A 
HETATM   10  C   UNL     1      43.785 -18.151   4.185  1.00  0.00     0.043 A 
HETATM   11  C   UNL     1      43.480 -20.341   2.523  1.00  0.00     0.001 A 
HETATM   12  C   UNL     1      44.107 -20.485   3.758  1.00  0.00     0.002 A 
HETATM   13  C   UNL     1      44.274 -19.392   4.613  1.00  0.00     0.030 A 
HETATM   14  N   UNL     1      43.812 -16.924   4.807  1.00  0.00    -0.364 N 
HETATM   15  H   UNL     1      44.221 -16.752   5.715  1.00  0.00     0.165 HD
HETATM   16  C   UNL     1      43.213 -15.979   4.020  1.00  0.00     0.102 A 
ENDBRANCH   6   7
ENDBRANCH   1   5
BRANCH   2  17
HETATM   17  C   UNL     1      40.042 -12.850  -0.882  1.00  0.00     0.224 C 
BRANCH  17  18
HETATM   18  N   UNL     1      39.399 -11.535  -0.844  1.00  0.00    -0.381 N 
HETATM   19  H   UNL     1      39.467 -11.031   0.034  1.00  0.00     0.160 HD
BRANCH  18  20
HETATM   20  C   UNL     1      38.231 -11.301  -1.565  1.00  0.00     0.028 A 
HETATM   21  C   UNL     1      37.718 -12.327  -2.371  1.00  0.00     0.030 A 
HETATM   22  C   UNL     1      36.511 -12.179  -3.064  1.00  0.00     0.021 A 
HETATM   23  C   UNL     1      35.784 -11.000  -2.937  1.00  0.00     0.011 A 
HETATM   24 BR   UNL     1      34.147 -10.794  -3.856  1.00  0.00    -0.051 Br
HETATM   25  C   UNL     1      36.252  -9.978  -2.118  1.00  0.00     0.021 A 
HETATM   26  C   UNL     1      37.462 -10.136  -1.432  1.00  0.00     0.030 A 
ENDBRANCH  18  20
ENDBRANCH  17  18
ENDBRANCH   2  17
TORSDOF 5
ENDMDL
