MODEL 1
REMARK VINA RESULT:      -8.1      0.000      0.000
REMARK  6 active torsions:
REMARK  status: ('A' for Active; 'I' for Inactive)
REMARK    1  A    between atoms: C_2  and  C_3 
REMARK    2  A    between atoms: C_3  and  O_4 
REMARK    3  A    between atoms: O_4  and  C_5 
REMARK    4  A    between atoms: C_8  and  C_9 
REMARK    5  A    between atoms: C_9  and  N_10 
REMARK       I    between atoms: N_10  and  C_11 
REMARK       I    between atoms: C_11  and  N_12 
REMARK    6  A    between atoms: N_12  and  C_13 
ROOT
HETATM    1  N   UNL     1      42.435 -13.929   5.269  1.00  0.00    -0.339 N 
HETATM    2  C   UNL     1      41.741 -15.064   5.507  1.00  0.00     0.316 C 
HETATM    3  N   UNL     1      42.278 -16.235   5.107  1.00  0.00    -0.338 N 
HETATM    4  O   UNL     1      40.650 -15.081   6.069  1.00  0.00    -0.247 OA
HETATM    5  H   UNL     1      43.164 -13.968   4.580  1.00  0.00     0.164 HD
HETATM    6  H   UNL     1      41.668 -16.996   5.382  1.00  0.00     0.164 HD
ENDROOT
BRANCH   1   7
HETATM    7  C   UNL     1      41.862 -12.629   5.527  1.00  0.00     0.164 C 
BRANCH   7   8
HETATM    8  C   UNL     1      42.726 -11.777   6.412  1.00  0.00    -0.021 A 
HETATM    9  C   UNL     1      43.854 -12.307   7.034  1.00  0.00     0.128 A 
HETATM   10  N   UNL     1      44.654 -11.616   7.880  1.00  0.00    -0.235 NA
HETATM   11  C   UNL     1      44.330 -10.321   8.114  1.00  0.00     0.186 A 
HETATM   12  C   UNL     1      43.243  -9.689   7.514  1.00  0.00     0.087 A 
HETATM   13  C   UNL     1      42.434 -10.430   6.651  1.00  0.00     0.038 A 
HETATM   14 CL   UNL     1      42.851  -8.037   7.813  1.00  0.00    -0.080 Cl
BRANCH  11  15
HETATM   15  O   UNL     1      45.104  -9.593   8.997  1.00  0.00    -0.333 OA
BRANCH  15  16
HETATM   16  C   UNL     1      45.162 -10.156  10.310  1.00  0.00     0.181 C 
BRANCH  16  17
HETATM   17  C   UNL     1      43.795  -9.980  10.989  1.00  0.00     0.002 C 
HETATM   18  C   UNL     1      43.713  -8.617  11.677  1.00  0.00     0.011 C 
HETATM   19  C   UNL     1      43.528 -11.099  11.999  1.00  0.00     0.011 C 
ENDBRANCH  16  17
ENDBRANCH  15  16
ENDBRANCH  11  15
ENDBRANCH   7   8
ENDBRANCH   1   7
BRANCH   3  20
HETATM   20  C   UNL     1      43.518 -16.636   4.429  1.00  0.00     0.090 C 
HETATM   21  C   UNL     1      44.134 -17.970   4.936  1.00  0.00     0.067 C 
HETATM   22  C   UNL     1      43.929 -19.089   3.981  1.00  0.00    -0.013 A 
HETATM   23  C   UNL     1      43.387 -18.936   2.727  1.00  0.00     0.035 A 
HETATM   24  C   UNL     1      44.210 -20.463   4.078  1.00  0.00     0.148 A 
HETATM   25  N   UNL     1      43.381 -20.172   2.151  1.00  0.00    -0.282 N 
HETATM   26  C   UNL     1      42.879 -17.684   2.123  1.00  0.00     0.061 C 
HETATM   27  H   UNL     1      43.063 -20.442   1.226  1.00  0.00     0.189 HD
HETATM   28  N   UNL     1      43.857 -21.126   2.971  1.00  0.00    -0.187 NA
HETATM   29  C   UNL     1      43.454 -16.481   2.888  1.00  0.00     0.031 C 
ENDBRANCH   3  20
TORSDOF 6
ENDMDL
MODEL 2
REMARK VINA RESULT:      -7.7      4.555      7.295
REMARK  6 active torsions:
REMARK  status: ('A' for Active; 'I' for Inactive)
REMARK    1  A    between atoms: C_2  and  C_3 
REMARK    2  A    between atoms: C_3  and  O_4 
REMARK    3  A    between atoms: O_4  and  C_5 
REMARK    4  A    between atoms: C_8  and  C_9 
REMARK    5  A    between atoms: C_9  and  N_10 
REMARK       I    between atoms: N_10  and  C_11 
REMARK       I    between atoms: C_11  and  N_12 
REMARK    6  A    between atoms: N_12  and  C_13 
ROOT
HETATM    1  N   UNL     1      41.713 -14.522   4.915  1.00  0.00    -0.339 N 
HETATM    2  C   UNL     1      41.293 -15.657   5.516  1.00  0.00     0.316 C 
HETATM    3  N   UNL     1      42.085 -16.746   5.447  1.00  0.00    -0.338 N 
HETATM    4  O   UNL     1      40.229 -15.744   6.122  1.00  0.00    -0.247 OA
HETATM    5  H   UNL     1      42.439 -14.604   4.226  1.00  0.00     0.164 HD
HETATM    6  H   UNL     1      41.661 -17.504   5.968  1.00  0.00     0.164 HD
ENDROOT
BRANCH   1   7
HETATM    7  C   UNL     1      40.858 -13.364   4.813  1.00  0.00     0.164 C 
BRANCH   7   8
HETATM    8  C   UNL     1      40.427 -13.079   3.403  1.00  0.00    -0.021 A 
HETATM    9  C   UNL     1      41.245 -13.409   2.326  1.00  0.00     0.128 A 
HETATM   10  N   UNL     1      40.947 -13.142   1.032  1.00  0.00    -0.235 NA
HETATM   11  C   UNL     1      39.765 -12.527   0.786  1.00  0.00     0.186 A 
HETATM   12  C   UNL     1      38.862 -12.187   1.791  1.00  0.00     0.087 A 
HETATM   13  C   UNL     1      39.200 -12.471   3.115  1.00  0.00     0.038 A 
HETATM   14 CL   UNL     1      37.356 -11.416   1.462  1.00  0.00    -0.080 Cl
BRANCH  11  15
HETATM   15  O   UNL     1      39.441 -12.210  -0.519  1.00  0.00    -0.333 OA
BRANCH  15  16
HETATM   16  C   UNL     1      40.011 -13.097  -1.485  1.00  0.00     0.181 C 
BRANCH  16  17
HETATM   17  C   UNL     1      38.938 -13.456  -2.526  1.00  0.00     0.002 C 
HETATM   18  C   UNL     1      37.582 -12.886  -2.114  1.00  0.00     0.011 C 
HETATM   19  C   UNL     1      38.838 -14.971  -2.720  1.00  0.00     0.011 C 
ENDBRANCH  16  17
ENDBRANCH  15  16
ENDBRANCH  11  15
ENDBRANCH   7   8
ENDBRANCH   1   7
BRANCH   3  20
HETATM   20  C   UNL     1      43.391 -17.049   4.844  1.00  0.00     0.090 C 
HETATM   21  C   UNL     1      43.941 -18.468   5.164  1.00  0.00     0.067 C 
HETATM   22  C   UNL     1      43.837 -19.391   4.005  1.00  0.00    -0.013 A 
HETATM   23  C   UNL     1      43.437 -19.002   2.749  1.00  0.00     0.035 A 
HETATM   24  C   UNL     1      44.098 -20.767   3.881  1.00  0.00     0.148 A 
HETATM   25  N   UNL     1      43.488 -20.113   1.961  1.00  0.00    -0.282 N 
HETATM   26  C   UNL     1      43.004 -17.649   2.331  1.00  0.00     0.061 C 
HETATM   27  H   UNL     1      43.272 -20.205   0.973  1.00  0.00     0.189 HD
HETATM   28  N   UNL     1      43.866 -21.211   2.641  1.00  0.00    -0.187 NA
HETATM   29  C   UNL     1      43.497 -16.619   3.359  1.00  0.00     0.031 C 
ENDBRANCH   3  20
TORSDOF 6
ENDMDL
MODEL 3
REMARK VINA RESULT:      -7.6      1.742      2.153
REMARK  6 active torsions:
REMARK  status: ('A' for Active; 'I' for Inactive)
REMARK    1  A    between atoms: C_2  and  C_3 
REMARK    2  A    between atoms: C_3  and  O_4 
REMARK    3  A    between atoms: O_4  and  C_5 
REMARK    4  A    between atoms: C_8  and  C_9 
REMARK    5  A    between atoms: C_9  and  N_10 
REMARK       I    between atoms: N_10  and  C_11 
REMARK       I    between atoms: C_11  and  N_12 
REMARK    6  A    between atoms: N_12  and  C_13 
ROOT
HETATM    1  N   UNL     1      42.073 -14.390   3.867  1.00  0.00    -0.339 N 
HETATM    2  C   UNL     1      41.302 -15.458   3.569  1.00  0.00     0.316 C 
HETATM    3  N   UNL     1      41.909 -16.644   3.359  1.00  0.00    -0.338 N 
HETATM    4  O   UNL     1      40.079 -15.402   3.480  1.00  0.00    -0.247 OA
HETATM    5  H   UNL     1      43.053 -14.452   3.654  1.00  0.00     0.164 HD
HETATM    6  H   UNL     1      41.208 -17.354   3.182  1.00  0.00     0.164 HD
ENDROOT
BRANCH   1   7
HETATM    7  C   UNL     1      41.517 -13.060   3.953  1.00  0.00     0.164 C 
BRANCH   7   8
HETATM    8  C   UNL     1      42.181 -12.217   5.003  1.00  0.00    -0.021 A 
HETATM    9  C   UNL     1      41.432 -11.386   5.832  1.00  0.00     0.128 A 
HETATM   10  N   UNL     1      41.962 -10.564   6.768  1.00  0.00    -0.235 NA
HETATM   11  C   UNL     1      43.310 -10.574   6.905  1.00  0.00     0.186 A 
HETATM   12  C   UNL     1      44.145 -11.394   6.148  1.00  0.00     0.087 A 
HETATM   13  C   UNL     1      43.568 -12.226   5.187  1.00  0.00     0.038 A 
HETATM   14 CL   UNL     1      45.858 -11.404   6.341  1.00  0.00    -0.080 Cl
BRANCH  11  15
HETATM   15  O   UNL     1      43.890  -9.724   7.828  1.00  0.00    -0.333 OA
BRANCH  15  16
HETATM   16  C   UNL     1      43.153  -9.612   9.048  1.00  0.00     0.181 C 
BRANCH  16  17
HETATM   17  C   UNL     1      44.065  -9.006  10.127  1.00  0.00     0.002 C 
HETATM   18  C   UNL     1      45.443  -9.664  10.092  1.00  0.00     0.011 C 
HETATM   19  C   UNL     1      43.446  -9.149  11.520  1.00  0.00     0.011 C 
ENDBRANCH  16  17
ENDBRANCH  15  16
ENDBRANCH  11  15
ENDBRANCH   7   8
ENDBRANCH   1   7
BRANCH   3  20
HETATM   20  C   UNL     1      43.299 -17.121   3.374  1.00  0.00     0.090 C 
HETATM   21  C   UNL     1      43.761 -17.733   4.726  1.00  0.00     0.067 C 
HETATM   22  C   UNL     1      43.860 -19.215   4.674  1.00  0.00    -0.013 A 
HETATM   23  C   UNL     1      43.702 -19.953   3.526  1.00  0.00     0.035 A 
HETATM   24  C   UNL     1      44.120 -20.169   5.673  1.00  0.00     0.148 A 
HETATM   25  N   UNL     1      43.882 -21.259   3.873  1.00  0.00    -0.282 N 
HETATM   26  C   UNL     1      43.372 -19.442   2.177  1.00  0.00     0.061 C 
HETATM   27  H   UNL     1      43.850 -22.086   3.285  1.00  0.00     0.189 HD
HETATM   28  N   UNL     1      44.114 -21.415   5.189  1.00  0.00    -0.187 NA
HETATM   29  C   UNL     1      43.682 -17.938   2.113  1.00  0.00     0.031 C 
ENDBRANCH   3  20
TORSDOF 6
ENDMDL
MODEL 4
REMARK VINA RESULT:      -7.5      3.276     10.316
REMARK  6 active torsions:
REMARK  status: ('A' for Active; 'I' for Inactive)
REMARK    1  A    between atoms: C_2  and  C_3 
REMARK    2  A    between atoms: C_3  and  O_4 
REMARK    3  A    between atoms: O_4  and  C_5 
REMARK    4  A    between atoms: C_8  and  C_9 
REMARK    5  A    between atoms: C_9  and  N_10 
REMARK       I    between atoms: N_10  and  C_11 
REMARK       I    between atoms: C_11  and  N_12 
REMARK    6  A    between atoms: N_12  and  C_13 
ROOT
HETATM    1  N   UNL     1      43.290 -10.661   8.195  1.00  0.00    -0.339 N 
HETATM    2  C   UNL     1      44.122 -10.651   9.260  1.00  0.00     0.316 C 
HETATM    3  N   UNL     1      43.638 -10.221  10.443  1.00  0.00    -0.338 N 
HETATM    4  O   UNL     1      45.294 -11.013   9.202  1.00  0.00    -0.247 OA
HETATM    5  H   UNL     1      42.455 -10.106   8.254  1.00  0.00     0.164 HD
HETATM    6  H   UNL     1      44.358 -10.303  11.150  1.00  0.00     0.164 HD
ENDROOT
BRANCH   1   7
HETATM    7  C   UNL     1      43.772 -10.959   6.867  1.00  0.00     0.164 C 
BRANCH   7   8
HETATM    8  C   UNL     1      43.332 -12.309   6.378  1.00  0.00    -0.021 A 
HETATM    9  C   UNL     1      42.145 -12.459   5.665  1.00  0.00     0.128 A 
HETATM   10  N   UNL     1      41.661 -13.648   5.232  1.00  0.00    -0.235 NA
HETATM   11  C   UNL     1      42.399 -14.750   5.505  1.00  0.00     0.186 A 
HETATM   12  C   UNL     1      43.616 -14.702   6.181  1.00  0.00     0.087 A 
HETATM   13  C   UNL     1      44.087 -13.463   6.619  1.00  0.00     0.038 A 
HETATM   14 CL   UNL     1      44.550 -16.112   6.510  1.00  0.00    -0.080 Cl
BRANCH  11  15
HETATM   15  O   UNL     1      41.921 -15.984   5.107  1.00  0.00    -0.333 OA
BRANCH  15  16
HETATM   16  C   UNL     1      41.765 -16.110   3.691  1.00  0.00     0.181 C 
BRANCH  16  17
HETATM   17  C   UNL     1      43.122 -16.481   3.071  1.00  0.00     0.002 C 
HETATM   18  C   UNL     1      43.282 -15.817   1.704  1.00  0.00     0.011 C 
HETATM   19  C   UNL     1      43.278 -17.998   2.944  1.00  0.00     0.011 C 
ENDBRANCH  16  17
ENDBRANCH  15  16
ENDBRANCH  11  15
ENDBRANCH   7   8
ENDBRANCH   1   7
BRANCH   3  20
HETATM   20  C   UNL     1      42.340  -9.725  10.920  1.00  0.00     0.090 C 
HETATM   21  C   UNL     1      42.043 -10.016  12.418  1.00  0.00     0.067 C 
HETATM   22  C   UNL     1      42.170  -8.804  13.268  1.00  0.00    -0.013 A 
HETATM   23  C   UNL     1      42.382  -7.540  12.772  1.00  0.00     0.035 A 
HETATM   24  C   UNL     1      42.108  -8.630  14.661  1.00  0.00     0.148 A 
HETATM   25  N   UNL     1      42.421  -6.701  13.845  1.00  0.00    -0.282 N 
HETATM   26  C   UNL     1      42.563  -7.158  11.353  1.00  0.00     0.061 C 
HETATM   27  H   UNL     1      42.550  -5.694  13.863  1.00  0.00     0.189 HD
HETATM   28  N   UNL     1      42.280  -7.352  15.015  1.00  0.00    -0.187 NA
HETATM   29  C   UNL     1      42.024  -8.281  10.453  1.00  0.00     0.031 C 
ENDBRANCH   3  20
TORSDOF 6
ENDMDL
MODEL 5
REMARK VINA RESULT:      -7.3      3.161     10.372
REMARK  6 active torsions:
REMARK  status: ('A' for Active; 'I' for Inactive)
REMARK    1  A    between atoms: C_2  and  C_3 
REMARK    2  A    between atoms: C_3  and  O_4 
REMARK    3  A    between atoms: O_4  and  C_5 
REMARK    4  A    between atoms: C_8  and  C_9 
REMARK    5  A    between atoms: C_9  and  N_10 
REMARK       I    between atoms: N_10  and  C_11 
REMARK       I    between atoms: C_11  and  N_12 
REMARK    6  A    between atoms: N_12  and  C_13 
ROOT
HETATM    1  N   UNL     1      44.798 -10.338   7.977  1.00  0.00    -0.339 N 
HETATM    2  C   UNL     1      45.186  -9.116   8.404  1.00  0.00     0.316 C 
HETATM    3  N   UNL     1      44.493  -8.542   9.408  1.00  0.00    -0.338 N 
HETATM    4  O   UNL     1      46.138  -8.506   7.924  1.00  0.00    -0.247 OA
HETATM    5  H   UNL     1      43.872 -10.641   8.222  1.00  0.00     0.164 HD
HETATM    6  H   UNL     1      44.918  -7.652   9.643  1.00  0.00     0.164 HD
ENDROOT
BRANCH   1   7
HETATM    7  C   UNL     1      45.389 -10.950   6.811  1.00  0.00     0.164 C 
BRANCH   7   8
HETATM    8  C   UNL     1      44.469 -11.927   6.136  1.00  0.00    -0.021 A 
HETATM    9  C   UNL     1      44.049 -13.082   6.791  1.00  0.00     0.128 A 
HETATM   10  N   UNL     1      43.260 -14.031   6.233  1.00  0.00    -0.235 NA
HETATM   11  C   UNL     1      42.848 -13.820   4.960  1.00  0.00     0.186 A 
HETATM   12  C   UNL     1      43.185 -12.681   4.232  1.00  0.00     0.087 A 
HETATM   13  C   UNL     1      44.004 -11.723   4.832  1.00  0.00     0.038 A 
HETATM   14 CL   UNL     1      42.644 -12.420   2.616  1.00  0.00    -0.080 Cl
BRANCH  11  15
HETATM   15  O   UNL     1      42.068 -14.781   4.347  1.00  0.00    -0.333 OA
BRANCH  15  16
HETATM   16  C   UNL     1      42.751 -16.017   4.123  1.00  0.00     0.181 C 
BRANCH  16  17
HETATM   17  C   UNL     1      42.670 -16.368   2.628  1.00  0.00     0.002 C 
HETATM   18  C   UNL     1      41.254 -16.138   2.102  1.00  0.00     0.011 C 
HETATM   19  C   UNL     1      43.100 -17.815   2.374  1.00  0.00     0.011 C 
ENDBRANCH  16  17
ENDBRANCH  15  16
ENDBRANCH  11  15
ENDBRANCH   7   8
ENDBRANCH   1   7
BRANCH   3  20
HETATM   20  C   UNL     1      43.336  -8.925  10.230  1.00  0.00     0.090 C 
HETATM   21  C   UNL     1      43.622  -9.007  11.756  1.00  0.00     0.067 C 
HETATM   22  C   UNL     1      43.044  -7.860  12.503  1.00  0.00    -0.013 A 
HETATM   23  C   UNL     1      42.228  -6.910  11.938  1.00  0.00     0.035 A 
HETATM   24  C   UNL     1      43.153  -7.474  13.850  1.00  0.00     0.148 A 
HETATM   25  N   UNL     1      41.889  -6.043  12.933  1.00  0.00    -0.282 N 
HETATM   26  C   UNL     1      41.816  -6.820  10.518  1.00  0.00     0.061 C 
HETATM   27  H   UNL     1      41.292  -5.224  12.890  1.00  0.00     0.189 HD
HETATM   28  N   UNL     1      42.466  -6.356  14.108  1.00  0.00    -0.187 NA
HETATM   29  C   UNL     1      42.033  -8.181   9.839  1.00  0.00     0.031 C 
ENDBRANCH   3  20
TORSDOF 6
ENDMDL
MODEL 6
REMARK VINA RESULT:      -7.2      2.091      2.623
REMARK  6 active torsions:
REMARK  status: ('A' for Active; 'I' for Inactive)
REMARK    1  A    between atoms: C_2  and  C_3 
REMARK    2  A    between atoms: C_3  and  O_4 
REMARK    3  A    between atoms: O_4  and  C_5 
REMARK    4  A    between atoms: C_8  and  C_9 
REMARK    5  A    between atoms: C_9  and  N_10 
REMARK       I    between atoms: N_10  and  C_11 
REMARK       I    between atoms: C_11  and  N_12 
REMARK    6  A    between atoms: N_12  and  C_13 
ROOT
HETATM    1  N   UNL     1      41.910 -12.191   4.269  1.00  0.00    -0.339 N 
HETATM    2  C   UNL     1      42.895 -12.673   3.479  1.00  0.00     0.316 C 
HETATM    3  N   UNL     1      42.992 -14.009   3.325  1.00  0.00    -0.338 N 
HETATM    4  O   UNL     1      43.703 -11.955   2.896  1.00  0.00    -0.247 OA
HETATM    5  H   UNL     1      41.477 -12.830   4.911  1.00  0.00     0.164 HD
HETATM    6  H   UNL     1      43.747 -14.219   2.683  1.00  0.00     0.164 HD
ENDROOT
BRANCH   1   7
HETATM    7  C   UNL     1      41.834 -10.789   4.606  1.00  0.00     0.164 C 
BRANCH   7   8
HETATM    8  C   UNL     1      42.349 -10.493   5.985  1.00  0.00    -0.021 A 
HETATM    9  C   UNL     1      41.540  -9.867   6.931  1.00  0.00     0.128 A 
HETATM   10  N   UNL     1      41.946  -9.526   8.176  1.00  0.00    -0.235 NA
HETATM   11  C   UNL     1      43.221  -9.834   8.514  1.00  0.00     0.186 A 
HETATM   12  C   UNL     1      44.099 -10.490   7.653  1.00  0.00     0.087 A 
HETATM   13  C   UNL     1      43.652 -10.824   6.373  1.00  0.00     0.038 A 
HETATM   14 CL   UNL     1      45.715 -10.886   8.101  1.00  0.00    -0.080 Cl
BRANCH  11  15
HETATM   15  O   UNL     1      43.682  -9.473   9.766  1.00  0.00    -0.333 OA
BRANCH  15  16
HETATM   16  C   UNL     1      42.803  -8.591  10.469  1.00  0.00     0.181 C 
BRANCH  16  17
HETATM   17  C   UNL     1      42.639  -9.097  11.912  1.00  0.00     0.002 C 
HETATM   18  C   UNL     1      43.279  -8.119  12.896  1.00  0.00     0.011 C 
HETATM   19  C   UNL     1      43.245 -10.492  12.083  1.00  0.00     0.011 C 
ENDBRANCH  16  17
ENDBRANCH  15  16
ENDBRANCH  11  15
ENDBRANCH   7   8
ENDBRANCH   1   7
BRANCH   3  20
HETATM   20  C   UNL     1      42.249 -15.174   3.825  1.00  0.00     0.090 C 
HETATM   21  C   UNL     1      42.012 -16.295   2.774  1.00  0.00     0.067 C 
HETATM   22  C   UNL     1      42.882 -17.477   3.000  1.00  0.00    -0.013 A 
HETATM   23  C   UNL     1      43.700 -17.628   4.094  1.00  0.00     0.035 A 
HETATM   24  C   UNL     1      43.084 -18.646   2.246  1.00  0.00     0.148 A 
HETATM   25  N   UNL     1      44.317 -18.836   3.957  1.00  0.00    -0.282 N 
HETATM   26  C   UNL     1      43.901 -16.661   5.197  1.00  0.00     0.061 C 
HETATM   27  H   UNL     1      44.982 -19.287   4.578  1.00  0.00     0.189 HD
HETATM   28  N   UNL     1      43.973 -19.464   2.818  1.00  0.00    -0.187 NA
HETATM   29  C   UNL     1      42.734 -15.662   5.215  1.00  0.00     0.031 C 
ENDBRANCH   3  20
TORSDOF 6
ENDMDL
MODEL 7
REMARK VINA RESULT:      -7.1      1.606      1.995
REMARK  6 active torsions:
REMARK  status: ('A' for Active; 'I' for Inactive)
REMARK    1  A    between atoms: C_2  and  C_3 
REMARK    2  A    between atoms: C_3  and  O_4 
REMARK    3  A    between atoms: O_4  and  C_5 
REMARK    4  A    between atoms: C_8  and  C_9 
REMARK    5  A    between atoms: C_9  and  N_10 
REMARK       I    between atoms: N_10  and  C_11 
REMARK       I    between atoms: C_11  and  N_12 
REMARK    6  A    between atoms: N_12  and  C_13 
ROOT
HETATM    1  N   UNL     1      41.315 -12.636   5.432  1.00  0.00    -0.339 N 
HETATM    2  C   UNL     1      40.862 -13.870   5.744  1.00  0.00     0.316 C 
HETATM    3  N   UNL     1      41.576 -14.936   5.327  1.00  0.00    -0.338 N 
HETATM    4  O   UNL     1      39.836 -14.067   6.388  1.00  0.00    -0.247 OA
HETATM    5  H   UNL     1      41.989 -12.564   4.690  1.00  0.00     0.164 HD
HETATM    6  H   UNL     1      41.138 -15.785   5.663  1.00  0.00     0.164 HD
ENDROOT
BRANCH   1   7
HETATM    7  C   UNL     1      40.532 -11.455   5.707  1.00  0.00     0.164 C 
BRANCH   7   8
HETATM    8  C   UNL     1      41.194 -10.533   6.691  1.00  0.00    -0.021 A 
HETATM    9  C   UNL     1      42.581 -10.424   6.746  1.00  0.00     0.128 A 
HETATM   10  N   UNL     1      43.251  -9.652   7.635  1.00  0.00    -0.235 NA
HETATM   11  C   UNL     1      42.507  -8.933   8.509  1.00  0.00     0.186 A 
HETATM   12  C   UNL     1      41.114  -8.947   8.513  1.00  0.00     0.087 A 
HETATM   13  C   UNL     1      40.453  -9.757   7.588  1.00  0.00     0.038 A 
HETATM   14 CL   UNL     1      40.181  -8.017   9.625  1.00  0.00    -0.080 Cl
BRANCH  11  15
HETATM   15  O   UNL     1      43.156  -8.158   9.452  1.00  0.00    -0.333 OA
BRANCH  15  16
HETATM   16  C   UNL     1      44.162  -8.864  10.182  1.00  0.00     0.181 C 
BRANCH  16  17
HETATM   17  C   UNL     1      43.727  -8.975  11.652  1.00  0.00     0.002 C 
HETATM   18  C   UNL     1      42.936 -10.263  11.878  1.00  0.00     0.011 C 
HETATM   19  C   UNL     1      42.895  -7.762  12.077  1.00  0.00     0.011 C 
ENDBRANCH  16  17
ENDBRANCH  15  16
ENDBRANCH  11  15
ENDBRANCH   7   8
ENDBRANCH   1   7
BRANCH   3  20
HETATM   20  C   UNL     1      42.818 -15.126   4.565  1.00  0.00     0.090 C 
HETATM   21  C   UNL     1      43.701 -16.311   5.046  1.00  0.00     0.067 C 
HETATM   22  C   UNL     1      43.636 -17.476   4.126  1.00  0.00    -0.013 A 
HETATM   23  C   UNL     1      42.988 -17.460   2.914  1.00  0.00     0.035 A 
HETATM   24  C   UNL     1      44.168 -18.774   4.224  1.00  0.00     0.148 A 
HETATM   25  N   UNL     1      43.166 -18.692   2.360  1.00  0.00    -0.282 N 
HETATM   26  C   UNL     1      42.218 -16.338   2.330  1.00  0.00     0.061 C 
HETATM   27  H   UNL     1      42.838 -19.043   1.465  1.00  0.00     0.189 HD
HETATM   28  N   UNL     1      43.865 -19.521   3.157  1.00  0.00    -0.187 NA
HETATM   29  C   UNL     1      42.617 -15.030   3.031  1.00  0.00     0.031 C 
ENDBRANCH   3  20
TORSDOF 6
ENDMDL
MODEL 8
REMARK VINA RESULT:      -7.1      4.595      6.126
REMARK  6 active torsions:
REMARK  status: ('A' for Active; 'I' for Inactive)
REMARK    1  A    between atoms: C_2  and  C_3 
REMARK    2  A    between atoms: C_3  and  O_4 
REMARK    3  A    between atoms: O_4  and  C_5 
REMARK    4  A    between atoms: C_8  and  C_9 
REMARK    5  A    between atoms: C_9  and  N_10 
REMARK       I    between atoms: N_10  and  C_11 
REMARK       I    between atoms: C_11  and  N_12 
REMARK    6  A    between atoms: N_12  and  C_13 
ROOT
HETATM    1  N   UNL     1      41.499 -15.020   2.738  1.00  0.00    -0.339 N 
HETATM    2  C   UNL     1      42.081 -15.327   1.558  1.00  0.00     0.316 C 
HETATM    3  N   UNL     1      41.525 -14.844   0.428  1.00  0.00    -0.338 N 
HETATM    4  O   UNL     1      43.089 -16.021   1.465  1.00  0.00    -0.247 OA
HETATM    5  H   UNL     1      40.551 -14.690   2.715  1.00  0.00     0.164 HD
HETATM    6  H   UNL     1      42.085 -15.124  -0.368  1.00  0.00     0.164 HD
ENDROOT
BRANCH   1   7
HETATM    7  C   UNL     1      41.941 -15.620   3.974  1.00  0.00     0.164 C 
BRANCH   7   8
HETATM    8  C   UNL     1      42.522 -14.620   4.933  1.00  0.00    -0.021 A 
HETATM    9  C   UNL     1      43.245 -15.036   6.048  1.00  0.00     0.128 A 
HETATM   10  N   UNL     1      43.758 -14.199   6.980  1.00  0.00    -0.235 NA
HETATM   11  C   UNL     1      43.559 -12.872   6.792  1.00  0.00     0.186 A 
HETATM   12  C   UNL     1      42.878 -12.354   5.692  1.00  0.00     0.087 A 
HETATM   13  C   UNL     1      42.357 -13.243   4.751  1.00  0.00     0.038 A 
HETATM   14 CL   UNL     1      42.643 -10.662   5.461  1.00  0.00    -0.080 Cl
BRANCH  11  15
HETATM   15  O   UNL     1      44.040 -11.988   7.739  1.00  0.00    -0.333 OA
BRANCH  15  16
HETATM   16  C   UNL     1      45.311 -11.424   7.405  1.00  0.00     0.181 C 
BRANCH  16  17
HETATM   17  C   UNL     1      45.759 -10.494   8.544  1.00  0.00     0.002 C 
HETATM   18  C   UNL     1      44.615 -10.273   9.533  1.00  0.00     0.011 C 
HETATM   19  C   UNL     1      46.255  -9.152   8.002  1.00  0.00     0.011 C 
ENDBRANCH  16  17
ENDBRANCH  15  16
ENDBRANCH  11  15
ENDBRANCH   7   8
ENDBRANCH   1   7
BRANCH   3  20
HETATM   20  C   UNL     1      40.362 -14.002   0.115  1.00  0.00     0.090 C 
HETATM   21  C   UNL     1      40.608 -12.474   0.260  1.00  0.00     0.067 C 
HETATM   22  C   UNL     1      40.731 -11.792  -1.054  1.00  0.00    -0.013 A 
HETATM   23  C   UNL     1      40.508 -12.409  -2.261  1.00  0.00     0.035 A 
HETATM   24  C   UNL     1      41.064 -10.469  -1.391  1.00  0.00     0.148 A 
HETATM   25  N   UNL     1      40.697 -11.464  -3.224  1.00  0.00    -0.282 N 
HETATM   26  C   UNL     1      40.161 -13.831  -2.484  1.00  0.00     0.061 C 
HETATM   27  H   UNL     1      40.610 -11.553  -4.232  1.00  0.00     0.189 HD
HETATM   28  N   UNL     1      41.063 -10.274  -2.714  1.00  0.00    -0.187 NA
HETATM   29  C   UNL     1      39.621 -14.433  -1.177  1.00  0.00     0.031 C 
ENDBRANCH   3  20
TORSDOF 6
ENDMDL
MODEL 9
REMARK VINA RESULT:      -7.0      2.424      4.129
REMARK  6 active torsions:
REMARK  status: ('A' for Active; 'I' for Inactive)
REMARK    1  A    between atoms: C_2  and  C_3 
REMARK    2  A    between atoms: C_3  and  O_4 
REMARK    3  A    between atoms: O_4  and  C_5 
REMARK    4  A    between atoms: C_8  and  C_9 
REMARK    5  A    between atoms: C_9  and  N_10 
REMARK       I    between atoms: N_10  and  C_11 
REMARK       I    between atoms: C_11  and  N_12 
REMARK    6  A    between atoms: N_12  and  C_13 
ROOT
HETATM    1  N   UNL     1      43.221 -15.765   5.018  1.00  0.00    -0.339 N 
HETATM    2  C   UNL     1      43.457 -17.061   4.719  1.00  0.00     0.316 C 
HETATM    3  N   UNL     1      43.071 -17.518   3.511  1.00  0.00    -0.338 N 
HETATM    4  O   UNL     1      44.006 -17.841   5.493  1.00  0.00    -0.247 OA
HETATM    5  H   UNL     1      42.541 -15.278   4.461  1.00  0.00     0.164 HD
HETATM    6  H   UNL     1      43.343 -18.490   3.416  1.00  0.00     0.164 HD
ENDROOT
BRANCH   1   7
HETATM    7  C   UNL     1      43.464 -15.241   6.341  1.00  0.00     0.164 C 
BRANCH   7   8
HETATM    8  C   UNL     1      43.295 -13.751   6.418  1.00  0.00    -0.021 A 
HETATM    9  C   UNL     1      44.345 -12.933   6.826  1.00  0.00     0.128 A 
HETATM   10  N   UNL     1      44.255 -11.589   6.965  1.00  0.00    -0.235 NA
HETATM   11  C   UNL     1      43.064 -11.017   6.668  1.00  0.00     0.186 A 
HETATM   12  C   UNL     1      41.963 -11.744   6.219  1.00  0.00     0.087 A 
HETATM   13  C   UNL     1      42.085 -13.128   6.091  1.00  0.00     0.038 A 
HETATM   14 CL   UNL     1      40.456 -11.000   5.834  1.00  0.00    -0.080 Cl
BRANCH  11  15
HETATM   15  O   UNL     1      42.924  -9.652   6.828  1.00  0.00    -0.333 OA
BRANCH  15  16
HETATM   16  C   UNL     1      42.728  -9.250   8.187  1.00  0.00     0.181 C 
BRANCH  16  17
HETATM   17  C   UNL     1      43.621  -8.033   8.481  1.00  0.00     0.002 C 
HETATM   18  C   UNL     1      45.085  -8.458   8.581  1.00  0.00     0.011 C 
HETATM   19  C   UNL     1      43.186  -7.325   9.766  1.00  0.00     0.011 C 
ENDBRANCH  16  17
ENDBRANCH  15  16
ENDBRANCH  11  15
ENDBRANCH   7   8
ENDBRANCH   1   7
BRANCH   3  20
HETATM   20  C   UNL     1      42.411 -16.931   2.336  1.00  0.00     0.090 C 
HETATM   21  C   UNL     1      41.011 -16.316   2.617  1.00  0.00     0.067 C 
HETATM   22  C   UNL     1      41.036 -14.831   2.628  1.00  0.00    -0.013 A 
HETATM   23  C   UNL     1      42.135 -14.081   2.287  1.00  0.00     0.035 A 
HETATM   24  C   UNL     1      40.048 -13.883   2.948  1.00  0.00     0.148 A 
HETATM   25  N   UNL     1      41.766 -12.774   2.400  1.00  0.00    -0.282 N 
HETATM   26  C   UNL     1      43.472 -14.585   1.899  1.00  0.00     0.061 C 
HETATM   27  H   UNL     1      42.314 -11.938   2.218  1.00  0.00     0.189 HD
HETATM   28  N   UNL     1      40.499 -12.630   2.828  1.00  0.00    -0.187 NA
HETATM   29  C   UNL     1      43.356 -16.057   1.473  1.00  0.00     0.031 C 
ENDBRANCH   3  20
TORSDOF 6
ENDMDL
MODEL 10
REMARK VINA RESULT:      -7.0      5.729      9.282
REMARK  6 active torsions:
REMARK  status: ('A' for Active; 'I' for Inactive)
REMARK    1  A    between atoms: C_2  and  C_3 
REMARK    2  A    between atoms: C_3  and  O_4 
REMARK    3  A    between atoms: O_4  and  C_5 
REMARK    4  A    between atoms: C_8  and  C_9 
REMARK    5  A    between atoms: C_9  and  N_10 
REMARK       I    between atoms: N_10  and  C_11 
REMARK       I    between atoms: C_11  and  N_12 
REMARK    6  A    between atoms: N_12  and  C_13 
ROOT
HETATM    1  N   UNL     1      40.687 -12.869   2.610  1.00  0.00    -0.339 N 
HETATM    2  C   UNL     1      41.235 -12.003   1.731  1.00  0.00     0.316 C 
HETATM    3  N   UNL     1      40.714 -11.940   0.489  1.00  0.00    -0.338 N 
HETATM    4  O   UNL     1      42.181 -11.271   2.008  1.00  0.00    -0.247 OA
HETATM    5  H   UNL     1      40.116 -13.607   2.239  1.00  0.00     0.164 HD
HETATM    6  H   UNL     1      41.199 -11.227  -0.043  1.00  0.00     0.164 HD
ENDROOT
BRANCH   1   7
HETATM    7  C   UNL     1      41.281 -13.105   3.905  1.00  0.00     0.164 C 
BRANCH   7   8
HETATM    8  C   UNL     1      41.928 -14.457   4.012  1.00  0.00    -0.021 A 
HETATM    9  C   UNL     1      41.563 -15.493   3.156  1.00  0.00     0.128 A 
HETATM   10  N   UNL     1      42.066 -16.748   3.221  1.00  0.00    -0.235 NA
HETATM   11  C   UNL     1      42.995 -16.991   4.176  1.00  0.00     0.186 A 
HETATM   12  C   UNL     1      43.451 -16.014   5.059  1.00  0.00     0.087 A 
HETATM   13  C   UNL     1      42.910 -14.731   4.970  1.00  0.00     0.038 A 
HETATM   14 CL   UNL     1      44.643 -16.335   6.262  1.00  0.00    -0.080 Cl
BRANCH  11  15
HETATM   15  O   UNL     1      43.508 -18.269   4.294  1.00  0.00    -0.333 OA
BRANCH  15  16
HETATM   16  C   UNL     1      44.352 -18.652   3.205  1.00  0.00     0.181 C 
BRANCH  16  17
HETATM   17  C   UNL     1      44.052 -20.113   2.832  1.00  0.00     0.002 C 
HETATM   18  C   UNL     1      42.836 -20.189   1.911  1.00  0.00     0.011 C 
HETATM   19  C   UNL     1      43.826 -20.969   4.080  1.00  0.00     0.011 C 
ENDBRANCH  16  17
ENDBRANCH  15  16
ENDBRANCH  11  15
ENDBRANCH   7   8
ENDBRANCH   1   7
BRANCH   3  20
HETATM   20  C   UNL     1      39.617 -12.616  -0.218  1.00  0.00     0.090 C 
HETATM   21  C   UNL     1      38.270 -11.840  -0.222  1.00  0.00     0.067 C 
HETATM   22  C   UNL     1      37.973 -11.226  -1.541  1.00  0.00    -0.013 A 
HETATM   23  C   UNL     1      38.726 -11.438  -2.671  1.00  0.00     0.035 A 
HETATM   24  C   UNL     1      36.948 -10.360  -1.959  1.00  0.00     0.148 A 
HETATM   25  N   UNL     1      38.134 -10.729  -3.674  1.00  0.00    -0.282 N 
HETATM   26  C   UNL     1      39.958 -12.251  -2.782  1.00  0.00     0.061 C 
HETATM   27  H   UNL     1      38.405 -10.655  -4.649  1.00  0.00     0.189 HD
HETATM   28  N   UNL     1      37.057 -10.041  -3.253  1.00  0.00    -0.187 NA
HETATM   29  C   UNL     1      40.042 -13.211  -1.585  1.00  0.00     0.031 C 
ENDBRANCH   3  20
TORSDOF 6
ENDMDL
