MODEL 1
REMARK VINA RESULT:      -9.3      0.000      0.000
REMARK  6 active torsions:
REMARK  status: ('A' for Active; 'I' for Inactive)
REMARK    1  A    between atoms: O_2  and  C_3 
REMARK    2  A    between atoms: C_5  and  O_6 
REMARK    3  A    between atoms: C_8  and  N_9 
REMARK       I    between atoms: N_9  and  C_10 
REMARK    4  A    between atoms: C_10  and  C_11 
REMARK    5  A    between atoms: C_11  and  N_12 
REMARK    6  A    between atoms: C_18  and  C_19 
ROOT
HETATM    1  N   UNL     1      43.414 -10.411   6.872  1.00  0.00    -0.063 N 
HETATM    2  H   UNL     1      44.055 -10.192   6.099  1.00  0.00     0.280 HD
HETATM    3  C   UNL     1      44.031 -11.543   7.659  1.00  0.00     0.240 C 
HETATM    4  C   UNL     1      44.288 -12.712   6.730  1.00  0.00     0.083 C 
HETATM    5  C   UNL     1      43.012 -13.158   6.005  1.00  0.00     0.131 A 
HETATM    6  N   UNL     1      43.444 -14.110   4.952  1.00  0.00    -0.251 NA
HETATM    7  C   UNL     1      42.929 -15.272   5.255  1.00  0.00     0.132 A 
HETATM    8  C   UNL     1      42.074 -15.200   6.499  1.00  0.00     0.272 A 
HETATM    9  O   UNL     1      41.496 -16.097   7.059  1.00  0.00    -0.266 OA
HETATM   10  N   UNL     1      42.130 -13.888   6.860  1.00  0.00    -0.327 N 
HETATM   11  C   UNL     1      42.310 -11.981   5.318  1.00  0.00     0.083 C 
HETATM   12  C   UNL     1      42.093 -10.807   6.263  1.00  0.00     0.240 C 
HETATM   13  H   UNL     1      41.679 -13.584   7.715  1.00  0.00     0.165 HD
ENDROOT
BRANCH   1  14
HETATM   14  C   UNL     1      43.356  -9.096   7.699  1.00  0.00     0.337 C 
BRANCH  14  15
HETATM   15  C   UNL     1      44.621  -8.757   8.487  1.00  0.00     0.248 C 
HETATM   16  N   UNL     1      44.659  -8.769   9.847  1.00  0.00    -0.323 N 
HETATM   17  H   UNL     1      45.619  -8.748  10.181  1.00  0.00     0.169 HD
HETATM   18  O   UNL     1      45.689  -8.569   7.890  1.00  0.00    -0.271 OA
BRANCH  16  19
HETATM   19  C   UNL     1      43.681  -8.780  10.869  1.00  0.00     0.068 A 
HETATM   20  C   UNL     1      42.871  -7.704  11.277  1.00  0.00     0.097 A 
HETATM   21  C   UNL     1      41.972  -7.878  12.346  1.00  0.00     0.075 A 
HETATM   22  C   UNL     1      41.911  -9.085  13.042  1.00  0.00     0.070 A 
HETATM   23  C   UNL     1      42.715 -10.145  12.646  1.00  0.00     0.039 A 
HETATM   24  C   UNL     1      43.603  -9.988  11.582  1.00  0.00     0.035 A 
BRANCH  20  25
HETATM   25  O   UNL     1      43.034  -6.500  10.648  1.00  0.00    -0.354 OA
HETATM   26  C   UNL     1      42.059  -6.124   9.673  1.00  0.00     0.210 C 
ENDBRANCH  20  25
BRANCH  22  27
HETATM   27  O   UNL     1      41.083  -9.336  14.099  1.00  0.00    -0.356 OA
HETATM   28  C   UNL     1      41.111  -8.369  15.145  1.00  0.00     0.210 C 
ENDBRANCH  22  27
ENDBRANCH  16  19
ENDBRANCH  14  15
ENDBRANCH   1  14
BRANCH   7  29
HETATM   29  C   UNL     1      43.184 -16.502   4.480  1.00  0.00    -0.002 A 
HETATM   30  C   UNL     1      42.534 -16.655   3.244  1.00  0.00     0.016 A 
HETATM   31  C   UNL     1      42.756 -17.792   2.462  1.00  0.00     0.024 A 
HETATM   32  C   UNL     1      43.623 -18.782   2.915  1.00  0.00     0.034 A 
HETATM   33 CL   UNL     1      43.901 -20.181   1.954  1.00  0.00    -0.084 Cl
HETATM   34  C   UNL     1      44.267 -18.645   4.144  1.00  0.00     0.024 A 
HETATM   35  C   UNL     1      44.048 -17.506   4.927  1.00  0.00     0.016 A 
ENDBRANCH   7  29
TORSDOF 6
ENDMDL
MODEL 2
REMARK VINA RESULT:      -9.0      3.871      9.889
REMARK  6 active torsions:
REMARK  status: ('A' for Active; 'I' for Inactive)
REMARK    1  A    between atoms: O_2  and  C_3 
REMARK    2  A    between atoms: C_5  and  O_6 
REMARK    3  A    between atoms: C_8  and  N_9 
REMARK       I    between atoms: N_9  and  C_10 
REMARK    4  A    between atoms: C_10  and  C_11 
REMARK    5  A    between atoms: C_11  and  N_12 
REMARK    6  A    between atoms: C_18  and  C_19 
ROOT
HETATM    1  N   UNL     1      42.546 -12.780   3.532  1.00  0.00    -0.063 N 
HETATM    2  H   UNL     1      41.547 -12.700   3.764  1.00  0.00     0.280 HD
HETATM    3  C   UNL     1      43.205 -13.547   4.654  1.00  0.00     0.240 C 
HETATM    4  C   UNL     1      42.937 -12.838   5.965  1.00  0.00     0.083 C 
HETATM    5  C   UNL     1      43.402 -11.377   5.931  1.00  0.00     0.131 A 
HETATM    6  N   UNL     1      42.853 -10.737   7.152  1.00  0.00    -0.251 NA
HETATM    7  C   UNL     1      43.872 -10.390   7.893  1.00  0.00     0.132 A 
HETATM    8  C   UNL     1      45.187 -10.717   7.225  1.00  0.00     0.272 A 
HETATM    9  O   UNL     1      46.301 -10.560   7.657  1.00  0.00    -0.266 OA
HETATM   10  N   UNL     1      44.823 -11.258   6.029  1.00  0.00    -0.327 N 
HETATM   11  C   UNL     1      42.841 -10.632   4.715  1.00  0.00     0.083 C 
HETATM   12  C   UNL     1      43.093 -11.380   3.413  1.00  0.00     0.240 C 
HETATM   13  H   UNL     1      45.535 -11.622   5.406  1.00  0.00     0.165 HD
ENDROOT
BRANCH   1  14
HETATM   14  C   UNL     1      42.562 -13.577   2.198  1.00  0.00     0.337 C 
BRANCH  14  15
HETATM   15  C   UNL     1      41.316 -14.419   1.919  1.00  0.00     0.248 C 
HETATM   16  N   UNL     1      41.120 -15.641   2.485  1.00  0.00    -0.323 N 
HETATM   17  H   UNL     1      40.155 -15.940   2.370  1.00  0.00     0.169 HD
HETATM   18  O   UNL     1      40.390 -13.948   1.246  1.00  0.00    -0.271 OA
BRANCH  16  19
HETATM   19  C   UNL     1      41.948 -16.570   3.156  1.00  0.00     0.068 A 
HETATM   20  C   UNL     1      42.016 -16.796   4.544  1.00  0.00     0.097 A 
HETATM   21  C   UNL     1      42.932 -17.737   5.050  1.00  0.00     0.075 A 
HETATM   22  C   UNL     1      43.811 -18.411   4.201  1.00  0.00     0.070 A 
HETATM   23  C   UNL     1      43.749 -18.184   2.833  1.00  0.00     0.039 A 
HETATM   24  C   UNL     1      42.839 -17.261   2.318  1.00  0.00     0.035 A 
BRANCH  20  25
HETATM   25  O   UNL     1      41.221 -16.038   5.360  1.00  0.00    -0.354 OA
HETATM   26  C   UNL     1      41.464 -16.101   6.766  1.00  0.00     0.210 C 
ENDBRANCH  20  25
BRANCH  22  27
HETATM   27  O   UNL     1      44.741 -19.326   4.605  1.00  0.00    -0.356 OA
HETATM   28  C   UNL     1      44.218 -20.520   5.181  1.00  0.00     0.210 C 
ENDBRANCH  22  27
ENDBRANCH  16  19
ENDBRANCH  14  15
ENDBRANCH   1  14
BRANCH   7  29
HETATM   29  C   UNL     1      43.736  -9.778   9.229  1.00  0.00    -0.002 A 
HETATM   30  C   UNL     1      43.488  -8.398   9.305  1.00  0.00     0.016 A 
HETATM   31  C   UNL     1      43.332  -7.774  10.546  1.00  0.00     0.024 A 
HETATM   32  C   UNL     1      43.429  -8.525  11.714  1.00  0.00     0.034 A 
HETATM   33 CL   UNL     1      43.234  -7.759  13.242  1.00  0.00    -0.084 Cl
HETATM   34  C   UNL     1      43.684  -9.894  11.650  1.00  0.00     0.024 A 
HETATM   35  C   UNL     1      43.838 -10.522  10.409  1.00  0.00     0.016 A 
ENDBRANCH   7  29
TORSDOF 6
ENDMDL
MODEL 3
REMARK VINA RESULT:      -8.8      1.590      1.813
REMARK  6 active torsions:
REMARK  status: ('A' for Active; 'I' for Inactive)
REMARK    1  A    between atoms: O_2  and  C_3 
REMARK    2  A    between atoms: C_5  and  O_6 
REMARK    3  A    between atoms: C_8  and  N_9 
REMARK       I    between atoms: N_9  and  C_10 
REMARK    4  A    between atoms: C_10  and  C_11 
REMARK    5  A    between atoms: C_11  and  N_12 
REMARK    6  A    between atoms: C_18  and  C_19 
ROOT
HETATM    1  N   UNL     1      43.961  -9.946   7.349  1.00  0.00    -0.063 N 
HETATM    2  H   UNL     1      44.220  -9.644   6.402  1.00  0.00     0.280 HD
HETATM    3  C   UNL     1      44.937 -11.023   7.758  1.00  0.00     0.240 C 
HETATM    4  C   UNL     1      44.906 -12.137   6.733  1.00  0.00     0.083 C 
HETATM    5  C   UNL     1      43.493 -12.700   6.540  1.00  0.00     0.131 A 
HETATM    6  N   UNL     1      43.554 -13.578   5.346  1.00  0.00    -0.251 NA
HETATM    7  C   UNL     1      43.307 -14.795   5.753  1.00  0.00     0.132 A 
HETATM    8  C   UNL     1      43.014 -14.841   7.235  1.00  0.00     0.272 A 
HETATM    9  O   UNL     1      42.787 -15.806   7.920  1.00  0.00    -0.266 OA
HETATM   10  N   UNL     1      43.091 -13.538   7.626  1.00  0.00    -0.327 N 
HETATM   11  C   UNL     1      42.474 -11.590   6.259  1.00  0.00     0.083 C 
HETATM   12  C   UNL     1      42.547 -10.467   7.283  1.00  0.00     0.240 C 
HETATM   13  H   UNL     1      42.991 -13.303   8.607  1.00  0.00     0.165 HD
ENDROOT
BRANCH   1  14
HETATM   14  C   UNL     1      44.119  -8.663   8.212  1.00  0.00     0.337 C 
BRANCH  14  15
HETATM   15  C   UNL     1      42.944  -7.686   8.160  1.00  0.00     0.248 C 
HETATM   16  N   UNL     1      42.204  -7.375   9.260  1.00  0.00    -0.323 N 
HETATM   17  H   UNL     1      41.631  -6.553   9.088  1.00  0.00     0.169 HD
HETATM   18  O   UNL     1      42.707  -7.059   7.120  1.00  0.00    -0.271 OA
BRANCH  16  19
HETATM   19  C   UNL     1      42.044  -7.945  10.544  1.00  0.00     0.068 A 
HETATM   20  C   UNL     1      41.221  -9.033  10.892  1.00  0.00     0.097 A 
HETATM   21  C   UNL     1      41.149  -9.448  12.235  1.00  0.00     0.075 A 
HETATM   22  C   UNL     1      41.840  -8.763  13.235  1.00  0.00     0.070 A 
HETATM   23  C   UNL     1      42.647  -7.686  12.894  1.00  0.00     0.039 A 
HETATM   24  C   UNL     1      42.734  -7.271  11.565  1.00  0.00     0.035 A 
BRANCH  20  25
HETATM   25  O   UNL     1      40.469  -9.612   9.907  1.00  0.00    -0.354 OA
HETATM   26  C   UNL     1      39.054  -9.419   9.953  1.00  0.00     0.210 C 
ENDBRANCH  20  25
BRANCH  22  27
HETATM   27  O   UNL     1      41.816  -9.085  14.562  1.00  0.00    -0.356 OA
HETATM   28  C   UNL     1      41.769  -7.980  15.462  1.00  0.00     0.210 C 
ENDBRANCH  22  27
ENDBRANCH  16  19
ENDBRANCH  14  15
ENDBRANCH   1  14
BRANCH   7  29
HETATM   29  C   UNL     1      43.341 -15.973   4.866  1.00  0.00    -0.002 A 
HETATM   30  C   UNL     1      42.576 -15.940   3.689  1.00  0.00     0.016 A 
HETATM   31  C   UNL     1      42.589 -17.023   2.804  1.00  0.00     0.024 A 
HETATM   32  C   UNL     1      43.362 -18.143   3.096  1.00  0.00     0.034 A 
HETATM   33 CL   UNL     1      43.382 -19.475   2.008  1.00  0.00    -0.084 Cl
HETATM   34  C   UNL     1      44.118 -18.190   4.266  1.00  0.00     0.024 A 
HETATM   35  C   UNL     1      44.109 -17.106   5.152  1.00  0.00     0.016 A 
ENDBRANCH   7  29
TORSDOF 6
ENDMDL
MODEL 4
REMARK VINA RESULT:      -8.6      1.953      2.921
REMARK  6 active torsions:
REMARK  status: ('A' for Active; 'I' for Inactive)
REMARK    1  A    between atoms: O_2  and  C_3 
REMARK    2  A    between atoms: C_5  and  O_6 
REMARK    3  A    between atoms: C_8  and  N_9 
REMARK       I    between atoms: N_9  and  C_10 
REMARK    4  A    between atoms: C_10  and  C_11 
REMARK    5  A    between atoms: C_11  and  N_12 
REMARK    6  A    between atoms: C_18  and  C_19 
ROOT
HETATM    1  N   UNL     1      41.357 -11.176   6.887  1.00  0.00    -0.063 N 
HETATM    2  H   UNL     1      41.199 -11.780   7.703  1.00  0.00     0.280 HD
HETATM    3  C   UNL     1      40.495 -11.704   5.765  1.00  0.00     0.240 C 
HETATM    4  C   UNL     1      40.835 -13.160   5.521  1.00  0.00     0.083 C 
HETATM    5  C   UNL     1      42.328 -13.358   5.228  1.00  0.00     0.131 A 
HETATM    6  N   UNL     1      42.569 -14.822   5.272  1.00  0.00    -0.251 NA
HETATM    7  C   UNL     1      42.925 -15.186   4.069  1.00  0.00     0.132 A 
HETATM    8  C   UNL     1      43.001 -14.008   3.126  1.00  0.00     0.272 A 
HETATM    9  O   UNL     1      43.261 -14.011   1.949  1.00  0.00    -0.266 OA
HETATM   10  N   UNL     1      42.681 -12.940   3.909  1.00  0.00    -0.327 N 
HETATM   11  C   UNL     1      43.207 -12.703   6.299  1.00  0.00     0.083 C 
HETATM   12  C   UNL     1      42.825 -11.251   6.550  1.00  0.00     0.240 C 
HETATM   13  H   UNL     1      42.602 -12.019   3.491  1.00  0.00     0.165 HD
ENDROOT
BRANCH   1  14
HETATM   14  C   UNL     1      40.892  -9.770   7.361  1.00  0.00     0.337 C 
BRANCH  14  15
HETATM   15  C   UNL     1      41.760  -8.599   6.900  1.00  0.00     0.248 C 
HETATM   16  N   UNL     1      42.732  -8.058   7.685  1.00  0.00    -0.323 N 
HETATM   17  H   UNL     1      43.345  -7.460   7.138  1.00  0.00     0.169 HD
HETATM   18  O   UNL     1      41.671  -8.184   5.738  1.00  0.00    -0.271 OA
BRANCH  16  19
HETATM   19  C   UNL     1      43.050  -8.125   9.061  1.00  0.00     0.068 A 
HETATM   20  C   UNL     1      44.034  -8.931   9.665  1.00  0.00     0.097 A 
HETATM   21  C   UNL     1      44.191  -8.903  11.063  1.00  0.00     0.075 A 
HETATM   22  C   UNL     1      43.351  -8.129  11.865  1.00  0.00     0.070 A 
HETATM   23  C   UNL     1      42.377  -7.339  11.271  1.00  0.00     0.039 A 
HETATM   24  C   UNL     1      42.217  -7.350   9.885  1.00  0.00     0.035 A 
BRANCH  20  25
HETATM   25  O   UNL     1      44.765  -9.764   8.864  1.00  0.00    -0.354 OA
HETATM   26  C   UNL     1      46.018  -9.282   8.375  1.00  0.00     0.210 C 
ENDBRANCH  20  25
BRANCH  22  27
HETATM   27  O   UNL     1      43.421  -8.055  13.227  1.00  0.00    -0.356 OA
HETATM   28  C   UNL     1      42.696  -6.982  13.822  1.00  0.00     0.210 C 
ENDBRANCH  22  27
ENDBRANCH  16  19
ENDBRANCH  14  15
ENDBRANCH   1  14
BRANCH   7  29
HETATM   29  C   UNL     1      43.190 -16.587   3.688  1.00  0.00    -0.002 A 
HETATM   30  C   UNL     1      43.985 -17.368   4.542  1.00  0.00     0.016 A 
HETATM   31  C   UNL     1      44.250 -18.707   4.237  1.00  0.00     0.024 A 
HETATM   32  C   UNL     1      43.726 -19.266   3.075  1.00  0.00     0.034 A 
HETATM   33 CL   UNL     1      44.048 -20.913   2.698  1.00  0.00    -0.084 Cl
HETATM   34  C   UNL     1      42.944 -18.497   2.215  1.00  0.00     0.024 A 
HETATM   35  C   UNL     1      42.674 -17.158   2.520  1.00  0.00     0.016 A 
ENDBRANCH   7  29
TORSDOF 6
ENDMDL
MODEL 5
REMARK VINA RESULT:      -8.4      6.689      9.684
REMARK  6 active torsions:
REMARK  status: ('A' for Active; 'I' for Inactive)
REMARK    1  A    between atoms: O_2  and  C_3 
REMARK    2  A    between atoms: C_5  and  O_6 
REMARK    3  A    between atoms: C_8  and  N_9 
REMARK       I    between atoms: N_9  and  C_10 
REMARK    4  A    between atoms: C_10  and  C_11 
REMARK    5  A    between atoms: C_11  and  N_12 
REMARK    6  A    between atoms: C_18  and  C_19 
ROOT
HETATM    1  N   UNL     1      41.792 -11.146   1.161  1.00  0.00    -0.063 N 
HETATM    2  H   UNL     1      42.583 -11.341   0.534  1.00  0.00     0.280 HD
HETATM    3  C   UNL     1      42.313 -11.220   2.576  1.00  0.00     0.240 C 
HETATM    4  C   UNL     1      42.949 -12.576   2.801  1.00  0.00     0.083 C 
HETATM    5  C   UNL     1      41.977 -13.722   2.497  1.00  0.00     0.131 A 
HETATM    6  N   UNL     1      42.788 -14.965   2.498  1.00  0.00    -0.251 NA
HETATM    7  C   UNL     1      42.359 -15.699   3.491  1.00  0.00     0.132 A 
HETATM    8  C   UNL     1      41.202 -15.046   4.212  1.00  0.00     0.272 A 
HETATM    9  O   UNL     1      40.611 -15.442   5.185  1.00  0.00    -0.266 OA
HETATM   10  N   UNL     1      40.997 -13.888   3.523  1.00  0.00    -0.327 N 
HETATM   11  C   UNL     1      41.343 -13.574   1.109  1.00  0.00     0.083 C 
HETATM   12  C   UNL     1      40.740 -12.193   0.895  1.00  0.00     0.240 C 
HETATM   13  H   UNL     1      40.301 -13.228   3.850  1.00  0.00     0.165 HD
ENDROOT
BRANCH   1  14
HETATM   14  C   UNL     1      41.354  -9.704   0.779  1.00  0.00     0.337 C 
BRANCH  14  15
HETATM   15  C   UNL     1      41.776  -9.234  -0.613  1.00  0.00     0.248 C 
HETATM   16  N   UNL     1      41.065  -9.540  -1.733  1.00  0.00    -0.323 N 
HETATM   17  H   UNL     1      41.360  -8.961  -2.515  1.00  0.00     0.169 HD
HETATM   18  O   UNL     1      42.731  -8.458  -0.740  1.00  0.00    -0.271 OA
BRANCH  16  19
HETATM   19  C   UNL     1      40.053 -10.477  -2.043  1.00  0.00     0.068 A 
HETATM   20  C   UNL     1      38.687 -10.387  -1.717  1.00  0.00     0.097 A 
HETATM   21  C   UNL     1      37.819 -11.437  -2.070  1.00  0.00     0.075 A 
HETATM   22  C   UNL     1      38.302 -12.590  -2.690  1.00  0.00     0.070 A 
HETATM   23  C   UNL     1      39.650 -12.682  -3.006  1.00  0.00     0.039 A 
HETATM   24  C   UNL     1      40.519 -11.644  -2.671  1.00  0.00     0.035 A 
BRANCH  20  25
HETATM   25  O   UNL     1      38.264  -9.296  -1.008  1.00  0.00    -0.354 OA
HETATM   26  C   UNL     1      37.104  -8.608  -1.480  1.00  0.00     0.210 C 
ENDBRANCH  20  25
BRANCH  22  27
HETATM   27  O   UNL     1      37.536 -13.662  -3.053  1.00  0.00    -0.356 OA
HETATM   28  C   UNL     1      38.257 -14.835  -3.422  1.00  0.00     0.210 C 
ENDBRANCH  22  27
ENDBRANCH  16  19
ENDBRANCH  14  15
ENDBRANCH   1  14
BRANCH   7  29
HETATM   29  C   UNL     1      42.961 -16.993   3.866  1.00  0.00    -0.002 A 
HETATM   30  C   UNL     1      43.224 -17.234   5.224  1.00  0.00     0.016 A 
HETATM   31  C   UNL     1      43.776 -18.452   5.634  1.00  0.00     0.024 A 
HETATM   32  C   UNL     1      44.071 -19.429   4.687  1.00  0.00     0.034 A 
HETATM   33 CL   UNL     1      44.747 -20.929   5.189  1.00  0.00    -0.084 Cl
HETATM   34  C   UNL     1      43.823 -19.197   3.336  1.00  0.00     0.024 A 
HETATM   35  C   UNL     1      43.267 -17.980   2.923  1.00  0.00     0.016 A 
ENDBRANCH   7  29
TORSDOF 6
ENDMDL
MODEL 6
REMARK VINA RESULT:      -8.3      1.710      2.406
REMARK  6 active torsions:
REMARK  status: ('A' for Active; 'I' for Inactive)
REMARK    1  A    between atoms: O_2  and  C_3 
REMARK    2  A    between atoms: C_5  and  O_6 
REMARK    3  A    between atoms: C_8  and  N_9 
REMARK       I    between atoms: N_9  and  C_10 
REMARK    4  A    between atoms: C_10  and  C_11 
REMARK    5  A    between atoms: C_11  and  N_12 
REMARK    6  A    between atoms: C_18  and  C_19 
ROOT
HETATM    1  N   UNL     1      40.784 -10.898   5.950  1.00  0.00    -0.063 N 
HETATM    2  H   UNL     1      40.757 -10.688   4.944  1.00  0.00     0.280 HD
HETATM    3  C   UNL     1      42.192 -11.337   6.277  1.00  0.00     0.240 C 
HETATM    4  C   UNL     1      42.562 -12.514   5.398  1.00  0.00     0.083 C 
HETATM    5  C   UNL     1      41.563 -13.669   5.537  1.00  0.00     0.131 A 
HETATM    6  N   UNL     1      41.883 -14.628   4.452  1.00  0.00    -0.251 NA
HETATM    7  C   UNL     1      42.283 -15.733   5.024  1.00  0.00     0.132 A 
HETATM    8  C   UNL     1      42.225 -15.636   6.531  1.00  0.00     0.272 A 
HETATM    9  O   UNL     1      42.560 -16.461   7.343  1.00  0.00    -0.266 OA
HETATM   10  N   UNL     1      41.732 -14.387   6.761  1.00  0.00    -0.327 N 
HETATM   11  C   UNL     1      40.118 -13.197   5.339  1.00  0.00     0.083 C 
HETATM   12  C   UNL     1      39.781 -11.993   6.208  1.00  0.00     0.240 C 
HETATM   13  H   UNL     1      41.653 -14.048   7.713  1.00  0.00     0.165 HD
ENDROOT
BRANCH   1  14
HETATM   14  C   UNL     1      40.427  -9.545   6.628  1.00  0.00     0.337 C 
BRANCH  14  15
HETATM   15  C   UNL     1      41.533  -8.490   6.615  1.00  0.00     0.248 C 
HETATM   16  N   UNL     1      42.428  -8.360   7.632  1.00  0.00    -0.323 N 
HETATM   17  H   UNL     1      43.212  -7.778   7.349  1.00  0.00     0.169 HD
HETATM   18  O   UNL     1      41.710  -7.792   5.609  1.00  0.00    -0.271 OA
BRANCH  16  19
HETATM   19  C   UNL     1      42.492  -8.825   8.966  1.00  0.00     0.068 A 
HETATM   20  C   UNL     1      43.488  -9.643   9.532  1.00  0.00     0.097 A 
HETATM   21  C   UNL     1      43.374 -10.048  10.875  1.00  0.00     0.075 A 
HETATM   22  C   UNL     1      42.261  -9.695  11.639  1.00  0.00     0.070 A 
HETATM   23  C   UNL     1      41.275  -8.894  11.080  1.00  0.00     0.039 A 
HETATM   24  C   UNL     1      41.381  -8.477   9.753  1.00  0.00     0.035 A 
BRANCH  20  25
HETATM   25  O   UNL     1      44.509 -10.066   8.725  1.00  0.00    -0.354 OA
HETATM   26  C   UNL     1      45.704  -9.283   8.703  1.00  0.00     0.210 C 
ENDBRANCH  20  25
BRANCH  22  27
HETATM   27  O   UNL     1      42.060 -10.056  12.941  1.00  0.00    -0.356 OA
HETATM   28  C   UNL     1      40.929  -9.464  13.575  1.00  0.00     0.210 C 
ENDBRANCH  22  27
ENDBRANCH  16  19
ENDBRANCH  14  15
ENDBRANCH   1  14
BRANCH   7  29
HETATM   29  C   UNL     1      42.757 -16.912   4.274  1.00  0.00    -0.002 A 
HETATM   30  C   UNL     1      42.264 -17.115   2.975  1.00  0.00     0.016 A 
HETATM   31  C   UNL     1      42.696 -18.206   2.215  1.00  0.00     0.024 A 
HETATM   32  C   UNL     1      43.617 -19.101   2.753  1.00  0.00     0.034 A 
HETATM   33 CL   UNL     1      44.152 -20.442   1.820  1.00  0.00    -0.084 Cl
HETATM   34  C   UNL     1      44.106 -18.914   4.045  1.00  0.00     0.024 A 
HETATM   35  C   UNL     1      43.677 -17.821   4.807  1.00  0.00     0.016 A 
ENDBRANCH   7  29
TORSDOF 6
ENDMDL
MODEL 7
REMARK VINA RESULT:      -8.1      3.965     10.304
REMARK  6 active torsions:
REMARK  status: ('A' for Active; 'I' for Inactive)
REMARK    1  A    between atoms: O_2  and  C_3 
REMARK    2  A    between atoms: C_5  and  O_6 
REMARK    3  A    between atoms: C_8  and  N_9 
REMARK       I    between atoms: N_9  and  C_10 
REMARK    4  A    between atoms: C_10  and  C_11 
REMARK    5  A    between atoms: C_11  and  N_12 
REMARK    6  A    between atoms: C_18  and  C_19 
ROOT
HETATM    1  N   UNL     1      41.168 -11.834   4.652  1.00  0.00    -0.063 N 
HETATM    2  H   UNL     1      40.991 -12.626   5.283  1.00  0.00     0.280 HD
HETATM    3  C   UNL     1      42.570 -11.346   4.930  1.00  0.00     0.240 C 
HETATM    4  C   UNL     1      42.691 -10.994   6.399  1.00  0.00     0.083 C 
HETATM    5  C   UNL     1      41.638  -9.966   6.830  1.00  0.00     0.131 A 
HETATM    6  N   UNL     1      41.693  -9.911   8.312  1.00  0.00    -0.251 NA
HETATM    7  C   UNL     1      42.091  -8.709   8.635  1.00  0.00     0.132 A 
HETATM    8  C   UNL     1      42.294  -7.839   7.416  1.00  0.00     0.272 A 
HETATM    9  O   UNL     1      42.691  -6.702   7.370  1.00  0.00    -0.266 OA
HETATM   10  N   UNL     1      41.950  -8.647   6.375  1.00  0.00    -0.327 N 
HETATM   11  C   UNL     1      40.224 -10.398   6.425  1.00  0.00     0.083 C 
HETATM   12  C   UNL     1      40.136 -10.777   4.954  1.00  0.00     0.240 C 
HETATM   13  H   UNL     1      42.059  -8.313   5.424  1.00  0.00     0.165 HD
ENDROOT
BRANCH   1  14
HETATM   14  C   UNL     1      41.041 -12.448   3.229  1.00  0.00     0.337 C 
BRANCH  14  15
HETATM   15  C   UNL     1      39.842 -13.372   3.016  1.00  0.00     0.248 C 
HETATM   16  N   UNL     1      39.899 -14.710   3.262  1.00  0.00    -0.323 N 
HETATM   17  H   UNL     1      38.965 -15.111   3.287  1.00  0.00     0.169 HD
HETATM   18  O   UNL     1      38.740 -12.895   2.717  1.00  0.00    -0.271 OA
BRANCH  16  19
HETATM   19  C   UNL     1      40.945 -15.641   3.458  1.00  0.00     0.068 A 
HETATM   20  C   UNL     1      41.506 -16.037   4.687  1.00  0.00     0.097 A 
HETATM   21  C   UNL     1      42.577 -16.951   4.698  1.00  0.00     0.075 A 
HETATM   22  C   UNL     1      43.126 -17.428   3.508  1.00  0.00     0.070 A 
HETATM   23  C   UNL     1      42.578 -17.032   2.295  1.00  0.00     0.039 A 
HETATM   24  C   UNL     1      41.510 -16.135   2.271  1.00  0.00     0.035 A 
BRANCH  20  25
HETATM   25  O   UNL     1      41.021 -15.466   5.831  1.00  0.00    -0.354 OA
HETATM   26  C   UNL     1      41.947 -14.770   6.669  1.00  0.00     0.210 C 
ENDBRANCH  20  25
BRANCH  22  27
HETATM   27  O   UNL     1      44.172 -18.301   3.424  1.00  0.00    -0.356 OA
HETATM   28  C   UNL     1      43.841 -19.618   2.990  1.00  0.00     0.210 C 
ENDBRANCH  22  27
ENDBRANCH  16  19
ENDBRANCH  14  15
ENDBRANCH   1  14
BRANCH   7  29
HETATM   29  C   UNL     1      42.335  -8.279  10.025  1.00  0.00    -0.002 A 
HETATM   30  C   UNL     1      43.346  -8.928  10.753  1.00  0.00     0.016 A 
HETATM   31  C   UNL     1      43.630  -8.546  12.067  1.00  0.00     0.024 A 
HETATM   32  C   UNL     1      42.901  -7.518  12.660  1.00  0.00     0.034 A 
HETATM   33 CL   UNL     1      43.251  -7.044  14.276  1.00  0.00    -0.084 Cl
HETATM   34  C   UNL     1      41.890  -6.874  11.950  1.00  0.00     0.024 A 
HETATM   35  C   UNL     1      41.606  -7.253  10.633  1.00  0.00     0.016 A 
ENDBRANCH   7  29
TORSDOF 6
ENDMDL
MODEL 8
REMARK VINA RESULT:      -7.8      3.954      9.638
REMARK  6 active torsions:
REMARK  status: ('A' for Active; 'I' for Inactive)
REMARK    1  A    between atoms: O_2  and  C_3 
REMARK    2  A    between atoms: C_5  and  O_6 
REMARK    3  A    between atoms: C_8  and  N_9 
REMARK       I    between atoms: N_9  and  C_10 
REMARK    4  A    between atoms: C_10  and  C_11 
REMARK    5  A    between atoms: C_11  and  N_12 
REMARK    6  A    between atoms: C_18  and  C_19 
ROOT
HETATM    1  N   UNL     1      41.876 -13.265   2.965  1.00  0.00    -0.063 N 
HETATM    2  H   UNL     1      42.160 -14.065   3.545  1.00  0.00     0.280 HD
HETATM    3  C   UNL     1      42.994 -12.251   3.021  1.00  0.00     0.240 C 
HETATM    4  C   UNL     1      43.263 -11.890   4.468  1.00  0.00     0.083 C 
HETATM    5  C   UNL     1      42.002 -11.380   5.175  1.00  0.00     0.131 A 
HETATM    6  N   UNL     1      42.333 -11.317   6.620  1.00  0.00    -0.251 NA
HETATM    7  C   UNL     1      42.280 -10.059   6.970  1.00  0.00     0.132 A 
HETATM    8  C   UNL     1      41.867  -9.174   5.816  1.00  0.00     0.272 A 
HETATM    9  O   UNL     1      41.761  -7.974   5.799  1.00  0.00    -0.266 OA
HETATM   10  N   UNL     1      41.666 -10.046   4.789  1.00  0.00    -0.327 N 
HETATM   11  C   UNL     1      40.825 -12.347   5.002  1.00  0.00     0.083 C 
HETATM   12  C   UNL     1      40.595 -12.721   3.545  1.00  0.00     0.240 C 
HETATM   13  H   UNL     1      41.435  -9.691   3.868  1.00  0.00     0.165 HD
ENDROOT
BRANCH   1  14
HETATM   14  C   UNL     1      41.714 -13.870   1.541  1.00  0.00     0.337 C 
BRANCH  14  15
HETATM   15  C   UNL     1      40.741 -15.044   1.431  1.00  0.00     0.248 C 
HETATM   16  N   UNL     1      40.641 -16.001   2.394  1.00  0.00    -0.323 N 
HETATM   17  H   UNL     1      39.800 -16.556   2.263  1.00  0.00     0.169 HD
HETATM   18  O   UNL     1      39.928 -15.087   0.500  1.00  0.00    -0.271 OA
BRANCH  16  19
HETATM   19  C   UNL     1      41.443 -16.397   3.489  1.00  0.00     0.068 A 
HETATM   20  C   UNL     1      42.609 -17.185   3.444  1.00  0.00     0.097 A 
HETATM   21  C   UNL     1      43.266 -17.522   4.642  1.00  0.00     0.075 A 
HETATM   22  C   UNL     1      42.749 -17.131   5.878  1.00  0.00     0.070 A 
HETATM   23  C   UNL     1      41.595 -16.360   5.924  1.00  0.00     0.039 A 
HETATM   24  C   UNL     1      40.940 -16.012   4.743  1.00  0.00     0.035 A 
BRANCH  20  25
HETATM   25  O   UNL     1      43.028 -17.647   2.227  1.00  0.00    -0.354 OA
HETATM   26  C   UNL     1      43.282 -19.048   2.101  1.00  0.00     0.210 C 
ENDBRANCH  20  25
BRANCH  22  27
HETATM   27  O   UNL     1      43.309 -17.426   7.088  1.00  0.00    -0.356 OA
HETATM   28  C   UNL     1      43.528 -16.313   7.952  1.00  0.00     0.210 C 
ENDBRANCH  22  27
ENDBRANCH  16  19
ENDBRANCH  14  15
ENDBRANCH   1  14
BRANCH   7  29
HETATM   29  C   UNL     1      42.613  -9.576   8.323  1.00  0.00    -0.002 A 
HETATM   30  C   UNL     1      41.558  -9.215   9.178  1.00  0.00     0.016 A 
HETATM   31  C   UNL     1      41.819  -8.769  10.477  1.00  0.00     0.024 A 
HETATM   32  C   UNL     1      43.134  -8.677  10.924  1.00  0.00     0.034 A 
HETATM   33 CL   UNL     1      43.457  -8.131  12.522  1.00  0.00    -0.084 Cl
HETATM   34  C   UNL     1      44.189  -9.023  10.081  1.00  0.00     0.024 A 
HETATM   35  C   UNL     1      43.930  -9.473   8.781  1.00  0.00     0.016 A 
ENDBRANCH   7  29
TORSDOF 6
ENDMDL
MODEL 9
REMARK VINA RESULT:      -7.7      1.606      2.116
REMARK  6 active torsions:
REMARK  status: ('A' for Active; 'I' for Inactive)
REMARK    1  A    between atoms: O_2  and  C_3 
REMARK    2  A    between atoms: C_5  and  O_6 
REMARK    3  A    between atoms: C_8  and  N_9 
REMARK       I    between atoms: N_9  and  C_10 
REMARK    4  A    between atoms: C_10  and  C_11 
REMARK    5  A    between atoms: C_11  and  N_12 
REMARK    6  A    between atoms: C_18  and  C_19 
ROOT
HETATM    1  N   UNL     1      42.080 -10.820   7.373  1.00  0.00    -0.063 N 
HETATM    2  H   UNL     1      41.977 -11.440   8.186  1.00  0.00     0.280 HD
HETATM    3  C   UNL     1      41.076 -11.267   6.338  1.00  0.00     0.240 C 
HETATM    4  C   UNL     1      41.307 -12.731   6.022  1.00  0.00     0.083 C 
HETATM    5  C   UNL     1      42.746 -12.997   5.564  1.00  0.00     0.131 A 
HETATM    6  N   UNL     1      42.909 -14.472   5.545  1.00  0.00    -0.251 NA
HETATM    7  C   UNL     1      43.114 -14.817   4.301  1.00  0.00     0.132 A 
HETATM    8  C   UNL     1      43.154 -13.615   3.386  1.00  0.00     0.272 A 
HETATM    9  O   UNL     1      43.286 -13.595   2.188  1.00  0.00    -0.266 OA
HETATM   10  N   UNL     1      42.979 -12.557   4.225  1.00  0.00    -0.327 N 
HETATM   11  C   UNL     1      43.770 -12.422   6.549  1.00  0.00     0.083 C 
HETATM   12  C   UNL     1      43.497 -10.961   6.877  1.00  0.00     0.240 C 
HETATM   13  H   UNL     1      42.906 -11.621   3.842  1.00  0.00     0.165 HD
ENDROOT
BRANCH   1  14
HETATM   14  C   UNL     1      41.747  -9.407   7.931  1.00  0.00     0.337 C 
BRANCH  14  15
HETATM   15  C   UNL     1      42.950  -8.572   8.370  1.00  0.00     0.248 C 
HETATM   16  N   UNL     1      43.229  -8.329   9.680  1.00  0.00    -0.323 N 
HETATM   17  H   UNL     1      44.173  -7.964   9.785  1.00  0.00     0.169 HD
HETATM   18  O   UNL     1      43.774  -8.187   7.531  1.00  0.00    -0.271 OA
BRANCH  16  19
HETATM   19  C   UNL     1      42.506  -8.445  10.889  1.00  0.00     0.068 A 
HETATM   20  C   UNL     1      41.333  -7.752  11.244  1.00  0.00     0.097 A 
HETATM   21  C   UNL     1      40.762  -7.959  12.514  1.00  0.00     0.075 A 
HETATM   22  C   UNL     1      41.371  -8.800  13.446  1.00  0.00     0.070 A 
HETATM   23  C   UNL     1      42.532  -9.477  13.100  1.00  0.00     0.039 A 
HETATM   24  C   UNL     1      43.102  -9.289  11.841  1.00  0.00     0.035 A 
BRANCH  20  25
HETATM   25  O   UNL     1      40.822  -6.850  10.351  1.00  0.00    -0.354 OA
HETATM   26  C   UNL     1      39.656  -6.122  10.739  1.00  0.00     0.210 C 
ENDBRANCH  20  25
BRANCH  22  27
HETATM   27  O   UNL     1      40.898  -9.046  14.703  1.00  0.00    -0.356 OA
HETATM   28  C   UNL     1      41.284  -8.104  15.701  1.00  0.00     0.210 C 
ENDBRANCH  22  27
ENDBRANCH  16  19
ENDBRANCH  14  15
ENDBRANCH   1  14
BRANCH   7  29
HETATM   29  C   UNL     1      43.259 -16.217   3.858  1.00  0.00    -0.002 A 
HETATM   30  C   UNL     1      44.004 -17.094   4.663  1.00  0.00     0.016 A 
HETATM   31  C   UNL     1      44.155 -18.435   4.298  1.00  0.00     0.024 A 
HETATM   32  C   UNL     1      43.568 -18.902   3.125  1.00  0.00     0.034 A 
HETATM   33 CL   UNL     1      43.750 -20.552   2.676  1.00  0.00    -0.084 Cl
HETATM   34  C   UNL     1      42.835 -18.038   2.314  1.00  0.00     0.024 A 
HETATM   35  C   UNL     1      42.679 -16.695   2.679  1.00  0.00     0.016 A 
ENDBRANCH   7  29
TORSDOF 6
ENDMDL
MODEL 10
REMARK VINA RESULT:      -7.7     18.860     22.022
REMARK  6 active torsions:
REMARK  status: ('A' for Active; 'I' for Inactive)
REMARK    1  A    between atoms: O_2  and  C_3 
REMARK    2  A    between atoms: C_5  and  O_6 
REMARK    3  A    between atoms: C_8  and  N_9 
REMARK       I    between atoms: N_9  and  C_10 
REMARK    4  A    between atoms: C_10  and  C_11 
REMARK    5  A    between atoms: C_11  and  N_12 
REMARK    6  A    between atoms: C_18  and  C_19 
ROOT
HETATM    1  N   UNL     1      48.750 -29.855   2.152  1.00  0.00    -0.063 N 
HETATM    2  H   UNL     1      48.787 -28.929   2.597  1.00  0.00     0.280 HD
HETATM    3  C   UNL     1      48.201 -30.821   3.174  1.00  0.00     0.240 C 
HETATM    4  C   UNL     1      49.067 -30.776   4.416  1.00  0.00     0.083 C 
HETATM    5  C   UNL     1      50.539 -31.065   4.098  1.00  0.00     0.131 A 
HETATM    6  N   UNL     1      51.302 -30.734   5.327  1.00  0.00    -0.251 NA
HETATM    7  C   UNL     1      51.826 -31.848   5.764  1.00  0.00     0.132 A 
HETATM    8  C   UNL     1      51.507 -33.012   4.853  1.00  0.00     0.272 A 
HETATM    9  O   UNL     1      51.806 -34.171   4.993  1.00  0.00    -0.266 OA
HETATM   10  N   UNL     1      50.776 -32.452   3.849  1.00  0.00    -0.327 N 
HETATM   11  C   UNL     1      51.060 -30.176   2.964  1.00  0.00     0.083 C 
HETATM   12  C   UNL     1      50.156 -30.212   1.740  1.00  0.00     0.240 C 
HETATM   13  H   UNL     1      50.382 -33.044   3.126  1.00  0.00     0.165 HD
ENDROOT
BRANCH   1  14
HETATM   14  C   UNL     1      47.776 -29.660   0.956  1.00  0.00     0.337 C 
BRANCH  14  15
HETATM   15  C   UNL     1      46.822 -28.470   1.070  1.00  0.00     0.248 C 
HETATM   16  N   UNL     1      45.760 -28.304   0.236  1.00  0.00    -0.323 N 
HETATM   17  H   UNL     1      45.122 -27.602   0.601  1.00  0.00     0.169 HD
HETATM   18  O   UNL     1      46.935 -27.678   2.013  1.00  0.00    -0.271 OA
BRANCH  16  19
HETATM   19  C   UNL     1      45.374 -28.860  -1.006  1.00  0.00     0.068 A 
HETATM   20  C   UNL     1      44.823 -30.137  -1.228  1.00  0.00     0.097 A 
HETATM   21  C   UNL     1      44.533 -30.548  -2.542  1.00  0.00     0.075 A 
HETATM   22  C   UNL     1      44.834 -29.732  -3.633  1.00  0.00     0.070 A 
HETATM   23  C   UNL     1      45.384 -28.476  -3.416  1.00  0.00     0.039 A 
HETATM   24  C   UNL     1      45.667 -28.052  -2.117  1.00  0.00     0.035 A 
BRANCH  20  25
HETATM   25  O   UNL     1      44.645 -30.958  -0.148  1.00  0.00    -0.354 OA
HETATM   26  C   UNL     1      43.394 -30.889   0.537  1.00  0.00     0.210 C 
ENDBRANCH  20  25
BRANCH  22  27
HETATM   27  O   UNL     1      44.602 -30.056  -4.939  1.00  0.00    -0.356 OA
HETATM   28  C   UNL     1      45.465 -31.049  -5.488  1.00  0.00     0.210 C 
ENDBRANCH  22  27
ENDBRANCH  16  19
ENDBRANCH  14  15
ENDBRANCH   1  14
BRANCH   7  29
HETATM   29  C   UNL     1      52.609 -31.946   7.010  1.00  0.00    -0.002 A 
HETATM   30  C   UNL     1      53.873 -31.335   7.051  1.00  0.00     0.016 A 
HETATM   31  C   UNL     1      54.646 -31.382   8.214  1.00  0.00     0.024 A 
HETATM   32  C   UNL     1      54.162 -32.044   9.339  1.00  0.00     0.034 A 
HETATM   33 CL   UNL     1      55.109 -32.101  10.773  1.00  0.00    -0.084 Cl
HETATM   34  C   UNL     1      52.912 -32.662   9.307  1.00  0.00     0.024 A 
HETATM   35  C   UNL     1      52.135 -32.614   8.144  1.00  0.00     0.016 A 
ENDBRANCH   7  29
TORSDOF 6
ENDMDL
