MODEL 1
REMARK VINA RESULT:      -8.3      0.000      0.000
REMARK  9 active torsions:
REMARK  status: ('A' for Active; 'I' for Inactive)
REMARK    1  A    between atoms: C_2  and  N_3 
REMARK    2  A    between atoms: C_2  and  C_23 
REMARK       I    between atoms: N_3  and  C_4 
REMARK       I    between atoms: C_4  and  N_5 
REMARK    3  A    between atoms: N_5  and  C_6 
REMARK    4  A    between atoms: C_6  and  C_7 
REMARK    5  A    between atoms: C_7  and  N_8 
REMARK    6  A    between atoms: C_7  and  C_14 
REMARK    7  A    between atoms: C_15  and  O_16 
REMARK    8  A    between atoms: C_23  and  C_24 
REMARK    9  A    between atoms: C_27  and  O_28 
ROOT
HETATM    1  N   UNL     1      40.503 -12.352   1.776  1.00  0.00    -0.339 N 
HETATM    2  C   UNL     1      41.185 -13.532   1.670  1.00  0.00     0.316 C 
HETATM    3  N   UNL     1      42.455 -13.439   2.187  1.00  0.00    -0.341 N 
HETATM    4  O   UNL     1      40.784 -14.527   1.083  1.00  0.00    -0.248 OA
HETATM    5  H   UNL     1      40.703 -11.801   2.597  1.00  0.00     0.164 HD
HETATM    6  H   UNL     1      42.550 -12.734   2.906  1.00  0.00     0.164 HD
ENDROOT
BRANCH   3   7
HETATM    7  C   UNL     1      43.247 -14.647   2.377  1.00  0.00     0.162 C 
BRANCH   7   8
HETATM    8  C   UNL     1      43.123 -15.408   3.746  1.00  0.00     0.241 C 
BRANCH   8   9
HETATM    9  N   UNL     1      41.825 -15.082   4.524  1.00  0.00    -0.061 N 
HETATM   10  H   UNL     1      41.304 -14.477   3.878  1.00  0.00     0.280 HD
HETATM   11  C   UNL     1      41.939 -14.353   5.841  1.00  0.00     0.236 C 
HETATM   12  C   UNL     1      41.387 -15.316   6.870  1.00  0.00     0.029 C 
HETATM   13  C   UNL     1      40.289 -16.030   6.114  1.00  0.00     0.029 C 
HETATM   14  C   UNL     1      40.895 -16.264   4.742  1.00  0.00     0.236 C 
ENDBRANCH   8   9
BRANCH   8  15
HETATM   15  C   UNL     1      43.339 -16.914   3.525  1.00  0.00     0.007 A 
HETATM   16  C   UNL     1      43.949 -17.673   4.553  1.00  0.00     0.076 A 
HETATM   17  C   UNL     1      44.161 -19.046   4.389  1.00  0.00     0.037 A 
HETATM   18  C   UNL     1      43.785 -19.680   3.208  1.00  0.00     0.003 A 
HETATM   19  C   UNL     1      43.198 -18.948   2.183  1.00  0.00     0.001 A 
HETATM   20  C   UNL     1      42.980 -17.576   2.336  1.00  0.00     0.012 A 
BRANCH  16  21
HETATM   21  O   UNL     1      44.283 -16.981   5.687  1.00  0.00    -0.355 OA
HETATM   22  C   UNL     1      43.819 -17.502   6.931  1.00  0.00     0.210 C 
ENDBRANCH  16  21
ENDBRANCH   8  15
ENDBRANCH   7   8
ENDBRANCH   3   7
BRANCH   1  23
HETATM   23  C   UNL     1      39.158 -12.152   1.225  1.00  0.00     0.086 C 
HETATM   24  C   UNL     1      38.265 -11.405   2.218  1.00  0.00     0.032 C 
BRANCH  23  25
HETATM   25  C   UNL     1      39.132 -11.466  -0.158  1.00  0.00     0.063 C 
BRANCH  25  26
HETATM   26  C   UNL     1      38.867 -12.420  -1.301  1.00  0.00    -0.056 A 
HETATM   27  C   UNL     1      39.914 -13.133  -1.901  1.00  0.00     0.010 A 
HETATM   28  C   UNL     1      39.660 -14.002  -2.964  1.00  0.00     0.037 A 
HETATM   29  C   UNL     1      38.357 -14.158  -3.425  1.00  0.00     0.065 A 
HETATM   30  C   UNL     1      37.307 -13.461  -2.841  1.00  0.00     0.037 A 
HETATM   31  C   UNL     1      37.560 -12.595  -1.779  1.00  0.00     0.010 A 
BRANCH  29  32
HETATM   32  O   UNL     1      38.062 -14.995  -4.459  1.00  0.00    -0.361 OA
HETATM   33  H   UNL     1      38.283 -15.905  -4.198  1.00  0.00     0.217 HD
ENDBRANCH  29  32
ENDBRANCH  25  26
ENDBRANCH  23  25
ENDBRANCH   1  23
TORSDOF 9
ENDMDL
MODEL 2
REMARK VINA RESULT:      -7.9      2.026      8.401
REMARK  9 active torsions:
REMARK  status: ('A' for Active; 'I' for Inactive)
REMARK    1  A    between atoms: C_2  and  N_3 
REMARK    2  A    between atoms: C_2  and  C_23 
REMARK       I    between atoms: N_3  and  C_4 
REMARK       I    between atoms: C_4  and  N_5 
REMARK    3  A    between atoms: N_5  and  C_6 
REMARK    4  A    between atoms: C_6  and  C_7 
REMARK    5  A    between atoms: C_7  and  N_8 
REMARK    6  A    between atoms: C_7  and  C_14 
REMARK    7  A    between atoms: C_15  and  O_16 
REMARK    8  A    between atoms: C_23  and  C_24 
REMARK    9  A    between atoms: C_27  and  O_28 
ROOT
HETATM    1  N   UNL     1      40.929 -15.145   3.043  1.00  0.00    -0.339 N 
HETATM    2  C   UNL     1      40.571 -13.861   2.741  1.00  0.00     0.316 C 
HETATM    3  N   UNL     1      39.740 -13.804   1.648  1.00  0.00    -0.341 N 
HETATM    4  O   UNL     1      41.017 -12.860   3.282  1.00  0.00    -0.248 OA
HETATM    5  H   UNL     1      40.226 -15.849   2.872  1.00  0.00     0.164 HD
HETATM    6  H   UNL     1      39.196 -14.644   1.506  1.00  0.00     0.164 HD
ENDROOT
BRANCH   3   7
HETATM    7  C   UNL     1      39.068 -12.554   1.316  1.00  0.00     0.162 C 
BRANCH   7   8
HETATM    8  C   UNL     1      39.341 -11.916  -0.093  1.00  0.00     0.241 C 
BRANCH   8   9
HETATM    9  N   UNL     1      40.787 -11.386  -0.267  1.00  0.00    -0.061 N 
HETATM   10  H   UNL     1      41.356 -12.241  -0.267  1.00  0.00     0.280 HD
HETATM   11  C   UNL     1      41.347 -10.464   0.787  1.00  0.00     0.236 C 
HETATM   12  C   UNL     1      41.615  -9.161   0.064  1.00  0.00     0.029 C 
HETATM   13  C   UNL     1      42.035  -9.618  -1.316  1.00  0.00     0.029 C 
HETATM   14  C   UNL     1      41.079 -10.757  -1.619  1.00  0.00     0.236 C 
ENDBRANCH   8   9
BRANCH   8  15
HETATM   15  C   UNL     1      38.914 -12.894  -1.199  1.00  0.00     0.007 A 
HETATM   16  C   UNL     1      37.747 -12.608  -1.948  1.00  0.00     0.076 A 
HETATM   17  C   UNL     1      37.326 -13.473  -2.963  1.00  0.00     0.037 A 
HETATM   18  C   UNL     1      38.044 -14.634  -3.241  1.00  0.00     0.003 A 
HETATM   19  C   UNL     1      39.183 -14.938  -2.506  1.00  0.00     0.001 A 
HETATM   20  C   UNL     1      39.614 -14.079  -1.491  1.00  0.00     0.012 A 
BRANCH  16  21
HETATM   21  O   UNL     1      37.100 -11.445  -1.622  1.00  0.00    -0.355 OA
HETATM   22  C   UNL     1      36.908 -10.490  -2.664  1.00  0.00     0.210 C 
ENDBRANCH  16  21
ENDBRANCH   8  15
ENDBRANCH   7   8
ENDBRANCH   3   7
BRANCH   1  23
HETATM   23  C   UNL     1      41.877 -15.483   4.110  1.00  0.00     0.086 C 
HETATM   24  C   UNL     1      41.303 -16.559   5.033  1.00  0.00     0.032 C 
BRANCH  23  25
HETATM   25  C   UNL     1      43.283 -15.882   3.610  1.00  0.00     0.063 C 
BRANCH  25  26
HETATM   26  C   UNL     1      43.478 -17.376   3.484  1.00  0.00    -0.056 A 
HETATM   27  C   UNL     1      43.022 -18.068   2.353  1.00  0.00     0.010 A 
HETATM   28  C   UNL     1      43.197 -19.451   2.253  1.00  0.00     0.037 A 
HETATM   29  C   UNL     1      43.827 -20.139   3.284  1.00  0.00     0.065 A 
HETATM   30  C   UNL     1      44.285 -19.468   4.411  1.00  0.00     0.037 A 
HETATM   31  C   UNL     1      44.114 -18.089   4.510  1.00  0.00     0.010 A 
BRANCH  29  32
HETATM   32  O   UNL     1      44.018 -21.487   3.229  1.00  0.00    -0.361 OA
HETATM   33  H   UNL     1      44.140 -21.823   4.132  1.00  0.00     0.217 HD
ENDBRANCH  29  32
ENDBRANCH  25  26
ENDBRANCH  23  25
ENDBRANCH   1  23
TORSDOF 9
ENDMDL
MODEL 3
REMARK VINA RESULT:      -7.9      5.256      9.454
REMARK  9 active torsions:
REMARK  status: ('A' for Active; 'I' for Inactive)
REMARK    1  A    between atoms: C_2  and  N_3 
REMARK    2  A    between atoms: C_2  and  C_23 
REMARK       I    between atoms: N_3  and  C_4 
REMARK       I    between atoms: C_4  and  N_5 
REMARK    3  A    between atoms: N_5  and  C_6 
REMARK    4  A    between atoms: C_6  and  C_7 
REMARK    5  A    between atoms: C_7  and  N_8 
REMARK    6  A    between atoms: C_7  and  C_14 
REMARK    7  A    between atoms: C_15  and  O_16 
REMARK    8  A    between atoms: C_23  and  C_24 
REMARK    9  A    between atoms: C_27  and  O_28 
ROOT
HETATM    1  N   UNL     1      43.394 -11.173   8.098  1.00  0.00    -0.339 N 
HETATM    2  C   UNL     1      43.964 -12.107   7.280  1.00  0.00     0.316 C 
HETATM    3  N   UNL     1      43.159 -13.209   7.121  1.00  0.00    -0.341 N 
HETATM    4  O   UNL     1      45.100 -12.051   6.833  1.00  0.00    -0.248 OA
HETATM    5  H   UNL     1      42.389 -11.093   8.041  1.00  0.00     0.164 HD
HETATM    6  H   UNL     1      42.174 -13.014   7.239  1.00  0.00     0.164 HD
ENDROOT
BRANCH   3   7
HETATM    7  C   UNL     1      43.487 -14.203   6.107  1.00  0.00     0.162 C 
BRANCH   7   8
HETATM    8  C   UNL     1      42.420 -14.512   4.996  1.00  0.00     0.241 C 
BRANCH   8   9
HETATM    9  N   UNL     1      42.193 -13.341   4.008  1.00  0.00    -0.061 N 
HETATM   10  H   UNL     1      41.694 -13.781   3.226  1.00  0.00     0.280 HD
HETATM   11  C   UNL     1      43.399 -12.634   3.441  1.00  0.00     0.236 C 
HETATM   12  C   UNL     1      43.287 -11.209   3.939  1.00  0.00     0.029 C 
HETATM   13  C   UNL     1      41.793 -10.969   3.953  1.00  0.00     0.029 C 
HETATM   14  C   UNL     1      41.230 -12.270   4.496  1.00  0.00     0.236 C 
ENDBRANCH   8   9
BRANCH   8  15
HETATM   15  C   UNL     1      42.762 -15.839   4.300  1.00  0.00     0.007 A 
HETATM   16  C   UNL     1      41.973 -16.255   3.201  1.00  0.00     0.076 A 
HETATM   17  C   UNL     1      42.254 -17.456   2.541  1.00  0.00     0.037 A 
HETATM   18  C   UNL     1      43.307 -18.262   2.965  1.00  0.00     0.003 A 
HETATM   19  C   UNL     1      44.083 -17.876   4.051  1.00  0.00     0.001 A 
HETATM   20  C   UNL     1      43.812 -16.678   4.717  1.00  0.00     0.012 A 
BRANCH  16  21
HETATM   21  O   UNL     1      40.962 -15.405   2.837  1.00  0.00    -0.355 OA
HETATM   22  C   UNL     1      40.600 -15.373   1.458  1.00  0.00     0.210 C 
ENDBRANCH  16  21
ENDBRANCH   8  15
ENDBRANCH   7   8
ENDBRANCH   3   7
BRANCH   1  23
HETATM   23  C   UNL     1      44.077  -9.940   8.505  1.00  0.00     0.086 C 
HETATM   24  C   UNL     1      43.107  -8.757   8.525  1.00  0.00     0.032 C 
BRANCH  23  25
HETATM   25  C   UNL     1      44.839 -10.046   9.844  1.00  0.00     0.063 C 
BRANCH  25  26
HETATM   26  C   UNL     1      43.990  -9.717  11.051  1.00  0.00    -0.056 A 
HETATM   27  C   UNL     1      43.985  -8.426  11.596  1.00  0.00     0.010 A 
HETATM   28  C   UNL     1      43.206  -8.135  12.719  1.00  0.00     0.037 A 
HETATM   29  C   UNL     1      42.433  -9.138  13.295  1.00  0.00     0.065 A 
HETATM   30  C   UNL     1      42.425 -10.422  12.767  1.00  0.00     0.037 A 
HETATM   31  C   UNL     1      43.200 -10.712  11.645  1.00  0.00     0.010 A 
BRANCH  29  32
HETATM   32  O   UNL     1      41.659  -8.900  14.390  1.00  0.00    -0.361 OA
HETATM   33  H   UNL     1      41.545  -9.731  14.880  1.00  0.00     0.217 HD
ENDBRANCH  29  32
ENDBRANCH  25  26
ENDBRANCH  23  25
ENDBRANCH   1  23
TORSDOF 9
ENDMDL
MODEL 4
REMARK VINA RESULT:      -7.8      5.555      9.538
REMARK  9 active torsions:
REMARK  status: ('A' for Active; 'I' for Inactive)
REMARK    1  A    between atoms: C_2  and  N_3 
REMARK    2  A    between atoms: C_2  and  C_23 
REMARK       I    between atoms: N_3  and  C_4 
REMARK       I    between atoms: C_4  and  N_5 
REMARK    3  A    between atoms: N_5  and  C_6 
REMARK    4  A    between atoms: C_6  and  C_7 
REMARK    5  A    between atoms: C_7  and  N_8 
REMARK    6  A    between atoms: C_7  and  C_14 
REMARK    7  A    between atoms: C_15  and  O_16 
REMARK    8  A    between atoms: C_23  and  C_24 
REMARK    9  A    between atoms: C_27  and  O_28 
ROOT
HETATM    1  N   UNL     1      43.635 -11.076   8.651  1.00  0.00    -0.339 N 
HETATM    2  C   UNL     1      43.947 -11.554   7.410  1.00  0.00     0.316 C 
HETATM    3  N   UNL     1      43.541 -12.857   7.245  1.00  0.00    -0.341 N 
HETATM    4  O   UNL     1      44.612 -10.961   6.573  1.00  0.00    -0.248 OA
HETATM    5  H   UNL     1      42.774 -11.418   9.051  1.00  0.00     0.164 HD
HETATM    6  H   UNL     1      42.752 -13.113   7.824  1.00  0.00     0.164 HD
ENDROOT
BRANCH   3   7
HETATM    7  C   UNL     1      43.574 -13.462   5.920  1.00  0.00     0.162 C 
BRANCH   7   8
HETATM    8  C   UNL     1      42.291 -14.215   5.415  1.00  0.00     0.241 C 
BRANCH   8   9
HETATM    9  N   UNL     1      41.120 -13.270   5.047  1.00  0.00    -0.061 N 
HETATM   10  H   UNL     1      40.697 -13.721   4.227  1.00  0.00     0.280 HD
HETATM   11  C   UNL     1      41.436 -11.844   4.673  1.00  0.00     0.236 C 
HETATM   12  C   UNL     1      40.756 -11.001   5.730  1.00  0.00     0.029 C 
HETATM   13  C   UNL     1      39.504 -11.791   6.042  1.00  0.00     0.029 C 
HETATM   14  C   UNL     1      39.988 -13.230   6.061  1.00  0.00     0.236 C 
ENDBRANCH   8   9
BRANCH   8  15
HETATM   15  C   UNL     1      42.668 -15.186   4.285  1.00  0.00     0.007 A 
HETATM   16  C   UNL     1      42.787 -16.565   4.583  1.00  0.00     0.076 A 
HETATM   17  C   UNL     1      43.128 -17.480   3.582  1.00  0.00     0.037 A 
HETATM   18  C   UNL     1      43.366 -17.043   2.281  1.00  0.00     0.003 A 
HETATM   19  C   UNL     1      43.268 -15.691   1.974  1.00  0.00     0.001 A 
HETATM   20  C   UNL     1      42.926 -14.769   2.966  1.00  0.00     0.012 A 
BRANCH  16  21
HETATM   21  O   UNL     1      42.530 -16.918   5.882  1.00  0.00    -0.355 OA
HETATM   22  C   UNL     1      43.368 -17.915   6.466  1.00  0.00     0.210 C 
ENDBRANCH  16  21
ENDBRANCH   8  15
ENDBRANCH   7   8
ENDBRANCH   3   7
BRANCH   1  23
HETATM   23  C   UNL     1      44.032  -9.743   9.119  1.00  0.00     0.086 C 
HETATM   24  C   UNL     1      42.852  -8.770   9.065  1.00  0.00     0.032 C 
BRANCH  23  25
HETATM   25  C   UNL     1      44.691  -9.728  10.516  1.00  0.00     0.063 C 
BRANCH  25  26
HETATM   26  C   UNL     1      43.720  -9.443  11.639  1.00  0.00    -0.056 A 
HETATM   27  C   UNL     1      43.699  -8.191  12.270  1.00  0.00     0.010 A 
HETATM   28  C   UNL     1      42.806  -7.942  13.316  1.00  0.00     0.037 A 
HETATM   29  C   UNL     1      41.936  -8.946  13.728  1.00  0.00     0.065 A 
HETATM   30  C   UNL     1      41.943 -10.191  13.113  1.00  0.00     0.037 A 
HETATM   31  C   UNL     1      42.832 -10.439  12.068  1.00  0.00     0.010 A 
BRANCH  29  32
HETATM   32  O   UNL     1      41.049  -8.747  14.743  1.00  0.00    -0.361 OA
HETATM   33  H   UNL     1      41.016  -7.797  14.948  1.00  0.00     0.217 HD
ENDBRANCH  29  32
ENDBRANCH  25  26
ENDBRANCH  23  25
ENDBRANCH   1  23
TORSDOF 9
ENDMDL
MODEL 5
REMARK VINA RESULT:      -7.8      3.991      8.112
REMARK  9 active torsions:
REMARK  status: ('A' for Active; 'I' for Inactive)
REMARK    1  A    between atoms: C_2  and  N_3 
REMARK    2  A    between atoms: C_2  and  C_23 
REMARK       I    between atoms: N_3  and  C_4 
REMARK       I    between atoms: C_4  and  N_5 
REMARK    3  A    between atoms: N_5  and  C_6 
REMARK    4  A    between atoms: C_6  and  C_7 
REMARK    5  A    between atoms: C_7  and  N_8 
REMARK    6  A    between atoms: C_7  and  C_14 
REMARK    7  A    between atoms: C_15  and  O_16 
REMARK    8  A    between atoms: C_23  and  C_24 
REMARK    9  A    between atoms: C_27  and  O_28 
ROOT
HETATM    1  N   UNL     1      42.432 -14.587   3.140  1.00  0.00    -0.339 N 
HETATM    2  C   UNL     1      42.611 -14.244   4.451  1.00  0.00     0.316 C 
HETATM    3  N   UNL     1      43.110 -12.971   4.583  1.00  0.00    -0.341 N 
HETATM    4  O   UNL     1      42.471 -15.000   5.401  1.00  0.00    -0.248 OA
HETATM    5  H   UNL     1      42.149 -13.839   2.524  1.00  0.00     0.164 HD
HETATM    6  H   UNL     1      42.875 -12.359   3.814  1.00  0.00     0.164 HD
ENDROOT
BRANCH   3   7
HETATM    7  C   UNL     1      43.149 -12.344   5.899  1.00  0.00     0.162 C 
BRANCH   7   8
HETATM    8  C   UNL     1      42.644 -10.862   6.030  1.00  0.00     0.241 C 
BRANCH   8   9
HETATM    9  N   UNL     1      41.108 -10.713   5.894  1.00  0.00    -0.061 N 
HETATM   10  H   UNL     1      40.898  -9.880   6.456  1.00  0.00     0.280 HD
HETATM   11  C   UNL     1      40.230 -11.834   6.392  1.00  0.00     0.236 C 
HETATM   12  C   UNL     1      39.507 -12.340   5.162  1.00  0.00     0.029 C 
HETATM   13  C   UNL     1      39.307 -11.084   4.343  1.00  0.00     0.029 C 
HETATM   14  C   UNL     1      40.622 -10.344   4.502  1.00  0.00     0.236 C 
ENDBRANCH   8   9
BRANCH   8  15
HETATM   15  C   UNL     1      43.205 -10.234   7.315  1.00  0.00     0.007 A 
HETATM   16  C   UNL     1      42.929  -8.871   7.584  1.00  0.00     0.076 A 
HETATM   17  C   UNL     1      43.422  -8.264   8.744  1.00  0.00     0.037 A 
HETATM   18  C   UNL     1      44.200  -8.990   9.642  1.00  0.00     0.003 A 
HETATM   19  C   UNL     1      44.493 -10.323   9.387  1.00  0.00     0.001 A 
HETATM   20  C   UNL     1      44.005 -10.941   8.233  1.00  0.00     0.012 A 
BRANCH  16  21
HETATM   21  O   UNL     1      42.151  -8.227   6.659  1.00  0.00    -0.355 OA
HETATM   22  C   UNL     1      41.620  -6.954   7.025  1.00  0.00     0.210 C 
ENDBRANCH  16  21
ENDBRANCH   8  15
ENDBRANCH   7   8
ENDBRANCH   3   7
BRANCH   1  23
HETATM   23  C   UNL     1      41.993 -15.921   2.713  1.00  0.00     0.086 C 
HETATM   24  C   UNL     1      40.745 -15.830   1.832  1.00  0.00     0.032 C 
BRANCH  23  25
HETATM   25  C   UNL     1      43.089 -16.763   2.026  1.00  0.00     0.063 C 
BRANCH  25  26
HETATM   26  C   UNL     1      43.417 -18.043   2.762  1.00  0.00    -0.056 A 
HETATM   27  C   UNL     1      43.280 -19.289   2.133  1.00  0.00     0.010 A 
HETATM   28  C   UNL     1      43.574 -20.466   2.826  1.00  0.00     0.037 A 
HETATM   29  C   UNL     1      44.005 -20.395   4.147  1.00  0.00     0.065 A 
HETATM   30  C   UNL     1      44.147 -19.169   4.784  1.00  0.00     0.037 A 
HETATM   31  C   UNL     1      43.856 -17.994   4.092  1.00  0.00     0.010 A 
BRANCH  29  32
HETATM   32  O   UNL     1      44.303 -21.517   4.860  1.00  0.00    -0.361 OA
HETATM   33  H   UNL     1      44.758 -21.256   5.678  1.00  0.00     0.217 HD
ENDBRANCH  29  32
ENDBRANCH  25  26
ENDBRANCH  23  25
ENDBRANCH   1  23
TORSDOF 9
ENDMDL
MODEL 6
REMARK VINA RESULT:      -7.8      4.939      8.722
REMARK  9 active torsions:
REMARK  status: ('A' for Active; 'I' for Inactive)
REMARK    1  A    between atoms: C_2  and  N_3 
REMARK    2  A    between atoms: C_2  and  C_23 
REMARK       I    between atoms: N_3  and  C_4 
REMARK       I    between atoms: C_4  and  N_5 
REMARK    3  A    between atoms: N_5  and  C_6 
REMARK    4  A    between atoms: C_6  and  C_7 
REMARK    5  A    between atoms: C_7  and  N_8 
REMARK    6  A    between atoms: C_7  and  C_14 
REMARK    7  A    between atoms: C_15  and  O_16 
REMARK    8  A    between atoms: C_23  and  C_24 
REMARK    9  A    between atoms: C_27  and  O_28 
ROOT
HETATM    1  N   UNL     1      42.570 -14.166   4.679  1.00  0.00    -0.339 N 
HETATM    2  C   UNL     1      43.230 -13.632   5.750  1.00  0.00     0.316 C 
HETATM    3  N   UNL     1      43.308 -12.262   5.673  1.00  0.00    -0.341 N 
HETATM    4  O   UNL     1      43.797 -14.277   6.620  1.00  0.00    -0.248 OA
HETATM    5  H   UNL     1      41.814 -13.611   4.306  1.00  0.00     0.164 HD
HETATM    6  H   UNL     1      42.561 -11.842   5.138  1.00  0.00     0.164 HD
ENDROOT
BRANCH   3   7
HETATM    7  C   UNL     1      43.765 -11.500   6.828  1.00  0.00     0.162 C 
BRANCH   7   8
HETATM    8  C   UNL     1      43.056 -10.134   7.143  1.00  0.00     0.241 C 
BRANCH   8   9
HETATM    9  N   UNL     1      41.551 -10.114   6.775  1.00  0.00    -0.061 N 
HETATM   10  H   UNL     1      41.328 -11.106   6.628  1.00  0.00     0.280 HD
HETATM   11  C   UNL     1      41.122  -9.361   5.541  1.00  0.00     0.236 C 
HETATM   12  C   UNL     1      40.213  -8.263   6.048  1.00  0.00     0.029 C 
HETATM   13  C   UNL     1      39.515  -8.914   7.222  1.00  0.00     0.029 C 
HETATM   14  C   UNL     1      40.622  -9.697   7.904  1.00  0.00     0.236 C 
ENDBRANCH   8   9
BRANCH   8  15
HETATM   15  C   UNL     1      43.332  -9.728   8.599  1.00  0.00     0.007 A 
HETATM   16  C   UNL     1      43.355  -8.351   8.931  1.00  0.00     0.076 A 
HETATM   17  C   UNL     1      43.602  -7.943  10.246  1.00  0.00     0.037 A 
HETATM   18  C   UNL     1      43.840  -8.885  11.242  1.00  0.00     0.003 A 
HETATM   19  C   UNL     1      43.836 -10.240  10.932  1.00  0.00     0.001 A 
HETATM   20  C   UNL     1      43.588 -10.660   9.623  1.00  0.00     0.012 A 
BRANCH  16  21
HETATM   21  O   UNL     1      43.103  -7.486   7.899  1.00  0.00    -0.355 OA
HETATM   22  C   UNL     1      42.344  -6.316   8.198  1.00  0.00     0.210 C 
ENDBRANCH  16  21
ENDBRANCH   8  15
ENDBRANCH   7   8
ENDBRANCH   3   7
BRANCH   1  23
HETATM   23  C   UNL     1      42.422 -15.610   4.468  1.00  0.00     0.086 C 
HETATM   24  C   UNL     1      40.945 -16.007   4.418  1.00  0.00     0.032 C 
BRANCH  23  25
HETATM   25  C   UNL     1      43.178 -16.156   3.237  1.00  0.00     0.063 C 
BRANCH  25  26
HETATM   26  C   UNL     1      43.432 -17.645   3.295  1.00  0.00    -0.056 A 
HETATM   27  C   UNL     1      43.062 -18.480   2.232  1.00  0.00     0.010 A 
HETATM   28  C   UNL     1      43.290 -19.857   2.301  1.00  0.00     0.037 A 
HETATM   29  C   UNL     1      43.889 -20.396   3.435  1.00  0.00     0.065 A 
HETATM   30  C   UNL     1      44.264 -19.583   4.497  1.00  0.00     0.037 A 
HETATM   31  C   UNL     1      44.039 -18.209   4.427  1.00  0.00     0.010 A 
BRANCH  29  32
HETATM   32  O   UNL     1      44.132 -21.732   3.546  1.00  0.00    -0.361 OA
HETATM   33  H   UNL     1      43.601 -22.202   2.880  1.00  0.00     0.217 HD
ENDBRANCH  29  32
ENDBRANCH  25  26
ENDBRANCH  23  25
ENDBRANCH   1  23
TORSDOF 9
ENDMDL
MODEL 7
REMARK VINA RESULT:      -7.7      2.537      7.980
REMARK  9 active torsions:
REMARK  status: ('A' for Active; 'I' for Inactive)
REMARK    1  A    between atoms: C_2  and  N_3 
REMARK    2  A    between atoms: C_2  and  C_23 
REMARK       I    between atoms: N_3  and  C_4 
REMARK       I    between atoms: C_4  and  N_5 
REMARK    3  A    between atoms: N_5  and  C_6 
REMARK    4  A    between atoms: C_6  and  C_7 
REMARK    5  A    between atoms: C_7  and  N_8 
REMARK    6  A    between atoms: C_7  and  C_14 
REMARK    7  A    between atoms: C_15  and  O_16 
REMARK    8  A    between atoms: C_23  and  C_24 
REMARK    9  A    between atoms: C_27  and  O_28 
ROOT
HETATM    1  N   UNL     1      43.001 -17.188   1.937  1.00  0.00    -0.339 N 
HETATM    2  C   UNL     1      41.987 -16.284   2.090  1.00  0.00     0.316 C 
HETATM    3  N   UNL     1      42.114 -15.221   1.227  1.00  0.00    -0.341 N 
HETATM    4  O   UNL     1      41.130 -16.328   2.960  1.00  0.00    -0.248 OA
HETATM    5  H   UNL     1      43.348 -17.305   0.997  1.00  0.00     0.164 HD
HETATM    6  H   UNL     1      42.619 -15.443   0.380  1.00  0.00     0.164 HD
ENDROOT
BRANCH   3   7
HETATM    7  C   UNL     1      41.013 -14.279   1.078  1.00  0.00     0.162 C 
BRANCH   7   8
HETATM    8  C   UNL     1      41.186 -12.835   1.673  1.00  0.00     0.241 C 
BRANCH   8   9
HETATM    9  N   UNL     1      40.363 -11.753   0.930  1.00  0.00    -0.061 N 
HETATM   10  H   UNL     1      40.074 -11.115   1.681  1.00  0.00     0.280 HD
HETATM   11  C   UNL     1      39.120 -12.177   0.188  1.00  0.00     0.236 C 
HETATM   12  C   UNL     1      39.400 -11.849  -1.263  1.00  0.00     0.029 C 
HETATM   13  C   UNL     1      40.236 -10.592  -1.173  1.00  0.00     0.029 C 
HETATM   14  C   UNL     1      41.169 -10.869  -0.008  1.00  0.00     0.236 C 
ENDBRANCH   8   9
BRANCH   8  15
HETATM   15  C   UNL     1      40.928 -12.863   3.188  1.00  0.00     0.007 A 
HETATM   16  C   UNL     1      42.036 -12.944   4.066  1.00  0.00     0.076 A 
HETATM   17  C   UNL     1      41.842 -12.971   5.451  1.00  0.00     0.037 A 
HETATM   18  C   UNL     1      40.556 -12.929   5.983  1.00  0.00     0.003 A 
HETATM   19  C   UNL     1      39.457 -12.864   5.135  1.00  0.00     0.001 A 
HETATM   20  C   UNL     1      39.638 -12.835   3.750  1.00  0.00     0.012 A 
BRANCH  16  21
HETATM   21  O   UNL     1      43.269 -12.973   3.469  1.00  0.00    -0.355 OA
HETATM   22  C   UNL     1      44.079 -11.804   3.586  1.00  0.00     0.210 C 
ENDBRANCH  16  21
ENDBRANCH   8  15
ENDBRANCH   7   8
ENDBRANCH   3   7
BRANCH   1  23
HETATM   23  C   UNL     1      43.155 -18.371   2.791  1.00  0.00     0.086 C 
HETATM   24  C   UNL     1      43.171 -19.652   1.955  1.00  0.00     0.032 C 
BRANCH  23  25
HETATM   25  C   UNL     1      44.374 -18.319   3.738  1.00  0.00     0.063 C 
BRANCH  25  26
HETATM   26  C   UNL     1      44.075 -17.677   5.074  1.00  0.00    -0.056 A 
HETATM   27  C   UNL     1      43.621 -18.445   6.155  1.00  0.00     0.010 A 
HETATM   28  C   UNL     1      43.336 -17.840   7.382  1.00  0.00     0.037 A 
HETATM   29  C   UNL     1      43.505 -16.467   7.524  1.00  0.00     0.065 A 
HETATM   30  C   UNL     1      43.955 -15.691   6.463  1.00  0.00     0.037 A 
HETATM   31  C   UNL     1      44.242 -16.295   5.241  1.00  0.00     0.010 A 
BRANCH  29  32
HETATM   32  O   UNL     1      43.239 -15.835   8.702  1.00  0.00    -0.361 OA
HETATM   33  H   UNL     1      44.011 -15.299   8.951  1.00  0.00     0.217 HD
ENDBRANCH  29  32
ENDBRANCH  25  26
ENDBRANCH  23  25
ENDBRANCH   1  23
TORSDOF 9
ENDMDL
MODEL 8
REMARK VINA RESULT:      -7.6     14.999     18.184
REMARK  9 active torsions:
REMARK  status: ('A' for Active; 'I' for Inactive)
REMARK    1  A    between atoms: C_2  and  N_3 
REMARK    2  A    between atoms: C_2  and  C_23 
REMARK       I    between atoms: N_3  and  C_4 
REMARK       I    between atoms: C_4  and  N_5 
REMARK    3  A    between atoms: N_5  and  C_6 
REMARK    4  A    between atoms: C_6  and  C_7 
REMARK    5  A    between atoms: C_7  and  N_8 
REMARK    6  A    between atoms: C_7  and  C_14 
REMARK    7  A    between atoms: C_15  and  O_16 
REMARK    8  A    between atoms: C_23  and  C_24 
REMARK    9  A    between atoms: C_27  and  O_28 
ROOT
HETATM    1  N   UNL     1      48.702 -30.408   2.064  1.00  0.00    -0.339 N 
HETATM    2  C   UNL     1      47.774 -29.855   1.226  1.00  0.00     0.316 C 
HETATM    3  N   UNL     1      46.492 -30.051   1.681  1.00  0.00    -0.341 N 
HETATM    4  O   UNL     1      48.018 -29.353   0.139  1.00  0.00    -0.248 OA
HETATM    5  H   UNL     1      48.477 -30.381   3.048  1.00  0.00     0.164 HD
HETATM    6  H   UNL     1      46.428 -30.160   2.684  1.00  0.00     0.164 HD
ENDROOT
BRANCH   3   7
HETATM    7  C   UNL     1      45.386 -29.339   1.052  1.00  0.00     0.162 C 
BRANCH   7   8
HETATM    8  C   UNL     1      44.466 -30.131   0.055  1.00  0.00     0.241 C 
BRANCH   8   9
HETATM    9  N   UNL     1      42.990 -30.229   0.515  1.00  0.00    -0.061 N 
HETATM   10  H   UNL     1      42.462 -30.195  -0.365  1.00  0.00     0.280 HD
HETATM   11  C   UNL     1      42.444 -29.149   1.416  1.00  0.00     0.236 C 
HETATM   12  C   UNL     1      42.077 -29.860   2.701  1.00  0.00     0.029 C 
HETATM   13  C   UNL     1      41.605 -31.214   2.217  1.00  0.00     0.029 C 
HETATM   14  C   UNL     1      42.596 -31.565   1.123  1.00  0.00     0.236 C 
ENDBRANCH   8   9
BRANCH   8  15
HETATM   15  C   UNL     1      44.625 -29.562  -1.364  1.00  0.00     0.007 A 
HETATM   16  C   UNL     1      44.287 -30.381  -2.468  1.00  0.00     0.076 A 
HETATM   17  C   UNL     1      44.418 -29.899  -3.775  1.00  0.00     0.037 A 
HETATM   18  C   UNL     1      44.894 -28.610  -4.005  1.00  0.00     0.003 A 
HETATM   19  C   UNL     1      45.244 -27.798  -2.933  1.00  0.00     0.001 A 
HETATM   20  C   UNL     1      45.115 -28.269  -1.624  1.00  0.00     0.012 A 
BRANCH  16  21
HETATM   21  O   UNL     1      43.819 -31.632  -2.162  1.00  0.00    -0.355 OA
HETATM   22  C   UNL     1      44.070 -32.672  -3.105  1.00  0.00     0.210 C 
ENDBRANCH  16  21
ENDBRANCH   8  15
ENDBRANCH   7   8
ENDBRANCH   3   7
BRANCH   1  23
HETATM   23  C   UNL     1      50.139 -30.419   1.772  1.00  0.00     0.086 C 
HETATM   24  C   UNL     1      50.948 -29.949   2.982  1.00  0.00     0.032 C 
BRANCH  23  25
HETATM   25  C   UNL     1      50.672 -31.770   1.247  1.00  0.00     0.063 C 
BRANCH  25  26
HETATM   26  C   UNL     1      51.344 -31.670  -0.104  1.00  0.00    -0.056 A 
HETATM   27  C   UNL     1      52.438 -32.487  -0.425  1.00  0.00     0.010 A 
HETATM   28  C   UNL     1      53.059 -32.379  -1.672  1.00  0.00     0.037 A 
HETATM   29  C   UNL     1      52.586 -31.453  -2.595  1.00  0.00     0.065 A 
HETATM   30  C   UNL     1      51.503 -30.637  -2.294  1.00  0.00     0.037 A 
HETATM   31  C   UNL     1      50.881 -30.747  -1.052  1.00  0.00     0.010 A 
BRANCH  29  32
HETATM   32  O   UNL     1      53.161 -31.313  -3.823  1.00  0.00    -0.361 OA
HETATM   33  H   UNL     1      53.776 -30.561  -3.796  1.00  0.00     0.217 HD
ENDBRANCH  29  32
ENDBRANCH  25  26
ENDBRANCH  23  25
ENDBRANCH   1  23
TORSDOF 9
ENDMDL
MODEL 9
REMARK VINA RESULT:      -7.6      2.194      8.915
REMARK  9 active torsions:
REMARK  status: ('A' for Active; 'I' for Inactive)
REMARK    1  A    between atoms: C_2  and  N_3 
REMARK    2  A    between atoms: C_2  and  C_23 
REMARK       I    between atoms: N_3  and  C_4 
REMARK       I    between atoms: C_4  and  N_5 
REMARK    3  A    between atoms: N_5  and  C_6 
REMARK    4  A    between atoms: C_6  and  C_7 
REMARK    5  A    between atoms: C_7  and  N_8 
REMARK    6  A    between atoms: C_7  and  C_14 
REMARK    7  A    between atoms: C_15  and  O_16 
REMARK    8  A    between atoms: C_23  and  C_24 
REMARK    9  A    between atoms: C_27  and  O_28 
ROOT
HETATM    1  N   UNL     1      40.794 -15.303   3.580  1.00  0.00    -0.339 N 
HETATM    2  C   UNL     1      40.538 -14.046   3.109  1.00  0.00     0.316 C 
HETATM    3  N   UNL     1      39.370 -13.996   2.387  1.00  0.00    -0.341 N 
HETATM    4  O   UNL     1      41.298 -13.093   3.199  1.00  0.00    -0.248 OA
HETATM    5  H   UNL     1      39.985 -15.848   3.840  1.00  0.00     0.164 HD
HETATM    6  H   UNL     1      38.697 -14.703   2.652  1.00  0.00     0.164 HD
ENDROOT
BRANCH   3   7
HETATM    7  C   UNL     1      38.812 -12.705   2.005  1.00  0.00     0.162 C 
BRANCH   7   8
HETATM    8  C   UNL     1      38.986 -12.233   0.516  1.00  0.00     0.241 C 
BRANCH   8   9
HETATM    9  N   UNL     1      38.874 -13.380  -0.518  1.00  0.00    -0.061 N 
HETATM   10  H   UNL     1      38.380 -14.119  -0.003  1.00  0.00     0.280 HD
HETATM   11  C   UNL     1      40.143 -13.979  -1.070  1.00  0.00     0.236 C 
HETATM   12  C   UNL     1      40.102 -13.685  -2.554  1.00  0.00     0.029 C 
HETATM   13  C   UNL     1      38.627 -13.775  -2.878  1.00  0.00     0.029 C 
HETATM   14  C   UNL     1      37.962 -13.089  -1.699  1.00  0.00     0.236 C 
ENDBRANCH   8   9
BRANCH   8  15
HETATM   15  C   UNL     1      38.038 -11.058   0.229  1.00  0.00     0.007 A 
HETATM   16  C   UNL     1      38.462 -10.041  -0.660  1.00  0.00     0.076 A 
HETATM   17  C   UNL     1      37.627  -8.957  -0.947  1.00  0.00     0.037 A 
HETATM   18  C   UNL     1      36.372  -8.858  -0.352  1.00  0.00     0.003 A 
HETATM   19  C   UNL     1      35.945  -9.839   0.534  1.00  0.00     0.001 A 
HETATM   20  C   UNL     1      36.770 -10.928   0.827  1.00  0.00     0.012 A 
BRANCH  16  21
HETATM   21  O   UNL     1      39.705 -10.212  -1.212  1.00  0.00    -0.355 OA
HETATM   22  C   UNL     1      39.844  -9.940  -2.605  1.00  0.00     0.210 C 
ENDBRANCH  16  21
ENDBRANCH   8  15
ENDBRANCH   7   8
ENDBRANCH   3   7
BRANCH   1  23
HETATM   23  C   UNL     1      42.018 -15.653   4.308  1.00  0.00     0.086 C 
HETATM   24  C   UNL     1      41.741 -16.724   5.364  1.00  0.00     0.032 C 
BRANCH  23  25
HETATM   25  C   UNL     1      43.201 -16.066   3.405  1.00  0.00     0.063 C 
BRANCH  25  26
HETATM   26  C   UNL     1      43.438 -17.559   3.365  1.00  0.00    -0.056 A 
HETATM   27  C   UNL     1      42.945 -18.337   2.308  1.00  0.00     0.010 A 
HETATM   28  C   UNL     1      43.160 -19.718   2.288  1.00  0.00     0.037 A 
HETATM   29  C   UNL     1      43.866 -20.317   3.325  1.00  0.00     0.065 A 
HETATM   30  C   UNL     1      44.363 -19.560   4.379  1.00  0.00     0.037 A 
HETATM   31  C   UNL     1      44.151 -18.183   4.398  1.00  0.00     0.010 A 
BRANCH  29  32
HETATM   32  O   UNL     1      44.099 -21.660   3.346  1.00  0.00    -0.361 OA
HETATM   33  H   UNL     1      43.262 -22.125   3.181  1.00  0.00     0.217 HD
ENDBRANCH  29  32
ENDBRANCH  25  26
ENDBRANCH  23  25
ENDBRANCH   1  23
TORSDOF 9
ENDMDL
MODEL 10
REMARK VINA RESULT:      -7.6      4.549      8.222
REMARK  9 active torsions:
REMARK  status: ('A' for Active; 'I' for Inactive)
REMARK    1  A    between atoms: C_2  and  N_3 
REMARK    2  A    between atoms: C_2  and  C_23 
REMARK       I    between atoms: N_3  and  C_4 
REMARK       I    between atoms: C_4  and  N_5 
REMARK    3  A    between atoms: N_5  and  C_6 
REMARK    4  A    between atoms: C_6  and  C_7 
REMARK    5  A    between atoms: C_7  and  N_8 
REMARK    6  A    between atoms: C_7  and  C_14 
REMARK    7  A    between atoms: C_15  and  O_16 
REMARK    8  A    between atoms: C_23  and  C_24 
REMARK    9  A    between atoms: C_27  and  O_28 
ROOT
HETATM    1  N   UNL     1      42.209 -14.172   4.158  1.00  0.00    -0.339 N 
HETATM    2  C   UNL     1      41.960 -13.554   5.352  1.00  0.00     0.316 C 
HETATM    3  N   UNL     1      42.186 -12.200   5.285  1.00  0.00    -0.341 N 
HETATM    4  O   UNL     1      41.690 -14.126   6.398  1.00  0.00    -0.248 OA
HETATM    5  H   UNL     1      41.987 -13.637   3.332  1.00  0.00     0.164 HD
HETATM    6  H   UNL     1      42.074 -11.814   4.357  1.00  0.00     0.164 HD
ENDROOT
BRANCH   3   7
HETATM    7  C   UNL     1      41.756 -11.342   6.381  1.00  0.00     0.162 C 
BRANCH   7   8
HETATM    8  C   UNL     1      42.303  -9.870   6.431  1.00  0.00     0.241 C 
BRANCH   8   9
HETATM    9  N   UNL     1      41.204  -8.791   6.270  1.00  0.00    -0.061 N 
HETATM   10  H   UNL     1      41.360  -8.169   7.071  1.00  0.00     0.280 HD
HETATM   11  C   UNL     1      39.759  -9.225   6.303  1.00  0.00     0.236 C 
HETATM   12  C   UNL     1      39.213  -8.872   4.937  1.00  0.00     0.029 C 
HETATM   13  C   UNL     1      39.958  -7.602   4.590  1.00  0.00     0.029 C 
HETATM   14  C   UNL     1      41.373  -7.880   5.065  1.00  0.00     0.236 C 
ENDBRANCH   8   9
BRANCH   8  15
HETATM   15  C   UNL     1      43.166  -9.678   7.688  1.00  0.00     0.007 A 
HETATM   16  C   UNL     1      44.332 -10.465   7.842  1.00  0.00     0.076 A 
HETATM   17  C   UNL     1      45.143 -10.319   8.972  1.00  0.00     0.037 A 
HETATM   18  C   UNL     1      44.806  -9.404   9.966  1.00  0.00     0.003 A 
HETATM   19  C   UNL     1      43.657  -8.633   9.839  1.00  0.00     0.001 A 
HETATM   20  C   UNL     1      42.840  -8.770   8.714  1.00  0.00     0.012 A 
BRANCH  16  21
HETATM   21  O   UNL     1      44.602 -11.336   6.819  1.00  0.00    -0.355 OA
HETATM   22  C   UNL     1      45.909 -11.289   6.249  1.00  0.00     0.210 C 
ENDBRANCH  16  21
ENDBRANCH   8  15
ENDBRANCH   7   8
ENDBRANCH   3   7
BRANCH   1  23
HETATM   23  C   UNL     1      42.131 -15.625   3.976  1.00  0.00     0.086 C 
HETATM   24  C   UNL     1      40.714 -16.054   3.589  1.00  0.00     0.032 C 
BRANCH  23  25
HETATM   25  C   UNL     1      43.167 -16.200   2.987  1.00  0.00     0.063 C 
BRANCH  25  26
HETATM   26  C   UNL     1      43.422 -17.679   3.171  1.00  0.00    -0.056 A 
HETATM   27  C   UNL     1      44.013 -18.167   4.345  1.00  0.00     0.010 A 
HETATM   28  C   UNL     1      44.256 -19.534   4.500  1.00  0.00     0.037 A 
HETATM   29  C   UNL     1      43.907 -20.411   3.479  1.00  0.00     0.065 A 
HETATM   30  C   UNL     1      43.320 -19.946   2.309  1.00  0.00     0.037 A 
HETATM   31  C   UNL     1      43.076 -18.582   2.156  1.00  0.00     0.010 A 
BRANCH  29  32
HETATM   32  O   UNL     1      44.125 -21.752   3.586  1.00  0.00    -0.361 OA
HETATM   33  H   UNL     1      43.302 -22.181   3.875  1.00  0.00     0.217 HD
ENDBRANCH  29  32
ENDBRANCH  25  26
ENDBRANCH  23  25
ENDBRANCH   1  23
TORSDOF 9
ENDMDL
