MODEL 1
REMARK VINA RESULT:      -7.9      0.000      0.000
REMARK  5 active torsions:
REMARK  status: ('A' for Active; 'I' for Inactive)
REMARK    1  A    between atoms: C_2  and  O_3 
REMARK    2  A    between atoms: C_4  and  C_5 
REMARK    3  A    between atoms: C_5  and  O_6 
REMARK    4  A    between atoms: C_9  and  C_10 
REMARK    5  A    between atoms: C_22  and  O_23 
ROOT
HETATM    1  C   UNL     1      40.584 -14.596   2.025  1.00  0.00     0.047 C 
HETATM    2  C   UNL     1      41.187 -13.577   3.006  1.00  0.00     0.073 C 
HETATM    3  C   UNL     1      42.656 -13.956   3.388  1.00  0.00     0.133 C 
HETATM    4  C   UNL     1      42.849 -15.093   4.437  1.00  0.00     0.074 C 
HETATM    5  C   UNL     1      41.693 -15.189   5.373  1.00  0.00     0.030 A 
HETATM    6  C   UNL     1      40.543 -14.437   5.258  1.00  0.00     0.042 A 
HETATM    7  N   UNL     1      39.746 -14.765   6.318  1.00  0.00    -0.279 N 
HETATM    8  H   UNL     1      38.830 -14.400   6.560  1.00  0.00     0.189 HD
HETATM    9  N   UNL     1      40.313 -15.678   7.135  1.00  0.00    -0.149 NA
HETATM   10  C   UNL     1      41.489 -15.895   6.558  1.00  0.00     0.190 A 
HETATM   11  C   UNL     1      40.248 -13.409   4.233  1.00  0.00     0.097 C 
ENDROOT
BRANCH   4  12
HETATM   12  C   UNL     1      43.096 -16.459   3.797  1.00  0.00    -0.048 A 
HETATM   13  C   UNL     1      44.043 -17.303   4.413  1.00  0.00     0.009 A 
HETATM   14  C   UNL     1      44.337 -18.565   3.890  1.00  0.00     0.024 A 
HETATM   15  C   UNL     1      43.694 -19.002   2.738  1.00  0.00     0.034 A 
HETATM   16 CL   UNL     1      44.053 -20.556   2.091  1.00  0.00    -0.084 Cl
HETATM   17  C   UNL     1      42.760 -18.188   2.107  1.00  0.00     0.024 A 
HETATM   18  C   UNL     1      42.462 -16.926   2.634  1.00  0.00     0.009 A 
ENDBRANCH   4  12
BRANCH   3  19
HETATM   19  C   UNL     1      43.415 -12.723   3.845  1.00  0.00     0.266 C 
HETATM   20  O   UNL     1      43.806 -11.862   3.063  1.00  0.00    -0.265 OA
BRANCH  19  21
HETATM   21  O   UNL     1      43.593 -12.683   5.190  1.00  0.00    -0.326 OA
HETATM   22  C   UNL     1      43.103 -11.498   5.818  1.00  0.00     0.213 C 
ENDBRANCH  19  21
ENDBRANCH   3  19
BRANCH   2  23
HETATM   23  O   UNL     1      41.172 -12.326   2.290  1.00  0.00    -0.389 OA
HETATM   24  H   UNL     1      41.818 -12.372   1.561  1.00  0.00     0.210 HD
ENDBRANCH   2  23
BRANCH  10  25
HETATM   25  O   UNL     1      42.289 -16.741   7.196  1.00  0.00    -0.343 OA
HETATM   26  H   UNL     1      42.252 -16.458   8.126  1.00  0.00     0.219 HD
ENDBRANCH  10  25
TORSDOF 5
ENDMDL
MODEL 2
REMARK VINA RESULT:      -7.8      1.664      2.556
REMARK  5 active torsions:
REMARK  status: ('A' for Active; 'I' for Inactive)
REMARK    1  A    between atoms: C_2  and  O_3 
REMARK    2  A    between atoms: C_4  and  C_5 
REMARK    3  A    between atoms: C_5  and  O_6 
REMARK    4  A    between atoms: C_9  and  C_10 
REMARK    5  A    between atoms: C_22  and  O_23 
ROOT
HETATM    1  C   UNL     1      43.237 -12.830   3.039  1.00  0.00     0.047 C 
HETATM    2  C   UNL     1      43.263 -12.254   4.465  1.00  0.00     0.073 C 
HETATM    3  C   UNL     1      43.951 -13.242   5.464  1.00  0.00     0.133 C 
HETATM    4  C   UNL     1      43.109 -14.456   5.960  1.00  0.00     0.074 C 
HETATM    5  C   UNL     1      41.649 -14.160   5.953  1.00  0.00     0.030 A 
HETATM    6  C   UNL     1      41.100 -12.994   5.464  1.00  0.00     0.042 A 
HETATM    7  N   UNL     1      39.753 -13.069   5.677  1.00  0.00    -0.279 N 
HETATM    8  H   UNL     1      39.035 -12.385   5.454  1.00  0.00     0.189 HD
HETATM    9  N   UNL     1      39.384 -14.212   6.294  1.00  0.00    -0.149 NA
HETATM   10  C   UNL     1      40.542 -14.835   6.470  1.00  0.00     0.190 A 
HETATM   11  C   UNL     1      41.827 -11.839   4.889  1.00  0.00     0.097 C 
ENDROOT
BRANCH   4  12
HETATM   12  C   UNL     1      43.370 -15.730   5.157  1.00  0.00    -0.048 A 
HETATM   13  C   UNL     1      42.688 -15.878   3.931  1.00  0.00     0.009 A 
HETATM   14  C   UNL     1      42.861 -17.015   3.138  1.00  0.00     0.024 A 
HETATM   15  C   UNL     1      43.715 -18.028   3.559  1.00  0.00     0.034 A 
HETATM   16 CL   UNL     1      43.931 -19.429   2.585  1.00  0.00    -0.084 Cl
HETATM   17  C   UNL     1      44.395 -17.911   4.766  1.00  0.00     0.024 A 
HETATM   18  C   UNL     1      44.225 -16.770   5.558  1.00  0.00     0.009 A 
ENDBRANCH   4  12
BRANCH   3  19
HETATM   19  C   UNL     1      44.488 -12.484   6.665  1.00  0.00     0.266 C 
HETATM   20  O   UNL     1      43.930 -12.496   7.757  1.00  0.00    -0.265 OA
BRANCH  19  21
HETATM   21  O   UNL     1      45.639 -11.816   6.393  1.00  0.00    -0.326 OA
HETATM   22  C   UNL     1      45.973 -10.802   7.341  1.00  0.00     0.213 C 
ENDBRANCH  19  21
ENDBRANCH   3  19
BRANCH   2  23
HETATM   23  O   UNL     1      44.037 -11.043   4.357  1.00  0.00    -0.389 OA
HETATM   24  H   UNL     1      43.470 -10.286   4.593  1.00  0.00     0.210 HD
ENDBRANCH   2  23
BRANCH  10  25
HETATM   25  O   UNL     1      40.474 -15.996   7.112  1.00  0.00    -0.343 OA
HETATM   26  H   UNL     1      41.033 -15.872   7.898  1.00  0.00     0.219 HD
ENDBRANCH  10  25
TORSDOF 5
ENDMDL
MODEL 3
REMARK VINA RESULT:      -7.4      1.476      2.005
REMARK  5 active torsions:
REMARK  status: ('A' for Active; 'I' for Inactive)
REMARK    1  A    between atoms: C_2  and  O_3 
REMARK    2  A    between atoms: C_4  and  C_5 
REMARK    3  A    between atoms: C_5  and  O_6 
REMARK    4  A    between atoms: C_9  and  C_10 
REMARK    5  A    between atoms: C_22  and  O_23 
ROOT
HETATM    1  C   UNL     1      39.922 -16.048   3.348  1.00  0.00     0.047 C 
HETATM    2  C   UNL     1      40.618 -14.679   3.275  1.00  0.00     0.073 C 
HETATM    3  C   UNL     1      42.076 -14.811   2.723  1.00  0.00     0.133 C 
HETATM    4  C   UNL     1      43.168 -15.323   3.711  1.00  0.00     0.074 C 
HETATM    5  C   UNL     1      42.840 -14.991   5.125  1.00  0.00     0.030 A 
HETATM    6  C   UNL     1      41.660 -14.399   5.525  1.00  0.00     0.042 A 
HETATM    7  N   UNL     1      41.750 -14.207   6.875  1.00  0.00    -0.279 N 
HETATM    8  H   UNL     1      41.070 -13.787   7.503  1.00  0.00     0.189 HD
HETATM    9  N   UNL     1      42.927 -14.625   7.385  1.00  0.00    -0.149 NA
HETATM   10  C   UNL     1      43.571 -15.066   6.311  1.00  0.00     0.190 A 
HETATM   11  C   UNL     1      40.537 -13.974   4.658  1.00  0.00     0.097 C 
ENDROOT
BRANCH   4  12
HETATM   12  C   UNL     1      43.423 -16.825   3.590  1.00  0.00    -0.048 A 
HETATM   13  C   UNL     1      43.061 -17.451   2.379  1.00  0.00     0.009 A 
HETATM   14  C   UNL     1      43.250 -18.821   2.186  1.00  0.00     0.024 A 
HETATM   15  C   UNL     1      43.799 -19.593   3.204  1.00  0.00     0.034 A 
HETATM   16 CL   UNL     1      44.034 -21.281   2.970  1.00  0.00    -0.084 Cl
HETATM   17  C   UNL     1      44.159 -19.004   4.410  1.00  0.00     0.024 A 
HETATM   18  C   UNL     1      43.974 -17.630   4.601  1.00  0.00     0.009 A 
ENDBRANCH   4  12
BRANCH   3  19
HETATM   19  C   UNL     1      42.529 -13.494   2.118  1.00  0.00     0.266 C 
HETATM   20  O   UNL     1      42.029 -13.030   1.099  1.00  0.00    -0.265 OA
BRANCH  19  21
HETATM   21  O   UNL     1      43.523 -12.903   2.829  1.00  0.00    -0.326 OA
HETATM   22  C   UNL     1      43.206 -11.599   3.319  1.00  0.00     0.213 C 
ENDBRANCH  19  21
ENDBRANCH   3  19
BRANCH   2  23
HETATM   23  O   UNL     1      39.814 -13.906   2.362  1.00  0.00    -0.389 OA
HETATM   24  H   UNL     1      40.400 -13.474   1.714  1.00  0.00     0.210 HD
ENDBRANCH   2  23
BRANCH  10  25
HETATM   25  O   UNL     1      44.806 -15.503   6.526  1.00  0.00    -0.343 OA
HETATM   26  H   UNL     1      44.935 -16.205   5.866  1.00  0.00     0.219 HD
ENDBRANCH  10  25
TORSDOF 5
ENDMDL
MODEL 4
REMARK VINA RESULT:      -7.1      3.190      5.155
REMARK  5 active torsions:
REMARK  status: ('A' for Active; 'I' for Inactive)
REMARK    1  A    between atoms: C_2  and  O_3 
REMARK    2  A    between atoms: C_4  and  C_5 
REMARK    3  A    between atoms: C_5  and  O_6 
REMARK    4  A    between atoms: C_9  and  C_10 
REMARK    5  A    between atoms: C_22  and  O_23 
ROOT
HETATM    1  C   UNL     1      44.240 -16.548   5.234  1.00  0.00     0.047 C 
HETATM    2  C   UNL     1      43.110 -16.473   4.194  1.00  0.00     0.073 C 
HETATM    3  C   UNL     1      42.969 -15.028   3.610  1.00  0.00     0.133 C 
HETATM    4  C   UNL     1      42.238 -13.971   4.493  1.00  0.00     0.074 C 
HETATM    5  C   UNL     1      41.246 -14.601   5.408  1.00  0.00     0.030 A 
HETATM    6  C   UNL     1      41.071 -15.962   5.539  1.00  0.00     0.042 A 
HETATM    7  N   UNL     1      40.046 -16.148   6.423  1.00  0.00    -0.279 N 
HETATM    8  H   UNL     1      39.639 -17.020   6.748  1.00  0.00     0.189 HD
HETATM    9  N   UNL     1      39.524 -14.987   6.870  1.00  0.00    -0.149 NA
HETATM   10  C   UNL     1      40.245 -14.076   6.226  1.00  0.00     0.190 A 
HETATM   11  C   UNL     1      41.794 -17.028   4.808  1.00  0.00     0.097 C 
ENDROOT
BRANCH   4  12
HETATM   12  C   UNL     1      43.201 -13.107   5.307  1.00  0.00    -0.048 A 
HETATM   13  C   UNL     1      43.925 -12.113   4.616  1.00  0.00     0.009 A 
HETATM   14  C   UNL     1      44.833 -11.285   5.280  1.00  0.00     0.024 A 
HETATM   15  C   UNL     1      45.038 -11.440   6.646  1.00  0.00     0.034 A 
HETATM   16 CL   UNL     1      46.154 -10.421   7.468  1.00  0.00    -0.084 Cl
HETATM   17  C   UNL     1      44.341 -12.415   7.351  1.00  0.00     0.024 A 
HETATM   18  C   UNL     1      43.429 -13.242   6.686  1.00  0.00     0.009 A 
ENDBRANCH   4  12
BRANCH   3  19
HETATM   19  C   UNL     1      42.310 -15.078   2.243  1.00  0.00     0.266 C 
HETATM   20  O   UNL     1      42.863 -15.562   1.261  1.00  0.00    -0.265 OA
BRANCH  19  21
HETATM   21  O   UNL     1      41.062 -14.543   2.241  1.00  0.00    -0.326 OA
HETATM   22  C   UNL     1      40.026 -15.460   1.888  1.00  0.00     0.213 C 
ENDBRANCH  19  21
ENDBRANCH   3  19
BRANCH   2  23
HETATM   23  O   UNL     1      43.508 -17.388   3.154  1.00  0.00    -0.389 OA
HETATM   24  H   UNL     1      43.081 -17.121   2.319  1.00  0.00     0.210 HD
ENDBRANCH   2  23
BRANCH  10  25
HETATM   25  O   UNL     1      39.902 -12.813   6.453  1.00  0.00    -0.343 OA
HETATM   26  H   UNL     1      40.472 -12.296   5.859  1.00  0.00     0.219 HD
ENDBRANCH  10  25
TORSDOF 5
ENDMDL
MODEL 5
REMARK VINA RESULT:      -7.0      2.874      3.918
REMARK  5 active torsions:
REMARK  status: ('A' for Active; 'I' for Inactive)
REMARK    1  A    between atoms: C_2  and  O_3 
REMARK    2  A    between atoms: C_4  and  C_5 
REMARK    3  A    between atoms: C_5  and  O_6 
REMARK    4  A    between atoms: C_9  and  C_10 
REMARK    5  A    between atoms: C_22  and  O_23 
ROOT
HETATM    1  C   UNL     1      43.705 -12.548   3.069  1.00  0.00     0.047 C 
HETATM    2  C   UNL     1      42.251 -12.071   3.211  1.00  0.00     0.073 C 
HETATM    3  C   UNL     1      41.391 -13.099   4.019  1.00  0.00     0.133 C 
HETATM    4  C   UNL     1      40.908 -14.374   3.264  1.00  0.00     0.074 C 
HETATM    5  C   UNL     1      40.760 -14.131   1.801  1.00  0.00     0.030 A 
HETATM    6  C   UNL     1      41.112 -12.955   1.174  1.00  0.00     0.042 A 
HETATM    7  N   UNL     1      40.783 -13.093  -0.144  1.00  0.00    -0.279 N 
HETATM    8  H   UNL     1      40.890 -12.422  -0.899  1.00  0.00     0.189 HD
HETATM    9  N   UNL     1      40.218 -14.288  -0.419  1.00  0.00    -0.149 NA
HETATM   10  C   UNL     1      40.194 -14.880   0.769  1.00  0.00     0.190 A 
HETATM   11  C   UNL     1      41.668 -11.738   1.810  1.00  0.00     0.097 C 
ENDROOT
BRANCH   4  12
HETATM   12  C   UNL     1      41.819 -15.580   3.487  1.00  0.00    -0.048 A 
HETATM   13  C   UNL     1      41.941 -16.068   4.804  1.00  0.00     0.009 A 
HETATM   14  C   UNL     1      42.759 -17.162   5.100  1.00  0.00     0.024 A 
HETATM   15  C   UNL     1      43.477 -17.782   4.084  1.00  0.00     0.034 A 
HETATM   16 CL   UNL     1      44.486 -19.128   4.444  1.00  0.00    -0.084 Cl
HETATM   17  C   UNL     1      43.381 -17.317   2.777  1.00  0.00     0.024 A 
HETATM   18  C   UNL     1      42.557 -16.225   2.481  1.00  0.00     0.009 A 
ENDBRANCH   4  12
BRANCH   3  19
HETATM   19  C   UNL     1      40.194 -12.405   4.644  1.00  0.00     0.266 C 
HETATM   20  O   UNL     1      39.127 -12.270   4.053  1.00  0.00    -0.265 OA
BRANCH  19  21
HETATM   21  O   UNL     1      40.437 -11.972   5.908  1.00  0.00    -0.326 OA
HETATM   22  C   UNL     1      39.581 -10.917   6.347  1.00  0.00     0.213 C 
ENDBRANCH  19  21
ENDBRANCH   3  19
BRANCH   2  23
HETATM   23  O   UNL     1      42.342 -10.828   3.935  1.00  0.00    -0.389 OA
HETATM   24  H   UNL     1      42.088 -10.098   3.341  1.00  0.00     0.210 HD
ENDBRANCH   2  23
BRANCH  10  25
HETATM   25  O   UNL     1      39.632 -16.083   0.795  1.00  0.00    -0.343 OA
HETATM   26  H   UNL     1      38.681 -15.910   0.685  1.00  0.00     0.219 HD
ENDBRANCH  10  25
TORSDOF 5
ENDMDL
MODEL 6
REMARK VINA RESULT:      -7.0      2.867      4.441
REMARK  5 active torsions:
REMARK  status: ('A' for Active; 'I' for Inactive)
REMARK    1  A    between atoms: C_2  and  O_3 
REMARK    2  A    between atoms: C_4  and  C_5 
REMARK    3  A    between atoms: C_5  and  O_6 
REMARK    4  A    between atoms: C_9  and  C_10 
REMARK    5  A    between atoms: C_22  and  O_23 
ROOT
HETATM    1  C   UNL     1      39.100 -13.607   3.117  1.00  0.00     0.047 C 
HETATM    2  C   UNL     1      39.476 -12.520   2.096  1.00  0.00     0.073 C 
HETATM    3  C   UNL     1      40.655 -12.986   1.178  1.00  0.00     0.133 C 
HETATM    4  C   UNL     1      42.092 -12.930   1.780  1.00  0.00     0.074 C 
HETATM    5  C   UNL     1      42.216 -11.877   2.827  1.00  0.00     0.030 A 
HETATM    6  C   UNL     1      41.161 -11.117   3.286  1.00  0.00     0.042 A 
HETATM    7  N   UNL     1      41.673 -10.234   4.194  1.00  0.00    -0.279 N 
HETATM    8  H   UNL     1      41.189  -9.516   4.725  1.00  0.00     0.189 HD
HETATM    9  N   UNL     1      43.009 -10.358   4.347  1.00  0.00    -0.149 NA
HETATM   10  C   UNL     1      43.311 -11.332   3.498  1.00  0.00     0.190 A 
HETATM   11  C   UNL     1      39.752 -11.181   2.833  1.00  0.00     0.097 C 
ENDROOT
BRANCH   4  12
HETATM   12  C   UNL     1      42.549 -14.270   2.354  1.00  0.00    -0.048 A 
HETATM   13  C   UNL     1      42.857 -15.298   1.439  1.00  0.00     0.009 A 
HETATM   14  C   UNL     1      43.275 -16.558   1.877  1.00  0.00     0.024 A 
HETATM   15  C   UNL     1      43.386 -16.813   3.239  1.00  0.00     0.034 A 
HETATM   16 CL   UNL     1      43.900 -18.363   3.782  1.00  0.00    -0.084 Cl
HETATM   17  C   UNL     1      43.083 -15.820   4.163  1.00  0.00     0.024 A 
HETATM   18  C   UNL     1      42.669 -14.558   3.724  1.00  0.00     0.009 A 
ENDBRANCH   4  12
BRANCH   3  19
HETATM   19  C   UNL     1      40.633 -12.220  -0.132  1.00  0.00     0.266 C 
HETATM   20  O   UNL     1      41.275 -11.189  -0.306  1.00  0.00    -0.265 OA
BRANCH  19  21
HETATM   21  O   UNL     1      39.843 -12.804  -1.070  1.00  0.00    -0.326 OA
HETATM   22  C   UNL     1      39.968 -14.225  -1.147  1.00  0.00     0.213 C 
ENDBRANCH  19  21
ENDBRANCH   3  19
BRANCH   2  23
HETATM   23  O   UNL     1      38.284 -12.329   1.308  1.00  0.00    -0.389 OA
HETATM   24  H   UNL     1      37.680 -13.078   1.465  1.00  0.00     0.210 HD
ENDBRANCH   2  23
BRANCH  10  25
HETATM   25  O   UNL     1      44.601 -11.633   3.411  1.00  0.00    -0.343 OA
HETATM   26  H   UNL     1      44.682 -12.121   2.574  1.00  0.00     0.219 HD
ENDBRANCH  10  25
TORSDOF 5
ENDMDL
MODEL 7
REMARK VINA RESULT:      -7.0      3.411      5.170
REMARK  5 active torsions:
REMARK  status: ('A' for Active; 'I' for Inactive)
REMARK    1  A    between atoms: C_2  and  O_3 
REMARK    2  A    between atoms: C_4  and  C_5 
REMARK    3  A    between atoms: C_5  and  O_6 
REMARK    4  A    between atoms: C_9  and  C_10 
REMARK    5  A    between atoms: C_22  and  O_23 
ROOT
HETATM    1  C   UNL     1      43.775 -14.176   2.153  1.00  0.00     0.047 C 
HETATM    2  C   UNL     1      42.557 -15.115   2.151  1.00  0.00     0.073 C 
HETATM    3  C   UNL     1      41.483 -14.657   3.192  1.00  0.00     0.133 C 
HETATM    4  C   UNL     1      41.752 -14.996   4.690  1.00  0.00     0.074 C 
HETATM    5  C   UNL     1      42.593 -16.216   4.842  1.00  0.00     0.030 A 
HETATM    6  C   UNL     1      43.157 -16.902   3.786  1.00  0.00     0.042 A 
HETATM    7  N   UNL     1      43.804 -17.982   4.316  1.00  0.00    -0.279 N 
HETATM    8  H   UNL     1      44.321 -18.711   3.833  1.00  0.00     0.189 HD
HETATM    9  N   UNL     1      43.686 -18.057   5.658  1.00  0.00    -0.149 NA
HETATM   10  C   UNL     1      42.934 -17.001   5.944  1.00  0.00     0.190 A 
HETATM   11  C   UNL     1      43.027 -16.584   2.346  1.00  0.00     0.097 C 
ENDROOT
BRANCH   4  12
HETATM   12  C   UNL     1      42.395 -13.840   5.455  1.00  0.00    -0.048 A 
HETATM   13  C   UNL     1      41.642 -12.656   5.599  1.00  0.00     0.009 A 
HETATM   14  C   UNL     1      42.156 -11.547   6.276  1.00  0.00     0.024 A 
HETATM   15  C   UNL     1      43.435 -11.600   6.817  1.00  0.00     0.034 A 
HETATM   16 CL   UNL     1      44.071 -10.237   7.652  1.00  0.00    -0.084 Cl
HETATM   17  C   UNL     1      44.202 -12.752   6.685  1.00  0.00     0.024 A 
HETATM   18  C   UNL     1      43.685 -13.864   6.011  1.00  0.00     0.009 A 
ENDBRANCH   4  12
BRANCH   3  19
HETATM   19  C   UNL     1      40.114 -15.184   2.800  1.00  0.00     0.266 C 
HETATM   20  O   UNL     1      39.713 -16.294   3.134  1.00  0.00    -0.265 OA
BRANCH  19  21
HETATM   21  O   UNL     1      39.401 -14.295   2.061  1.00  0.00    -0.326 OA
HETATM   22  C   UNL     1      39.288 -12.997   2.644  1.00  0.00     0.213 C 
ENDBRANCH  19  21
ENDBRANCH   3  19
BRANCH   2  23
HETATM   23  O   UNL     1      42.022 -15.019   0.816  1.00  0.00    -0.389 OA
HETATM   24  H   UNL     1      41.169 -15.489   0.784  1.00  0.00     0.210 HD
ENDBRANCH   2  23
BRANCH  10  25
HETATM   25  O   UNL     1      42.617 -16.856   7.226  1.00  0.00    -0.343 OA
HETATM   26  H   UNL     1      43.324 -17.322   7.705  1.00  0.00     0.219 HD
ENDBRANCH  10  25
TORSDOF 5
ENDMDL
MODEL 8
REMARK VINA RESULT:      -6.9      3.261      5.811
REMARK  5 active torsions:
REMARK  status: ('A' for Active; 'I' for Inactive)
REMARK    1  A    between atoms: C_2  and  O_3 
REMARK    2  A    between atoms: C_4  and  C_5 
REMARK    3  A    between atoms: C_5  and  O_6 
REMARK    4  A    between atoms: C_9  and  C_10 
REMARK    5  A    between atoms: C_22  and  O_23 
ROOT
HETATM    1  C   UNL     1      43.007 -15.599   8.001  1.00  0.00     0.047 C 
HETATM    2  C   UNL     1      42.483 -15.972   6.605  1.00  0.00     0.073 C 
HETATM    3  C   UNL     1      43.229 -15.173   5.485  1.00  0.00     0.133 C 
HETATM    4  C   UNL     1      42.800 -13.692   5.260  1.00  0.00     0.074 C 
HETATM    5  C   UNL     1      41.380 -13.459   5.643  1.00  0.00     0.030 A 
HETATM    6  C   UNL     1      40.572 -14.412   6.229  1.00  0.00     0.042 A 
HETATM    7  N   UNL     1      39.338 -13.847   6.380  1.00  0.00    -0.279 N 
HETATM    8  H   UNL     1      38.493 -14.261   6.766  1.00  0.00     0.189 HD
HETATM    9  N   UNL     1      39.280 -12.583   5.912  1.00  0.00    -0.149 NA
HETATM   10  C   UNL     1      40.510 -12.385   5.454  1.00  0.00     0.190 A 
HETATM   11  C   UNL     1      40.938 -15.808   6.562  1.00  0.00     0.097 C 
ENDROOT
BRANCH   4  12
HETATM   12  C   UNL     1      43.692 -12.694   5.998  1.00  0.00    -0.048 A 
HETATM   13  C   UNL     1      44.739 -12.093   5.267  1.00  0.00     0.009 A 
HETATM   14  C   UNL     1      45.607 -11.177   5.865  1.00  0.00     0.024 A 
HETATM   15  C   UNL     1      45.450 -10.850   7.207  1.00  0.00     0.034 A 
HETATM   16 CL   UNL     1      46.517  -9.722   7.947  1.00  0.00    -0.084 Cl
HETATM   17  C   UNL     1      44.431 -11.432   7.953  1.00  0.00     0.024 A 
HETATM   18  C   UNL     1      43.558 -12.346   7.352  1.00  0.00     0.009 A 
ENDBRANCH   4  12
BRANCH   3  19
HETATM   19  C   UNL     1      43.151 -15.921   4.166  1.00  0.00     0.266 C 
HETATM   20  O   UNL     1      42.390 -15.590   3.264  1.00  0.00    -0.265 OA
BRANCH  19  21
HETATM   21  O   UNL     1      44.012 -16.970   4.105  1.00  0.00    -0.326 OA
HETATM   22  C   UNL     1      43.665 -17.964   3.140  1.00  0.00     0.213 C 
ENDBRANCH  19  21
ENDBRANCH   3  19
BRANCH   2  23
HETATM   23  O   UNL     1      42.760 -17.380   6.473  1.00  0.00    -0.389 OA
HETATM   24  H   UNL     1      43.450 -17.504   5.795  1.00  0.00     0.210 HD
ENDBRANCH   2  23
BRANCH  10  25
HETATM   25  O   UNL     1      40.723 -11.205   4.882  1.00  0.00    -0.343 OA
HETATM   26  H   UNL     1      41.158 -11.418   4.039  1.00  0.00     0.219 HD
ENDBRANCH  10  25
TORSDOF 5
ENDMDL
MODEL 9
REMARK VINA RESULT:      -6.9      2.413      4.132
REMARK  5 active torsions:
REMARK  status: ('A' for Active; 'I' for Inactive)
REMARK    1  A    between atoms: C_2  and  O_3 
REMARK    2  A    between atoms: C_4  and  C_5 
REMARK    3  A    between atoms: C_5  and  O_6 
REMARK    4  A    between atoms: C_9  and  C_10 
REMARK    5  A    between atoms: C_22  and  O_23 
ROOT
HETATM    1  C   UNL     1      40.400 -14.247   6.380  1.00  0.00     0.047 C 
HETATM    2  C   UNL     1      40.044 -12.967   5.606  1.00  0.00     0.073 C 
HETATM    3  C   UNL     1      40.224 -13.166   4.064  1.00  0.00     0.133 C 
HETATM    4  C   UNL     1      41.677 -13.112   3.503  1.00  0.00     0.074 C 
HETATM    5  C   UNL     1      42.566 -12.261   4.343  1.00  0.00     0.030 A 
HETATM    6  C   UNL     1      42.180 -11.680   5.533  1.00  0.00     0.042 A 
HETATM    7  N   UNL     1      43.240 -10.941   5.976  1.00  0.00    -0.279 N 
HETATM    8  H   UNL     1      43.310 -10.370   6.813  1.00  0.00     0.189 HD
HETATM    9  N   UNL     1      44.297 -10.988   5.138  1.00  0.00    -0.149 NA
HETATM   10  C   UNL     1      43.857 -11.765   4.156  1.00  0.00     0.190 A 
HETATM   11  C   UNL     1      40.850 -11.767   6.177  1.00  0.00     0.097 C 
ENDROOT
BRANCH   4  12
HETATM   12  C   UNL     1      42.306 -14.495   3.342  1.00  0.00    -0.048 A 
HETATM   13  C   UNL     1      42.265 -15.083   2.060  1.00  0.00     0.009 A 
HETATM   14  C   UNL     1      42.808 -16.348   1.825  1.00  0.00     0.024 A 
HETATM   15  C   UNL     1      43.396 -17.052   2.870  1.00  0.00     0.034 A 
HETATM   16 CL   UNL     1      44.066 -18.611   2.584  1.00  0.00    -0.084 Cl
HETATM   17  C   UNL     1      43.445 -16.500   4.145  1.00  0.00     0.024 A 
HETATM   18  C   UNL     1      42.905 -15.230   4.378  1.00  0.00     0.009 A 
ENDBRANCH   4  12
BRANCH   3  19
HETATM   19  C   UNL     1      39.357 -12.178   3.304  1.00  0.00     0.266 C 
HETATM   20  O   UNL     1      39.239 -11.006   3.645  1.00  0.00    -0.265 OA
BRANCH  19  21
HETATM   21  O   UNL     1      38.754 -12.732   2.221  1.00  0.00    -0.326 OA
HETATM   22  C   UNL     1      39.120 -12.143   0.973  1.00  0.00     0.213 C 
ENDBRANCH  19  21
ENDBRANCH   3  19
BRANCH   2  23
HETATM   23  O   UNL     1      38.657 -12.727   5.913  1.00  0.00    -0.389 OA
HETATM   24  H   UNL     1      38.192 -12.473   5.095  1.00  0.00     0.210 HD
ENDBRANCH   2  23
BRANCH  10  25
HETATM   25  O   UNL     1      44.703 -11.946   3.148  1.00  0.00    -0.343 OA
HETATM   26  H   UNL     1      44.903 -12.897   3.166  1.00  0.00     0.219 HD
ENDBRANCH  10  25
TORSDOF 5
ENDMDL
MODEL 10
REMARK VINA RESULT:      -6.6     15.847     18.055
REMARK  5 active torsions:
REMARK  status: ('A' for Active; 'I' for Inactive)
REMARK    1  A    between atoms: C_2  and  O_3 
REMARK    2  A    between atoms: C_4  and  C_5 
REMARK    3  A    between atoms: C_5  and  O_6 
REMARK    4  A    between atoms: C_9  and  C_10 
REMARK    5  A    between atoms: C_22  and  O_23 
ROOT
HETATM    1  C   UNL     1      47.958 -32.623   1.103  1.00  0.00     0.047 C 
HETATM    2  C   UNL     1      49.218 -32.055   1.777  1.00  0.00     0.073 C 
HETATM    3  C   UNL     1      49.342 -30.512   1.544  1.00  0.00     0.133 C 
HETATM    4  C   UNL     1      49.863 -30.041   0.153  1.00  0.00     0.074 C 
HETATM    5  C   UNL     1      50.755 -31.053  -0.479  1.00  0.00     0.030 A 
HETATM    6  C   UNL     1      51.002 -32.302   0.051  1.00  0.00     0.042 A 
HETATM    7  N   UNL     1      51.900 -32.914  -0.778  1.00  0.00    -0.279 N 
HETATM    8  H   UNL     1      52.315 -33.837  -0.693  1.00  0.00     0.189 HD
HETATM    9  N   UNL     1      52.271 -32.133  -1.815  1.00  0.00    -0.149 NA
HETATM   10  C   UNL     1      51.589 -31.016  -1.597  1.00  0.00     0.190 A 
HETATM   11  C   UNL     1      50.467 -32.856   1.315  1.00  0.00     0.097 C 
ENDROOT
BRANCH   4  12
HETATM   12  C   UNL     1      48.736 -29.684  -0.816  1.00  0.00    -0.048 A 
HETATM   13  C   UNL     1      48.155 -28.405  -0.693  1.00  0.00     0.009 A 
HETATM   14  C   UNL     1      47.113 -27.999  -1.532  1.00  0.00     0.024 A 
HETATM   15  C   UNL     1      46.630 -28.868  -2.503  1.00  0.00     0.034 A 
HETATM   16 CL   UNL     1      45.348 -28.372  -3.538  1.00  0.00    -0.084 Cl
HETATM   17  C   UNL     1      47.181 -30.137  -2.642  1.00  0.00     0.024 A 
HETATM   18  C   UNL     1      48.227 -30.541  -1.805  1.00  0.00     0.009 A 
ENDBRANCH   4  12
BRANCH   3  19
HETATM   19  C   UNL     1      50.192 -29.884   2.635  1.00  0.00     0.266 C 
HETATM   20  O   UNL     1      51.415 -29.833   2.570  1.00  0.00    -0.265 OA
BRANCH  19  21
HETATM   21  O   UNL     1      49.450 -29.389   3.659  1.00  0.00    -0.326 OA
HETATM   22  C   UNL     1      48.249 -28.730   3.256  1.00  0.00     0.213 C 
ENDBRANCH  19  21
ENDBRANCH   3  19
BRANCH   2  23
HETATM   23  O   UNL     1      49.038 -32.328   3.181  1.00  0.00    -0.389 OA
HETATM   24  H   UNL     1      49.535 -31.667   3.697  1.00  0.00     0.210 HD
ENDBRANCH   2  23
BRANCH  10  25
HETATM   25  O   UNL     1      51.808 -30.035  -2.466  1.00  0.00    -0.343 OA
HETATM   26  H   UNL     1      51.089 -30.119  -3.114  1.00  0.00     0.219 HD
ENDBRANCH  10  25
TORSDOF 5
ENDMDL
