MODEL 1
REMARK VINA RESULT:      -9.6      0.000      0.000
REMARK  4 active torsions:
REMARK  status: ('A' for Active; 'I' for Inactive)
REMARK    1  A    between atoms: C_6  and  C_7 
REMARK    2  A    between atoms: C_10  and  N_11 
REMARK       I    between atoms: N_11  and  C_12 
REMARK    3  A    between atoms: C_24  and  C_25 
REMARK       I    between atoms: C_25  and  N_26 
REMARK    4  A    between atoms: N_26  and  C_27 
ROOT
HETATM    1  C   UNL     1      40.949 -15.010   0.598  1.00  0.00     0.070 C 
HETATM    2  C   UNL     1      40.932 -14.085   1.788  1.00  0.00     0.037 C 
HETATM    3  N   UNL     1      40.539 -12.777   1.517  1.00  0.00    -0.193 N 
HETATM    4  C   UNL     1      40.058 -11.947   2.466  1.00  0.00     0.709 A 
HETATM    5  N   UNL     1      40.209 -12.290   3.785  1.00  0.00    -0.165 N 
HETATM    6  C   UNL     1      40.975 -13.468   4.218  1.00  0.00     0.182 C 
HETATM    7  N   UNL     1      39.391 -10.831   2.328  1.00  0.00    -0.062 NA
HETATM    8  C   UNL     1      39.040 -10.468   3.610  1.00  0.00     0.103 A 
HETATM    9  C   UNL     1      39.528 -11.377   4.549  1.00  0.00     0.082 A 
HETATM   10  C   UNL     1      38.287  -9.367   4.048  1.00  0.00     0.034 A 
HETATM   11  C   UNL     1      38.042  -9.221   5.419  1.00  0.00     0.002 A 
HETATM   12  C   UNL     1      38.538 -10.148   6.337  1.00  0.00     0.002 A 
HETATM   13  C   UNL     1      39.297 -11.248   5.922  1.00  0.00     0.032 A 
HETATM   14  C   UNL     1      41.171 -14.455   3.073  1.00  0.00     0.061 C 
HETATM   15  H   UNL     1      40.268 -12.565   0.560  1.00  0.00     0.184 HD
ENDROOT
BRANCH   6  16
HETATM   16  C   UNL     1      42.287 -12.991   4.841  1.00  0.00    -0.030 A 
HETATM   17  C   UNL     1      42.619 -13.363   6.152  1.00  0.00     0.012 A 
HETATM   18  C   UNL     1      43.723 -12.794   6.803  1.00  0.00     0.030 A 
HETATM   19  C   UNL     1      44.523 -11.855   6.156  1.00  0.00     0.034 A 
HETATM   20  C   UNL     1      44.241 -11.536   4.823  1.00  0.00     0.030 A 
HETATM   21  C   UNL     1      43.136 -12.094   4.172  1.00  0.00     0.012 A 
BRANCH  19  22
HETATM   22  N   UNL     1      45.587 -11.160   6.770  1.00  0.00    -0.328 N 
HETATM   23  C   UNL     1      45.500 -10.094   7.648  1.00  0.00     0.218 C 
HETATM   24  C   UNL     1      46.857  -9.536   8.000  1.00  0.00     0.117 C 
HETATM   25  O   UNL     1      44.480  -9.617   8.134  1.00  0.00    -0.274 OA
HETATM   26  H   UNL     1      46.517 -11.431   6.478  1.00  0.00     0.169 HD
ENDBRANCH  19  22
ENDBRANCH   6  16
BRANCH  14  27
HETATM   27  C   UNL     1      41.429 -15.855   3.512  1.00  0.00     0.256 C 
HETATM   28  N   UNL     1      42.720 -16.286   3.305  1.00  0.00    -0.323 N 
HETATM   29  H   UNL     1      43.393 -15.597   3.000  1.00  0.00     0.169 HD
HETATM   30  O   UNL     1      40.513 -16.487   4.027  1.00  0.00    -0.267 OA
BRANCH  28  31
HETATM   31  C   UNL     1      43.188 -17.618   3.370  1.00  0.00     0.035 A 
HETATM   32  C   UNL     1      43.867 -18.154   4.467  1.00  0.00     0.029 A 
HETATM   33  C   UNL     1      44.240 -19.503   4.483  1.00  0.00     0.002 A 
HETATM   34  C   UNL     1      43.935 -20.328   3.405  1.00  0.00     0.000 A 
HETATM   35  C   UNL     1      43.264 -19.803   2.303  1.00  0.00     0.002 A 
HETATM   36  C   UNL     1      42.896 -18.455   2.285  1.00  0.00     0.029 A 
ENDBRANCH  28  31
ENDBRANCH  14  27
TORSDOF 4
ENDMDL
MODEL 2
REMARK VINA RESULT:      -9.4      2.217      7.000
REMARK  4 active torsions:
REMARK  status: ('A' for Active; 'I' for Inactive)
REMARK    1  A    between atoms: C_6  and  C_7 
REMARK    2  A    between atoms: C_10  and  N_11 
REMARK       I    between atoms: N_11  and  C_12 
REMARK    3  A    between atoms: C_24  and  C_25 
REMARK       I    between atoms: C_25  and  N_26 
REMARK    4  A    between atoms: N_26  and  C_27 
ROOT
HETATM    1  C   UNL     1      40.174 -10.538   5.525  1.00  0.00     0.070 C 
HETATM    2  C   UNL     1      40.356 -11.342   4.262  1.00  0.00     0.037 C 
HETATM    3  N   UNL     1      39.187 -11.603   3.552  1.00  0.00    -0.193 N 
HETATM    4  C   UNL     1      39.184 -11.912   2.238  1.00  0.00     0.709 A 
HETATM    5  N   UNL     1      40.368 -12.249   1.634  1.00  0.00    -0.165 N 
HETATM    6  C   UNL     1      41.626 -12.403   2.378  1.00  0.00     0.182 C 
HETATM    7  N   UNL     1      38.192 -11.893   1.387  1.00  0.00    -0.062 NA
HETATM    8  C   UNL     1      38.769 -12.168   0.166  1.00  0.00     0.103 A 
HETATM    9  C   UNL     1      40.142 -12.382   0.288  1.00  0.00     0.082 A 
HETATM   10  C   UNL     1      38.173 -12.242  -1.103  1.00  0.00     0.034 A 
HETATM   11  C   UNL     1      38.981 -12.520  -2.212  1.00  0.00     0.002 A 
HETATM   12  C   UNL     1      40.354 -12.726  -2.063  1.00  0.00     0.002 A 
HETATM   13  C   UNL     1      40.966 -12.664  -0.807  1.00  0.00     0.032 A 
HETATM   14  C   UNL     1      41.550 -11.727   3.742  1.00  0.00     0.061 C 
HETATM   15  H   UNL     1      38.325 -11.209   3.920  1.00  0.00     0.184 HD
ENDROOT
BRANCH   6  16
HETATM   16  C   UNL     1      41.964 -13.893   2.456  1.00  0.00    -0.030 A 
HETATM   17  C   UNL     1      43.133 -14.381   1.854  1.00  0.00     0.012 A 
HETATM   18  C   UNL     1      43.371 -15.759   1.757  1.00  0.00     0.030 A 
HETATM   19  C   UNL     1      42.454 -16.676   2.269  1.00  0.00     0.034 A 
HETATM   20  C   UNL     1      41.324 -16.193   2.937  1.00  0.00     0.030 A 
HETATM   21  C   UNL     1      41.078 -14.820   3.029  1.00  0.00     0.012 A 
BRANCH  19  22
HETATM   22  N   UNL     1      42.565 -18.075   2.124  1.00  0.00    -0.328 N 
HETATM   23  C   UNL     1      43.517 -18.907   2.687  1.00  0.00     0.218 C 
HETATM   24  C   UNL     1      43.384 -20.330   2.205  1.00  0.00     0.117 C 
HETATM   25  O   UNL     1      44.384 -18.597   3.497  1.00  0.00    -0.274 OA
HETATM   26  H   UNL     1      41.914 -18.504   1.479  1.00  0.00     0.169 HD
ENDBRANCH  19  22
ENDBRANCH   6  16
BRANCH  14  27
HETATM   27  C   UNL     1      42.876 -11.359   4.314  1.00  0.00     0.256 C 
HETATM   28  N   UNL     1      42.984 -11.561   5.672  1.00  0.00    -0.323 N 
HETATM   29  H   UNL     1      42.223 -12.044   6.129  1.00  0.00     0.169 HD
HETATM   30  O   UNL     1      43.746 -10.942   3.559  1.00  0.00    -0.267 OA
BRANCH  28  31
HETATM   31  C   UNL     1      44.000 -11.068   6.522  1.00  0.00     0.035 A 
HETATM   32  C   UNL     1      45.333 -11.483   6.468  1.00  0.00     0.029 A 
HETATM   33  C   UNL     1      46.294 -10.899   7.300  1.00  0.00     0.002 A 
HETATM   34  C   UNL     1      45.933  -9.893   8.191  1.00  0.00     0.000 A 
HETATM   35  C   UNL     1      44.607  -9.475   8.259  1.00  0.00     0.002 A 
HETATM   36  C   UNL     1      43.645 -10.063   7.431  1.00  0.00     0.029 A 
ENDBRANCH  28  31
ENDBRANCH  14  27
TORSDOF 4
ENDMDL
MODEL 3
REMARK VINA RESULT:      -8.6      1.371      2.050
REMARK  4 active torsions:
REMARK  status: ('A' for Active; 'I' for Inactive)
REMARK    1  A    between atoms: C_6  and  C_7 
REMARK    2  A    between atoms: C_10  and  N_11 
REMARK       I    between atoms: N_11  and  C_12 
REMARK    3  A    between atoms: C_24  and  C_25 
REMARK       I    between atoms: C_25  and  N_26 
REMARK    4  A    between atoms: N_26  and  C_27 
ROOT
HETATM    1  C   UNL     1      43.024 -16.335   1.146  1.00  0.00     0.070 C 
HETATM    2  C   UNL     1      42.478 -15.091   1.801  1.00  0.00     0.037 C 
HETATM    3  N   UNL     1      42.269 -14.013   0.945  1.00  0.00    -0.193 N 
HETATM    4  C   UNL     1      41.420 -13.006   1.234  1.00  0.00     0.709 A 
HETATM    5  N   UNL     1      40.947 -12.883   2.515  1.00  0.00    -0.165 N 
HETATM    6  C   UNL     1      41.415 -13.732   3.621  1.00  0.00     0.182 C 
HETATM    7  N   UNL     1      40.904 -12.105   0.438  1.00  0.00    -0.062 NA
HETATM    8  C   UNL     1      40.011 -11.409   1.223  1.00  0.00     0.103 A 
HETATM    9  C   UNL     1      40.005 -11.886   2.534  1.00  0.00     0.082 A 
HETATM   10  C   UNL     1      39.156 -10.352   0.874  1.00  0.00     0.034 A 
HETATM   11  C   UNL     1      38.314  -9.814   1.855  1.00  0.00     0.002 A 
HETATM   12  C   UNL     1      38.324 -10.314   3.159  1.00  0.00     0.002 A 
HETATM   13  C   UNL     1      39.173 -11.362   3.529  1.00  0.00     0.032 A 
HETATM   14  C   UNL     1      42.099 -14.992   3.101  1.00  0.00     0.061 C 
HETATM   15  H   UNL     1      42.468 -14.161  -0.041  1.00  0.00     0.184 HD
ENDROOT
BRANCH   6  16
HETATM   16  C   UNL     1      42.304 -12.890   4.536  1.00  0.00    -0.030 A 
HETATM   17  C   UNL     1      43.410 -12.208   4.009  1.00  0.00     0.012 A 
HETATM   18  C   UNL     1      44.338 -11.580   4.852  1.00  0.00     0.030 A 
HETATM   19  C   UNL     1      44.173 -11.609   6.236  1.00  0.00     0.034 A 
HETATM   20  C   UNL     1      43.031 -12.223   6.763  1.00  0.00     0.030 A 
HETATM   21  C   UNL     1      42.108 -12.858   5.927  1.00  0.00     0.012 A 
BRANCH  19  22
HETATM   22  N   UNL     1      45.108 -11.094   7.158  1.00  0.00    -0.328 N 
HETATM   23  C   UNL     1      45.007  -9.928   7.896  1.00  0.00     0.218 C 
HETATM   24  C   UNL     1      46.262  -9.645   8.685  1.00  0.00     0.117 C 
HETATM   25  O   UNL     1      44.042  -9.174   7.961  1.00  0.00    -0.274 OA
HETATM   26  H   UNL     1      45.979 -11.603   7.232  1.00  0.00     0.169 HD
ENDBRANCH  19  22
ENDBRANCH   6  16
BRANCH  14  27
HETATM   27  C   UNL     1      42.109 -16.123   4.072  1.00  0.00     0.256 C 
HETATM   28  N   UNL     1      43.318 -16.773   4.172  1.00  0.00    -0.323 N 
HETATM   29  H   UNL     1      44.105 -16.361   3.690  1.00  0.00     0.169 HD
HETATM   30  O   UNL     1      41.086 -16.366   4.700  1.00  0.00    -0.267 OA
BRANCH  28  31
HETATM   31  C   UNL     1      43.559 -18.020   4.792  1.00  0.00     0.035 A 
HETATM   32  C   UNL     1      43.378 -18.261   6.156  1.00  0.00     0.029 A 
HETATM   33  C   UNL     1      43.574 -19.542   6.684  1.00  0.00     0.002 A 
HETATM   34  C   UNL     1      43.950 -20.594   5.853  1.00  0.00     0.000 A 
HETATM   35  C   UNL     1      44.140 -20.364   4.493  1.00  0.00     0.002 A 
HETATM   36  C   UNL     1      43.949 -19.083   3.967  1.00  0.00     0.029 A 
ENDBRANCH  28  31
ENDBRANCH  14  27
TORSDOF 4
ENDMDL
MODEL 4
REMARK VINA RESULT:      -8.6      2.737      5.356
REMARK  4 active torsions:
REMARK  status: ('A' for Active; 'I' for Inactive)
REMARK    1  A    between atoms: C_6  and  C_7 
REMARK    2  A    between atoms: C_10  and  N_11 
REMARK       I    between atoms: N_11  and  C_12 
REMARK    3  A    between atoms: C_24  and  C_25 
REMARK       I    between atoms: C_25  and  N_26 
REMARK    4  A    between atoms: N_26  and  C_27 
ROOT
HETATM    1  C   UNL     1      40.184 -15.695   6.775  1.00  0.00     0.070 C 
HETATM    2  C   UNL     1      40.279 -14.382   6.040  1.00  0.00     0.037 C 
HETATM    3  N   UNL     1      39.371 -13.407   6.448  1.00  0.00    -0.193 N 
HETATM    4  C   UNL     1      39.569 -12.090   6.234  1.00  0.00     0.709 A 
HETATM    5  N   UNL     1      40.547 -11.700   5.355  1.00  0.00    -0.165 N 
HETATM    6  C   UNL     1      41.316 -12.656   4.546  1.00  0.00     0.182 C 
HETATM    7  N   UNL     1      38.983 -11.064   6.795  1.00  0.00    -0.062 NA
HETATM    8  C   UNL     1      39.653  -9.963   6.306  1.00  0.00     0.103 A 
HETATM    9  C   UNL     1      40.655 -10.333   5.409  1.00  0.00     0.082 A 
HETATM   10  C   UNL     1      39.462  -8.604   6.598  1.00  0.00     0.034 A 
HETATM   11  C   UNL     1      40.292  -7.659   5.983  1.00  0.00     0.002 A 
HETATM   12  C   UNL     1      41.291  -8.057   5.092  1.00  0.00     0.002 A 
HETATM   13  C   UNL     1      41.493  -9.406   4.782  1.00  0.00     0.032 A 
HETATM   14  C   UNL     1      41.220 -14.067   5.113  1.00  0.00     0.061 C 
HETATM   15  H   UNL     1      38.751 -13.646   7.217  1.00  0.00     0.184 HD
ENDROOT
BRANCH   6  16
HETATM   16  C   UNL     1      40.846 -12.550   3.094  1.00  0.00    -0.030 A 
HETATM   17  C   UNL     1      39.476 -12.530   2.799  1.00  0.00     0.012 A 
HETATM   18  C   UNL     1      39.023 -12.614   1.475  1.00  0.00     0.030 A 
HETATM   19  C   UNL     1      39.929 -12.706   0.419  1.00  0.00     0.034 A 
HETATM   20  C   UNL     1      41.299 -12.650   0.703  1.00  0.00     0.030 A 
HETATM   21  C   UNL     1      41.754 -12.575   2.023  1.00  0.00     0.012 A 
BRANCH  19  22
HETATM   22  N   UNL     1      39.561 -12.897  -0.929  1.00  0.00    -0.328 N 
HETATM   23  C   UNL     1      39.308 -14.097  -1.570  1.00  0.00     0.218 C 
HETATM   24  C   UNL     1      39.060 -13.910  -3.047  1.00  0.00     0.117 C 
HETATM   25  O   UNL     1      39.261 -15.212  -1.062  1.00  0.00    -0.274 OA
HETATM   26  H   UNL     1      39.549 -12.065  -1.504  1.00  0.00     0.169 HD
ENDBRANCH  19  22
ENDBRANCH   6  16
BRANCH  14  27
HETATM   27  C   UNL     1      42.348 -14.960   4.721  1.00  0.00     0.256 C 
HETATM   28  N   UNL     1      41.977 -16.032   3.940  1.00  0.00    -0.323 N 
HETATM   29  H   UNL     1      41.024 -16.051   3.604  1.00  0.00     0.169 HD
HETATM   30  O   UNL     1      43.479 -14.671   5.089  1.00  0.00    -0.267 OA
BRANCH  28  31
HETATM   31  C   UNL     1      42.759 -17.170   3.642  1.00  0.00     0.035 A 
HETATM   32  C   UNL     1      43.709 -17.715   4.509  1.00  0.00     0.029 A 
HETATM   33  C   UNL     1      44.396 -18.885   4.169  1.00  0.00     0.002 A 
HETATM   34  C   UNL     1      44.138 -19.523   2.959  1.00  0.00     0.000 A 
HETATM   35  C   UNL     1      43.198 -18.987   2.083  1.00  0.00     0.002 A 
HETATM   36  C   UNL     1      42.515 -17.815   2.422  1.00  0.00     0.029 A 
ENDBRANCH  28  31
ENDBRANCH  14  27
TORSDOF 4
ENDMDL
MODEL 5
REMARK VINA RESULT:      -8.5      3.295      6.836
REMARK  4 active torsions:
REMARK  status: ('A' for Active; 'I' for Inactive)
REMARK    1  A    between atoms: C_6  and  C_7 
REMARK    2  A    between atoms: C_10  and  N_11 
REMARK       I    between atoms: N_11  and  C_12 
REMARK    3  A    between atoms: C_24  and  C_25 
REMARK       I    between atoms: C_25  and  N_26 
REMARK    4  A    between atoms: N_26  and  C_27 
ROOT
HETATM    1  C   UNL     1      37.552 -11.333   1.532  1.00  0.00     0.070 C 
HETATM    2  C   UNL     1      38.839 -11.998   1.953  1.00  0.00     0.037 C 
HETATM    3  N   UNL     1      38.705 -13.298   2.435  1.00  0.00    -0.193 N 
HETATM    4  C   UNL     1      39.725 -14.180   2.450  1.00  0.00     0.709 A 
HETATM    5  N   UNL     1      41.001 -13.722   2.244  1.00  0.00    -0.165 N 
HETATM    6  C   UNL     1      41.323 -12.292   2.121  1.00  0.00     0.182 C 
HETATM    7  N   UNL     1      39.692 -15.480   2.587  1.00  0.00    -0.062 NA
HETATM    8  C   UNL     1      40.995 -15.888   2.399  1.00  0.00     0.103 A 
HETATM    9  C   UNL     1      41.840 -14.804   2.164  1.00  0.00     0.082 A 
HETATM   10  C   UNL     1      41.530 -17.186   2.403  1.00  0.00     0.034 A 
HETATM   11  C   UNL     1      42.899 -17.352   2.163  1.00  0.00     0.002 A 
HETATM   12  C   UNL     1      43.723 -16.249   1.927  1.00  0.00     0.002 A 
HETATM   13  C   UNL     1      43.211 -14.947   1.925  1.00  0.00     0.032 A 
HETATM   14  C   UNL     1      40.080 -11.469   1.804  1.00  0.00     0.061 C 
HETATM   15  H   UNL     1      37.770 -13.697   2.434  1.00  0.00     0.184 HD
ENDROOT
BRANCH   6  16
HETATM   16  C   UNL     1      42.040 -11.846   3.396  1.00  0.00    -0.030 A 
HETATM   17  C   UNL     1      43.423 -11.618   3.381  1.00  0.00     0.012 A 
HETATM   18  C   UNL     1      44.127 -11.384   4.571  1.00  0.00     0.030 A 
HETATM   19  C   UNL     1      43.462 -11.361   5.796  1.00  0.00     0.034 A 
HETATM   20  C   UNL     1      42.071 -11.513   5.809  1.00  0.00     0.030 A 
HETATM   21  C   UNL     1      41.367 -11.755   4.625  1.00  0.00     0.012 A 
BRANCH  19  22
HETATM   22  N   UNL     1      44.105 -11.236   7.046  1.00  0.00    -0.328 N 
HETATM   23  C   UNL     1      44.120 -10.130   7.877  1.00  0.00     0.218 C 
HETATM   24  C   UNL     1      45.015 -10.332   9.075  1.00  0.00     0.117 C 
HETATM   25  O   UNL     1      43.497  -9.085   7.729  1.00  0.00    -0.274 OA
HETATM   26  H   UNL     1      44.674 -12.023   7.329  1.00  0.00     0.169 HD
ENDBRANCH  19  22
ENDBRANCH   6  16
BRANCH  14  27
HETATM   27  C   UNL     1      40.367 -10.164   1.142  1.00  0.00     0.256 C 
HETATM   28  N   UNL     1      40.609 -10.255  -0.210  1.00  0.00    -0.323 N 
HETATM   29  H   UNL     1      40.451 -11.152  -0.648  1.00  0.00     0.169 HD
HETATM   30  O   UNL     1      40.343  -9.145   1.821  1.00  0.00    -0.267 OA
BRANCH  28  31
HETATM   31  C   UNL     1      41.159  -9.253  -1.040  1.00  0.00     0.035 A 
HETATM   32  C   UNL     1      42.475  -8.794  -0.942  1.00  0.00     0.029 A 
HETATM   33  C   UNL     1      42.967  -7.845  -1.846  1.00  0.00     0.002 A 
HETATM   34  C   UNL     1      42.148  -7.348  -2.856  1.00  0.00     0.000 A 
HETATM   35  C   UNL     1      40.834  -7.793  -2.960  1.00  0.00     0.002 A 
HETATM   36  C   UNL     1      40.341  -8.738  -2.054  1.00  0.00     0.029 A 
ENDBRANCH  28  31
ENDBRANCH  14  27
TORSDOF 4
ENDMDL
MODEL 6
REMARK VINA RESULT:      -8.1     16.707     20.046
REMARK  4 active torsions:
REMARK  status: ('A' for Active; 'I' for Inactive)
REMARK    1  A    between atoms: C_6  and  C_7 
REMARK    2  A    between atoms: C_10  and  N_11 
REMARK       I    between atoms: N_11  and  C_12 
REMARK    3  A    between atoms: C_24  and  C_25 
REMARK       I    between atoms: C_25  and  N_26 
REMARK    4  A    between atoms: N_26  and  C_27 
ROOT
HETATM    1  C   UNL     1      45.118 -27.686  -2.082  1.00  0.00     0.070 C 
HETATM    2  C   UNL     1      46.104 -28.538  -1.324  1.00  0.00     0.037 C 
HETATM    3  N   UNL     1      46.709 -27.917  -0.234  1.00  0.00    -0.193 N 
HETATM    4  C   UNL     1      47.263 -28.607   0.784  1.00  0.00     0.709 A 
HETATM    5  N   UNL     1      47.488 -29.951   0.631  1.00  0.00    -0.165 N 
HETATM    6  C   UNL     1      47.259 -30.655  -0.639  1.00  0.00     0.182 C 
HETATM    7  N   UNL     1      47.593 -28.193   1.981  1.00  0.00    -0.062 NA
HETATM    8  C   UNL     1      47.990 -29.329   2.651  1.00  0.00     0.103 A 
HETATM    9  C   UNL     1      47.919 -30.455   1.831  1.00  0.00     0.082 A 
HETATM   10  C   UNL     1      48.418 -29.474   3.980  1.00  0.00     0.034 A 
HETATM   11  C   UNL     1      48.753 -30.752   4.444  1.00  0.00     0.002 A 
HETATM   12  C   UNL     1      48.669 -31.864   3.604  1.00  0.00     0.002 A 
HETATM   13  C   UNL     1      48.252 -31.740   2.274  1.00  0.00     0.032 A 
HETATM   14  C   UNL     1      46.356 -29.850  -1.566  1.00  0.00     0.061 C 
HETATM   15  H   UNL     1      46.417 -26.966  -0.023  1.00  0.00     0.184 HD
ENDROOT
BRANCH   6  16
HETATM   16  C   UNL     1      48.617 -30.995  -1.256  1.00  0.00    -0.030 A 
HETATM   17  C   UNL     1      49.543 -29.976  -1.521  1.00  0.00     0.012 A 
HETATM   18  C   UNL     1      50.714 -30.238  -2.246  1.00  0.00     0.030 A 
HETATM   19  C   UNL     1      50.990 -31.524  -2.709  1.00  0.00     0.034 A 
HETATM   20  C   UNL     1      50.106 -32.559  -2.382  1.00  0.00     0.030 A 
HETATM   21  C   UNL     1      48.933 -32.300  -1.667  1.00  0.00     0.012 A 
BRANCH  19  22
HETATM   22  N   UNL     1      52.088 -31.854  -3.530  1.00  0.00    -0.328 N 
HETATM   23  C   UNL     1      53.329 -32.318  -3.130  1.00  0.00     0.218 C 
HETATM   24  C   UNL     1      54.288 -32.444  -4.288  1.00  0.00     0.117 C 
HETATM   25  O   UNL     1      53.673 -32.621  -1.993  1.00  0.00    -0.274 OA
HETATM   26  H   UNL     1      51.973 -31.663  -4.517  1.00  0.00     0.169 HD
ENDBRANCH  19  22
ENDBRANCH   6  16
BRANCH  14  27
HETATM   27  C   UNL     1      45.646 -30.670  -2.588  1.00  0.00     0.256 C 
HETATM   28  N   UNL     1      46.180 -30.585  -3.855  1.00  0.00    -0.323 N 
HETATM   29  H   UNL     1      47.056 -30.090  -3.954  1.00  0.00     0.169 HD
HETATM   30  O   UNL     1      44.691 -31.350  -2.234  1.00  0.00    -0.267 OA
BRANCH  28  31
HETATM   31  C   UNL     1      45.581 -31.025  -5.056  1.00  0.00     0.035 A 
HETATM   32  C   UNL     1      44.334 -30.588  -5.513  1.00  0.00     0.029 A 
HETATM   33  C   UNL     1      43.838 -31.020  -6.748  1.00  0.00     0.002 A 
HETATM   34  C   UNL     1      44.583 -31.889  -7.538  1.00  0.00     0.000 A 
HETATM   35  C   UNL     1      45.824 -32.336  -7.091  1.00  0.00     0.002 A 
HETATM   36  C   UNL     1      46.317 -31.909  -5.855  1.00  0.00     0.029 A 
ENDBRANCH  28  31
ENDBRANCH  14  27
TORSDOF 4
ENDMDL
MODEL 7
REMARK VINA RESULT:      -8.0      3.009      5.763
REMARK  4 active torsions:
REMARK  status: ('A' for Active; 'I' for Inactive)
REMARK    1  A    between atoms: C_6  and  C_7 
REMARK    2  A    between atoms: C_10  and  N_11 
REMARK       I    between atoms: N_11  and  C_12 
REMARK    3  A    between atoms: C_24  and  C_25 
REMARK       I    between atoms: C_25  and  N_26 
REMARK    4  A    between atoms: N_26  and  C_27 
ROOT
HETATM    1  C   UNL     1      40.968  -9.233   0.594  1.00  0.00     0.070 C 
HETATM    2  C   UNL     1      40.868  -9.849   1.966  1.00  0.00     0.037 C 
HETATM    3  N   UNL     1      41.427  -9.097   2.996  1.00  0.00    -0.193 N 
HETATM    4  C   UNL     1      41.074  -9.252   4.289  1.00  0.00     0.709 A 
HETATM    5  N   UNL     1      40.348 -10.359   4.650  1.00  0.00    -0.165 N 
HETATM    6  C   UNL     1      40.035 -11.446   3.711  1.00  0.00     0.182 C 
HETATM    7  N   UNL     1      41.277  -8.452   5.304  1.00  0.00    -0.062 NA
HETATM    8  C   UNL     1      40.600  -9.035   6.353  1.00  0.00     0.103 A 
HETATM    9  C   UNL     1      39.992 -10.229   5.968  1.00  0.00     0.082 A 
HETATM   10  C   UNL     1      40.454  -8.586   7.675  1.00  0.00     0.034 A 
HETATM   11  C   UNL     1      39.691  -9.351   8.566  1.00  0.00     0.002 A 
HETATM   12  C   UNL     1      39.089 -10.541   8.153  1.00  0.00     0.002 A 
HETATM   13  C   UNL     1      39.228 -11.009   6.842  1.00  0.00     0.032 A 
HETATM   14  C   UNL     1      40.205 -10.996   2.264  1.00  0.00     0.061 C 
HETATM   15  H   UNL     1      41.822  -8.194   2.747  1.00  0.00     0.184 HD
ENDROOT
BRANCH   6  16
HETATM   16  C   UNL     1      40.889 -12.661   4.075  1.00  0.00    -0.030 A 
HETATM   17  C   UNL     1      42.249 -12.691   3.736  1.00  0.00     0.012 A 
HETATM   18  C   UNL     1      43.006 -13.861   3.897  1.00  0.00     0.030 A 
HETATM   19  C   UNL     1      42.423 -15.018   4.412  1.00  0.00     0.034 A 
HETATM   20  C   UNL     1      41.086 -14.972   4.822  1.00  0.00     0.030 A 
HETATM   21  C   UNL     1      40.326 -13.810   4.654  1.00  0.00     0.012 A 
BRANCH  19  22
HETATM   22  N   UNL     1      43.082 -16.262   4.511  1.00  0.00    -0.328 N 
HETATM   23  C   UNL     1      43.350 -17.156   3.489  1.00  0.00     0.218 C 
HETATM   24  C   UNL     1      43.963 -18.436   4.001  1.00  0.00     0.117 C 
HETATM   25  O   UNL     1      43.152 -16.990   2.290  1.00  0.00    -0.274 OA
HETATM   26  H   UNL     1      43.321 -16.560   5.447  1.00  0.00     0.169 HD
ENDBRANCH  19  22
ENDBRANCH   6  16
BRANCH  14  27
HETATM   27  C   UNL     1      39.420 -11.796   1.282  1.00  0.00     0.256 C 
HETATM   28  N   UNL     1      40.187 -12.562   0.432  1.00  0.00    -0.323 N 
HETATM   29  H   UNL     1      41.178 -12.613   0.625  1.00  0.00     0.169 HD
HETATM   30  O   UNL     1      38.197 -11.732   1.317  1.00  0.00    -0.267 OA
BRANCH  28  31
HETATM   31  C   UNL     1      39.755 -13.204  -0.750  1.00  0.00     0.035 A 
HETATM   32  C   UNL     1      39.564 -14.583  -0.864  1.00  0.00     0.029 A 
HETATM   33  C   UNL     1      39.069 -15.137  -2.050  1.00  0.00     0.002 A 
HETATM   34  C   UNL     1      38.758 -14.317  -3.131  1.00  0.00     0.000 A 
HETATM   35  C   UNL     1      38.950 -12.942  -3.031  1.00  0.00     0.002 A 
HETATM   36  C   UNL     1      39.449 -12.389  -1.848  1.00  0.00     0.029 A 
ENDBRANCH  28  31
ENDBRANCH  14  27
TORSDOF 4
ENDMDL
MODEL 8
REMARK VINA RESULT:      -7.9     16.553     19.040
REMARK  4 active torsions:
REMARK  status: ('A' for Active; 'I' for Inactive)
REMARK    1  A    between atoms: C_6  and  C_7 
REMARK    2  A    between atoms: C_10  and  N_11 
REMARK       I    between atoms: N_11  and  C_12 
REMARK    3  A    between atoms: C_24  and  C_25 
REMARK       I    between atoms: C_25  and  N_26 
REMARK    4  A    between atoms: N_26  and  C_27 
ROOT
HETATM    1  C   UNL     1      47.300 -28.134   2.066  1.00  0.00     0.070 C 
HETATM    2  C   UNL     1      46.342 -28.820   1.125  1.00  0.00     0.037 C 
HETATM    3  N   UNL     1      45.904 -28.044   0.054  1.00  0.00    -0.193 N 
HETATM    4  C   UNL     1      45.416 -28.579  -1.084  1.00  0.00     0.709 A 
HETATM    5  N   UNL     1      45.080 -29.908  -1.102  1.00  0.00    -0.165 N 
HETATM    6  C   UNL     1      45.119 -30.755   0.100  1.00  0.00     0.182 C 
HETATM    7  N   UNL     1      45.246 -28.019  -2.254  1.00  0.00    -0.062 NA
HETATM    8  C   UNL     1      44.844 -29.046  -3.081  1.00  0.00     0.103 A 
HETATM    9  C   UNL     1      44.745 -30.251  -2.386  1.00  0.00     0.082 A 
HETATM   10  C   UNL     1      44.552 -29.019  -4.454  1.00  0.00     0.034 A 
HETATM   11  C   UNL     1      44.179 -30.211  -5.087  1.00  0.00     0.002 A 
HETATM   12  C   UNL     1      44.092 -31.405  -4.369  1.00  0.00     0.002 A 
HETATM   13  C   UNL     1      44.371 -31.452  -2.999  1.00  0.00     0.032 A 
HETATM   14  C   UNL     1      45.972 -30.125   1.195  1.00  0.00     0.061 C 
HETATM   15  H   UNL     1      46.285 -27.104  -0.021  1.00  0.00     0.184 HD
ENDROOT
BRANCH   6  16
HETATM   16  C   UNL     1      43.682 -31.041   0.537  1.00  0.00    -0.030 A 
HETATM   17  C   UNL     1      42.957 -30.075   1.250  1.00  0.00     0.012 A 
HETATM   18  C   UNL     1      41.711 -30.381   1.814  1.00  0.00     0.030 A 
HETATM   19  C   UNL     1      41.157 -31.652   1.667  1.00  0.00     0.034 A 
HETATM   20  C   UNL     1      41.840 -32.596   0.893  1.00  0.00     0.030 A 
HETATM   21  C   UNL     1      43.088 -32.298   0.337  1.00  0.00     0.012 A 
BRANCH  19  22
HETATM   22  N   UNL     1      39.961 -32.073   2.286  1.00  0.00    -0.328 N 
HETATM   23  C   UNL     1      39.830 -32.788   3.463  1.00  0.00     0.218 C 
HETATM   24  C   UNL     1      38.395 -33.160   3.744  1.00  0.00     0.117 C 
HETATM   25  O   UNL     1      40.724 -33.104   4.240  1.00  0.00    -0.274 OA
HETATM   26  H   UNL     1      39.111 -31.889   1.771  1.00  0.00     0.169 HD
ENDBRANCH  19  22
ENDBRANCH   6  16
BRANCH  14  27
HETATM   27  C   UNL     1      46.507 -31.100   2.187  1.00  0.00     0.256 C 
HETATM   28  N   UNL     1      45.751 -31.218   3.332  1.00  0.00    -0.323 N 
HETATM   29  H   UNL     1      44.859 -30.744   3.346  1.00  0.00     0.169 HD
HETATM   30  O   UNL     1      47.529 -31.717   1.910  1.00  0.00    -0.267 OA
BRANCH  28  31
HETATM   31  C   UNL     1      46.135 -31.847   4.537  1.00  0.00     0.035 A 
HETATM   32  C   UNL     1      46.725 -31.179   5.613  1.00  0.00     0.029 A 
HETATM   33  C   UNL     1      47.015 -31.859   6.801  1.00  0.00     0.002 A 
HETATM   34  C   UNL     1      46.716 -33.213   6.925  1.00  0.00     0.000 A 
HETATM   35  C   UNL     1      46.134 -33.891   5.858  1.00  0.00     0.002 A 
HETATM   36  C   UNL     1      45.848 -33.212   4.669  1.00  0.00     0.029 A 
ENDBRANCH  28  31
ENDBRANCH  14  27
TORSDOF 4
ENDMDL
MODEL 9
REMARK VINA RESULT:      -7.8     16.797     20.618
REMARK  4 active torsions:
REMARK  status: ('A' for Active; 'I' for Inactive)
REMARK    1  A    between atoms: C_6  and  C_7 
REMARK    2  A    between atoms: C_10  and  N_11 
REMARK       I    between atoms: N_11  and  C_12 
REMARK    3  A    between atoms: C_24  and  C_25 
REMARK       I    between atoms: C_25  and  N_26 
REMARK    4  A    between atoms: N_26  and  C_27 
ROOT
HETATM    1  C   UNL     1      46.512 -28.095   0.545  1.00  0.00     0.070 C 
HETATM    2  C   UNL     1      47.653 -29.033   0.848  1.00  0.00     0.037 C 
HETATM    3  N   UNL     1      48.435 -28.680   1.945  1.00  0.00    -0.193 N 
HETATM    4  C   UNL     1      49.195 -29.570   2.616  1.00  0.00     0.709 A 
HETATM    5  N   UNL     1      49.430 -30.799   2.055  1.00  0.00    -0.165 N 
HETATM    6  C   UNL     1      48.986 -31.152   0.698  1.00  0.00     0.182 C 
HETATM    7  N   UNL     1      49.735 -29.467   3.803  1.00  0.00    -0.062 NA
HETATM    8  C   UNL     1      50.290 -30.705   4.047  1.00  0.00     0.103 A 
HETATM    9  C   UNL     1      50.100 -31.570   2.970  1.00  0.00     0.082 A 
HETATM   10  C   UNL     1      50.969 -31.166   5.186  1.00  0.00     0.034 A 
HETATM   11  C   UNL     1      51.428 -32.488   5.207  1.00  0.00     0.002 A 
HETATM   12  C   UNL     1      51.221 -33.336   4.117  1.00  0.00     0.002 A 
HETATM   13  C   UNL     1      50.553 -32.894   2.970  1.00  0.00     0.032 A 
HETATM   14  C   UNL     1      47.896 -30.205   0.208  1.00  0.00     0.061 C 
HETATM   15  H   UNL     1      48.158 -27.850   2.462  1.00  0.00     0.184 HD
ENDROOT
BRANCH   6  16
HETATM   16  C   UNL     1      50.211 -31.196  -0.216  1.00  0.00    -0.030 A 
HETATM   17  C   UNL     1      50.381 -30.224  -1.212  1.00  0.00     0.012 A 
HETATM   18  C   UNL     1      51.394 -30.346  -2.172  1.00  0.00     0.030 A 
HETATM   19  C   UNL     1      52.266 -31.434  -2.150  1.00  0.00     0.034 A 
HETATM   20  C   UNL     1      52.149 -32.368  -1.115  1.00  0.00     0.030 A 
HETATM   21  C   UNL     1      51.133 -32.254  -0.160  1.00  0.00     0.012 A 
BRANCH  19  22
HETATM   22  N   UNL     1      53.244 -31.688  -3.135  1.00  0.00    -0.328 N 
HETATM   23  C   UNL     1      53.092 -32.408  -4.306  1.00  0.00     0.218 C 
HETATM   24  C   UNL     1      54.396 -32.567  -5.049  1.00  0.00     0.117 C 
HETATM   25  O   UNL     1      52.053 -32.879  -4.756  1.00  0.00    -0.274 OA
HETATM   26  H   UNL     1      54.178 -31.362  -2.922  1.00  0.00     0.169 HD
ENDBRANCH  19  22
ENDBRANCH   6  16
BRANCH  14  27
HETATM   27  C   UNL     1      47.030 -30.777  -0.863  1.00  0.00     0.256 C 
HETATM   28  N   UNL     1      46.999 -30.035  -2.023  1.00  0.00    -0.323 N 
HETATM   29  H   UNL     1      47.644 -29.260  -2.093  1.00  0.00     0.169 HD
HETATM   30  O   UNL     1      46.452 -31.835  -0.647  1.00  0.00    -0.267 OA
BRANCH  28  31
HETATM   31  C   UNL     1      46.084 -30.174  -3.090  1.00  0.00     0.035 A 
HETATM   32  C   UNL     1      46.253 -31.065  -4.153  1.00  0.00     0.029 A 
HETATM   33  C   UNL     1      45.268 -31.193  -5.139  1.00  0.00     0.002 A 
HETATM   34  C   UNL     1      44.104 -30.433  -5.070  1.00  0.00     0.000 A 
HETATM   35  C   UNL     1      43.927 -29.537  -4.019  1.00  0.00     0.002 A 
HETATM   36  C   UNL     1      44.913 -29.406  -3.037  1.00  0.00     0.029 A 
ENDBRANCH  28  31
ENDBRANCH  14  27
TORSDOF 4
ENDMDL
MODEL 10
REMARK VINA RESULT:      -7.8      4.179      7.845
REMARK  4 active torsions:
REMARK  status: ('A' for Active; 'I' for Inactive)
REMARK    1  A    between atoms: C_6  and  C_7 
REMARK    2  A    between atoms: C_10  and  N_11 
REMARK       I    between atoms: N_11  and  C_12 
REMARK    3  A    between atoms: C_24  and  C_25 
REMARK       I    between atoms: C_25  and  N_26 
REMARK    4  A    between atoms: N_26  and  C_27 
ROOT
HETATM    1  C   UNL     1      38.757 -13.912  -2.988  1.00  0.00     0.070 C 
HETATM    2  C   UNL     1      39.426 -13.752  -1.646  1.00  0.00     0.037 C 
HETATM    3  N   UNL     1      39.109 -14.729  -0.705  1.00  0.00    -0.193 N 
HETATM    4  C   UNL     1      39.896 -15.003   0.356  1.00  0.00     0.709 A 
HETATM    5  N   UNL     1      40.897 -14.125   0.684  1.00  0.00    -0.165 N 
HETATM    6  C   UNL     1      41.081 -12.836   0.000  1.00  0.00     0.182 C 
HETATM    7  N   UNL     1      39.894 -16.052   1.138  1.00  0.00    -0.062 NA
HETATM    8  C   UNL     1      40.980 -15.875   1.968  1.00  0.00     0.103 A 
HETATM    9  C   UNL     1      41.641 -14.678   1.695  1.00  0.00     0.082 A 
HETATM   10  C   UNL     1      41.470 -16.714   2.981  1.00  0.00     0.034 A 
HETATM   11  C   UNL     1      42.617 -16.324   3.682  1.00  0.00     0.002 A 
HETATM   12  C   UNL     1      43.263 -15.122   3.386  1.00  0.00     0.002 A 
HETATM   13  C   UNL     1      42.787 -14.268   2.385  1.00  0.00     0.032 A 
HETATM   14  C   UNL     1      40.356 -12.811  -1.340  1.00  0.00     0.061 C 
HETATM   15  H   UNL     1      38.489 -15.476  -1.006  1.00  0.00     0.184 HD
ENDROOT
BRANCH   6  16
HETATM   16  C   UNL     1      40.645 -11.719   0.949  1.00  0.00    -0.030 A 
HETATM   17  C   UNL     1      41.598 -10.843   1.489  1.00  0.00     0.012 A 
HETATM   18  C   UNL     1      41.250  -9.930   2.494  1.00  0.00     0.030 A 
HETATM   19  C   UNL     1      39.942  -9.865   2.971  1.00  0.00     0.034 A 
HETATM   20  C   UNL     1      38.970 -10.683   2.384  1.00  0.00     0.030 A 
HETATM   21  C   UNL     1      39.316 -11.601   1.387  1.00  0.00     0.012 A 
BRANCH  19  22
HETATM   22  N   UNL     1      39.529  -9.051   4.048  1.00  0.00    -0.328 N 
HETATM   23  C   UNL     1      39.669  -9.310   5.400  1.00  0.00     0.218 C 
HETATM   24  C   UNL     1      38.996  -8.262   6.251  1.00  0.00     0.117 C 
HETATM   25  O   UNL     1      40.266 -10.249   5.915  1.00  0.00    -0.274 OA
HETATM   26  H   UNL     1      39.011  -8.219   3.797  1.00  0.00     0.169 HD
ENDBRANCH  19  22
ENDBRANCH   6  16
BRANCH  14  27
HETATM   27  C   UNL     1      40.905 -11.822  -2.311  1.00  0.00     0.256 C 
HETATM   28  N   UNL     1      40.509 -10.523  -2.083  1.00  0.00    -0.323 N 
HETATM   29  H   UNL     1      40.000 -10.339  -1.230  1.00  0.00     0.169 HD
HETATM   30  O   UNL     1      41.658 -12.221  -3.191  1.00  0.00    -0.267 OA
BRANCH  28  31
HETATM   31  C   UNL     1      40.645  -9.430  -2.969  1.00  0.00     0.035 A 
HETATM   32  C   UNL     1      41.596  -8.417  -2.818  1.00  0.00     0.029 A 
HETATM   33  C   UNL     1      41.712  -7.403  -3.775  1.00  0.00     0.002 A 
HETATM   34  C   UNL     1      40.882  -7.394  -4.892  1.00  0.00     0.000 A 
HETATM   35  C   UNL     1      39.927  -8.394  -5.050  1.00  0.00     0.002 A 
HETATM   36  C   UNL     1      39.807  -9.405  -4.091  1.00  0.00     0.029 A 
ENDBRANCH  28  31
ENDBRANCH  14  27
TORSDOF 4
ENDMDL
